data_image0
_cell_length_a       17.06
_cell_length_b       17.06
_cell_length_c       9.2376
_cell_angle_alpha    90
_cell_angle_beta     90
_cell_angle_gamma    120

_symmetry_space_group_name_H-M    "P 1"
_symmetry_int_tables_number       1

loop_
  _symmetry_equiv_pos_as_xyz
  'x, y, z'

loop_
  _atom_site_label
  _atom_site_occupancy
  _atom_site_fract_x
  _atom_site_fract_y
  _atom_site_fract_z
  _atom_site_thermal_displace_type
  _atom_site_B_iso_or_equiv
  _atom_site_type_symbol
  C1       1.0000 0.18440  0.32030  0.13190  Biso   1.000  C
  C2       1.0000 0.21370  0.29000  0.02660  Biso   1.000  C
  H1       1.0000 0.19730  0.22820  0.01830  Biso   1.000  H
  C3       1.0000 0.26700  0.35140  0.93400  Biso   1.000  C
  H2       1.0000 0.28470  0.32760  0.85600  Biso   1.000  H
  C4       1.0000 0.30200  0.44150  0.92740  Biso   1.000  C
  H3       1.0000 0.34510  0.47900  0.85700  Biso   1.000  H
  C5       1.0000 0.26880  0.47340  0.03290  Biso   1.000  C
  C6       1.0000 0.18400  0.44810  0.25250  Biso   1.000  C
  H4       1.0000 0.20140  0.51090  0.24690  Biso   1.000  H
  C7       1.0000 0.12670  0.39240  0.36710  Biso   1.000  C
  H5       1.0000 0.10720  0.41720  0.44140  Biso   1.000  H
  C8       1.0000 0.10050  0.30140  0.36670  Biso   1.000  C
  H6       1.0000 0.05960  0.26090  0.43840  Biso   1.000  H
  C9       1.0000 0.67970  0.86410  0.13190  Biso   1.000  C
  C10      1.0000 0.71000  0.92370  0.02660  Biso   1.000  C
  H7       1.0000 0.77180  0.96910  0.01830  Biso   1.000  H
  C11      1.0000 0.64860  0.91560  0.93400  Biso   1.000  C
  H8       1.0000 0.67240  0.95710  0.85600  Biso   1.000  H
  C12      1.0000 0.55850  0.86050  0.92740  Biso   1.000  C
  H9       1.0000 0.52100  0.86610  0.85700  Biso   1.000  H
  C13      1.0000 0.52660  0.79540  0.03290  Biso   1.000  C
  C14      1.0000 0.55190  0.73590  0.25250  Biso   1.000  C
  H10      1.0000 0.48910  0.69050  0.24690  Biso   1.000  H
  C15      1.0000 0.60760  0.73430  0.36710  Biso   1.000  C
  H11      1.0000 0.58280  0.69000  0.44140  Biso   1.000  H
  C16      1.0000 0.69860  0.79910  0.36670  Biso   1.000  C
  H12      1.0000 0.73910  0.79870  0.43840  Biso   1.000  H
  C17      1.0000 0.13590  0.81560  0.13190  Biso   1.000  C
  C18      1.0000 0.07630  0.78630  0.02660  Biso   1.000  C
  H13      1.0000 0.03090  0.80270  0.01830  Biso   1.000  H
  C19      1.0000 0.08440  0.73300  0.93400  Biso   1.000  C
  H14      1.0000 0.04290  0.71530  0.85600  Biso   1.000  H
  C20      1.0000 0.13950  0.69800  0.92740  Biso   1.000  C
  H15      1.0000 0.13390  0.65490  0.85700  Biso   1.000  H
  C21      1.0000 0.20460  0.73120  0.03290  Biso   1.000  C
  C22      1.0000 0.26410  0.81600  0.25250  Biso   1.000  C
  H16      1.0000 0.30950  0.79860  0.24690  Biso   1.000  H
  C23      1.0000 0.26570  0.87330  0.36710  Biso   1.000  C
  H17      1.0000 0.31000  0.89280  0.44140  Biso   1.000  H
  C24      1.0000 0.20090  0.89950  0.36670  Biso   1.000  C
  H18      1.0000 0.20130  0.94040  0.43840  Biso   1.000  H
  C25      1.0000 0.32030  0.18440  0.86810  Biso   1.000  C
  C26      1.0000 0.29000  0.21370  0.97340  Biso   1.000  C
  H19      1.0000 0.22820  0.19730  0.98170  Biso   1.000  H
  C27      1.0000 0.35140  0.26700  0.06600  Biso   1.000  C
  H20      1.0000 0.32760  0.28470  0.14400  Biso   1.000  H
  C28      1.0000 0.44150  0.30200  0.07260  Biso   1.000  C
  H21      1.0000 0.47900  0.34510  0.14300  Biso   1.000  H
  C29      1.0000 0.47340  0.26880  0.96710  Biso   1.000  C
  C30      1.0000 0.44810  0.18400  0.74750  Biso   1.000  C
  H22      1.0000 0.51090  0.20140  0.75310  Biso   1.000  H
  C31      1.0000 0.39240  0.12670  0.63290  Biso   1.000  C
  H23      1.0000 0.41720  0.10720  0.55860  Biso   1.000  H
  C32      1.0000 0.30140  0.10050  0.63330  Biso   1.000  C
  H24      1.0000 0.26090  0.05960  0.56160  Biso   1.000  H
  C33      1.0000 0.86410  0.67970  0.86810  Biso   1.000  C
  C34      1.0000 0.92370  0.71000  0.97340  Biso   1.000  C
  H25      1.0000 0.96910  0.77180  0.98170  Biso   1.000  H
  C35      1.0000 0.91560  0.64860  0.06600  Biso   1.000  C
  H26      1.0000 0.95710  0.67240  0.14400  Biso   1.000  H
  C36      1.0000 0.86050  0.55850  0.07260  Biso   1.000  C
  H27      1.0000 0.86610  0.52100  0.14300  Biso   1.000  H
  C37      1.0000 0.79540  0.52660  0.96710  Biso   1.000  C
  C38      1.0000 0.73590  0.55190  0.74750  Biso   1.000  C
  H28      1.0000 0.69050  0.48910  0.75310  Biso   1.000  H
  C39      1.0000 0.73430  0.60760  0.63290  Biso   1.000  C
  H29      1.0000 0.69000  0.58280  0.55860  Biso   1.000  H
  C40      1.0000 0.79910  0.69860  0.63330  Biso   1.000  C
  H30      1.0000 0.79870  0.73910  0.56160  Biso   1.000  H
  C41      1.0000 0.81560  0.13590  0.86810  Biso   1.000  C
  C42      1.0000 0.78630  0.07630  0.97340  Biso   1.000  C
  H31      1.0000 0.80270  0.03090  0.98170  Biso   1.000  H
  C43      1.0000 0.73300  0.08440  0.06600  Biso   1.000  C
  H32      1.0000 0.71530  0.04290  0.14400  Biso   1.000  H
  C44      1.0000 0.69800  0.13950  0.07260  Biso   1.000  C
  H33      1.0000 0.65490  0.13390  0.14300  Biso   1.000  H
  C45      1.0000 0.73120  0.20460  0.96710  Biso   1.000  C
  C46      1.0000 0.81600  0.26410  0.74750  Biso   1.000  C
  H34      1.0000 0.79860  0.30950  0.75310  Biso   1.000  H
  C47      1.0000 0.87330  0.26570  0.63290  Biso   1.000  C
  H35      1.0000 0.89280  0.31000  0.55860  Biso   1.000  H
  C48      1.0000 0.89950  0.20090  0.63330  Biso   1.000  C
  H36      1.0000 0.94040  0.20130  0.56160  Biso   1.000  H
  C49      1.0000 0.81560  0.67970  0.86810  Biso   1.000  C
  C50      1.0000 0.78630  0.71000  0.97340  Biso   1.000  C
  H37      1.0000 0.80270  0.77180  0.98170  Biso   1.000  H
  C51      1.0000 0.73300  0.64860  0.06600  Biso   1.000  C
  H38      1.0000 0.71530  0.67240  0.14400  Biso   1.000  H
  C52      1.0000 0.69800  0.55850  0.07260  Biso   1.000  C
  H39      1.0000 0.65490  0.52100  0.14300  Biso   1.000  H
  C53      1.0000 0.73120  0.52660  0.96710  Biso   1.000  C
  C54      1.0000 0.81600  0.55190  0.74750  Biso   1.000  C
  H40      1.0000 0.79860  0.48910  0.75310  Biso   1.000  H
  C55      1.0000 0.87330  0.60760  0.63290  Biso   1.000  C
  H41      1.0000 0.89280  0.58280  0.55860  Biso   1.000  H
  C56      1.0000 0.89950  0.69860  0.63330  Biso   1.000  C
  H42      1.0000 0.94040  0.73910  0.56160  Biso   1.000  H
  C57      1.0000 0.32030  0.13590  0.86810  Biso   1.000  C
  C58      1.0000 0.29000  0.07630  0.97340  Biso   1.000  C
  H43      1.0000 0.22820  0.03090  0.98170  Biso   1.000  H
  C59      1.0000 0.35140  0.08440  0.06600  Biso   1.000  C
  H44      1.0000 0.32760  0.04290  0.14400  Biso   1.000  H
  C60      1.0000 0.44150  0.13950  0.07260  Biso   1.000  C
  H45      1.0000 0.47900  0.13390  0.14300  Biso   1.000  H
  C61      1.0000 0.47340  0.20460  0.96710  Biso   1.000  C
  C62      1.0000 0.44810  0.26410  0.74750  Biso   1.000  C
  H46      1.0000 0.51090  0.30950  0.75310  Biso   1.000  H
  C63      1.0000 0.39240  0.26570  0.63290  Biso   1.000  C
  H47      1.0000 0.41720  0.31000  0.55860  Biso   1.000  H
  C64      1.0000 0.30140  0.20090  0.63330  Biso   1.000  C
  H48      1.0000 0.26090  0.20130  0.56160  Biso   1.000  H
  C65      1.0000 0.86410  0.18440  0.86810  Biso   1.000  C
  C66      1.0000 0.92370  0.21370  0.97340  Biso   1.000  C
  H49      1.0000 0.96910  0.19730  0.98170  Biso   1.000  H
  C67      1.0000 0.91560  0.26700  0.06600  Biso   1.000  C
  H50      1.0000 0.95710  0.28470  0.14400  Biso   1.000  H
  C68      1.0000 0.86050  0.30200  0.07260  Biso   1.000  C
  H51      1.0000 0.86610  0.34510  0.14300  Biso   1.000  H
  C69      1.0000 0.79540  0.26880  0.96710  Biso   1.000  C
  C70      1.0000 0.73590  0.18400  0.74750  Biso   1.000  C
  H52      1.0000 0.69050  0.20140  0.75310  Biso   1.000  H
  C71      1.0000 0.73430  0.12670  0.63290  Biso   1.000  C
  H53      1.0000 0.69000  0.10720  0.55860  Biso   1.000  H
  C72      1.0000 0.79910  0.10050  0.63330  Biso   1.000  C
  H54      1.0000 0.79870  0.05960  0.56160  Biso   1.000  H
  C73      1.0000 0.67970  0.81560  0.13190  Biso   1.000  C
  C74      1.0000 0.71000  0.78630  0.02660  Biso   1.000  C
  H55      1.0000 0.77180  0.80270  0.01830  Biso   1.000  H
  C75      1.0000 0.64860  0.73300  0.93400  Biso   1.000  C
  H56      1.0000 0.67240  0.71530  0.85600  Biso   1.000  H
  C76      1.0000 0.55850  0.69800  0.92740  Biso   1.000  C
  H57      1.0000 0.52100  0.65490  0.85700  Biso   1.000  H
  C77      1.0000 0.52660  0.73120  0.03290  Biso   1.000  C
  C78      1.0000 0.55190  0.81600  0.25250  Biso   1.000  C
  H58      1.0000 0.48910  0.79860  0.24690  Biso   1.000  H
  C79      1.0000 0.60760  0.87330  0.36710  Biso   1.000  C
  H59      1.0000 0.58280  0.89280  0.44140  Biso   1.000  H
  C80      1.0000 0.69860  0.89950  0.36670  Biso   1.000  C
  H60      1.0000 0.73910  0.94040  0.43840  Biso   1.000  H
  C81      1.0000 0.13590  0.32030  0.13190  Biso   1.000  C
  C82      1.0000 0.07630  0.29000  0.02660  Biso   1.000  C
  H61      1.0000 0.03090  0.22820  0.01830  Biso   1.000  H
  C83      1.0000 0.08440  0.35140  0.93400  Biso   1.000  C
  H62      1.0000 0.04290  0.32760  0.85600  Biso   1.000  H
  C84      1.0000 0.13950  0.44150  0.92740  Biso   1.000  C
  H63      1.0000 0.13390  0.47900  0.85700  Biso   1.000  H
  C85      1.0000 0.20460  0.47340  0.03290  Biso   1.000  C
  C86      1.0000 0.26410  0.44810  0.25250  Biso   1.000  C
  H64      1.0000 0.30950  0.51090  0.24690  Biso   1.000  H
  C87      1.0000 0.26570  0.39240  0.36710  Biso   1.000  C
  H65      1.0000 0.31000  0.41720  0.44140  Biso   1.000  H
  C88      1.0000 0.20090  0.30140  0.36670  Biso   1.000  C
  H66      1.0000 0.20130  0.26090  0.43840  Biso   1.000  H
  C89      1.0000 0.18440  0.86410  0.13190  Biso   1.000  C
  C90      1.0000 0.21370  0.92370  0.02660  Biso   1.000  C
  H67      1.0000 0.19730  0.96910  0.01830  Biso   1.000  H
  C91      1.0000 0.26700  0.91560  0.93400  Biso   1.000  C
  H68      1.0000 0.28470  0.95710  0.85600  Biso   1.000  H
  C92      1.0000 0.30200  0.86050  0.92740  Biso   1.000  C
  H69      1.0000 0.34510  0.86610  0.85700  Biso   1.000  H
  C93      1.0000 0.26880  0.79540  0.03290  Biso   1.000  C
  C94      1.0000 0.18400  0.73590  0.25250  Biso   1.000  C
  H70      1.0000 0.20140  0.69050  0.24690  Biso   1.000  H
  C95      1.0000 0.12670  0.73430  0.36710  Biso   1.000  C
  H71      1.0000 0.10720  0.69000  0.44140  Biso   1.000  H
  C96      1.0000 0.10050  0.79910  0.36670  Biso   1.000  C
  H72      1.0000 0.05960  0.79870  0.43840  Biso   1.000  H
  Yb1      1.0000 0.00000  0.00000  0.50000  Biso   1.000  Yb
  Yb2      1.0000 0.00000  0.00000  0.00000  Biso   1.000  Yb
  O1       1.0000 0.06205  0.12410  0.36980  Biso   1.000  O
  O2       1.0000 0.06175  0.12350  0.13200  Biso   1.000  O
  C97      1.0000 0.08230  0.16460  0.24980  Biso   1.000  C
  C98      1.0000 0.13225  0.26450  0.24960  Biso   1.000  C
  C99      1.0000 0.20825  0.41650  0.13890  Biso   1.000  C
  C100     1.0000 0.28670  0.57340  0.02840  Biso   1.000  C
  O3       1.0000 0.87590  0.93795  0.36980  Biso   1.000  O
  O4       1.0000 0.87650  0.93825  0.13200  Biso   1.000  O
  C101     1.0000 0.83540  0.91770  0.24980  Biso   1.000  C
  C102     1.0000 0.73550  0.86775  0.24960  Biso   1.000  C
  C103     1.0000 0.58350  0.79175  0.13890  Biso   1.000  C
  C104     1.0000 0.42660  0.71330  0.02840  Biso   1.000  C
  O5       1.0000 0.06205  0.93795  0.36980  Biso   1.000  O
  O6       1.0000 0.06175  0.93825  0.13200  Biso   1.000  O
  C105     1.0000 0.08230  0.91770  0.24980  Biso   1.000  C
  C106     1.0000 0.13225  0.86775  0.24960  Biso   1.000  C
  C107     1.0000 0.20825  0.79175  0.13890  Biso   1.000  C
  C108     1.0000 0.28670  0.71330  0.02840  Biso   1.000  C
  O7       1.0000 0.12410  0.06205  0.63020  Biso   1.000  O
  O8       1.0000 0.12350  0.06175  0.86800  Biso   1.000  O
  C109     1.0000 0.16460  0.08230  0.75020  Biso   1.000  C
  C110     1.0000 0.26450  0.13225  0.75040  Biso   1.000  C
  C111     1.0000 0.41650  0.20825  0.86110  Biso   1.000  C
  C112     1.0000 0.57340  0.28670  0.97160  Biso   1.000  C
  O9       1.0000 0.93795  0.87590  0.63020  Biso   1.000  O
  O10      1.0000 0.93825  0.87650  0.86800  Biso   1.000  O
  C113     1.0000 0.91770  0.83540  0.75020  Biso   1.000  C
  C114     1.0000 0.86775  0.73550  0.75040  Biso   1.000  C
  C115     1.0000 0.79175  0.58350  0.86110  Biso   1.000  C
  C116     1.0000 0.71330  0.42660  0.97160  Biso   1.000  C
  O11      1.0000 0.93795  0.06205  0.63020  Biso   1.000  O
  O12      1.0000 0.93825  0.06175  0.86800  Biso   1.000  O
  C117     1.0000 0.91770  0.08230  0.75020  Biso   1.000  C
  C118     1.0000 0.86775  0.13225  0.75040  Biso   1.000  C
  C119     1.0000 0.79175  0.20825  0.86110  Biso   1.000  C
  C120     1.0000 0.71330  0.28670  0.97160  Biso   1.000  C
  C121     1.0000 0.23970  0.61985  0.02720  Biso   1.000  C
  H73      1.0000 0.17540  0.58770  0.02560  Biso   1.000  H
  C122     1.0000 0.38015  0.61985  0.02720  Biso   1.000  C
  H74      1.0000 0.41230  0.58770  0.02560  Biso   1.000  H
  C123     1.0000 0.38015  0.76030  0.02720  Biso   1.000  C
  H75      1.0000 0.41230  0.82460  0.02560  Biso   1.000  H
  C124     1.0000 0.61985  0.23970  0.97280  Biso   1.000  C
  H76      1.0000 0.58770  0.17540  0.97440  Biso   1.000  H
  C125     1.0000 0.61985  0.38015  0.97280  Biso   1.000  C
  H77      1.0000 0.58770  0.41230  0.97440  Biso   1.000  H
  C126     1.0000 0.76030  0.38015  0.97280  Biso   1.000  C
  H78      1.0000 0.82460  0.41230  0.97440  Biso   1.000  H
