data_image0
_cell_length_a       21.717
_cell_length_b       23.369
_cell_length_c       15.071
_cell_angle_alpha    90
_cell_angle_beta     90
_cell_angle_gamma    90

_symmetry_space_group_name_H-M    "P 1"
_symmetry_int_tables_number       1

loop_
  _symmetry_equiv_pos_as_xyz
  'x, y, z'

loop_
  _atom_site_label
  _atom_site_occupancy
  _atom_site_fract_x
  _atom_site_fract_y
  _atom_site_fract_z
  _atom_site_thermal_displace_type
  _atom_site_B_iso_or_equiv
  _atom_site_type_symbol
  Cs1      1.0000 0.55817  0.52697  0.85943  Biso   1.000  Cs
  Cu1      1.0000 0.55865  0.68578  0.91513  Biso   1.000  Cu
  Si1      1.0000 0.69306  0.62504  0.72359  Biso   1.000  Si
  Si2      1.0000 0.56325  0.63730  0.67961  Biso   1.000  Si
  Si3      1.0000 0.43255  0.62408  0.71886  Biso   1.000  Si
  Si4      1.0000 0.42346  0.62932  0.92011  Biso   1.000  Si
  Si5      1.0000 0.69322  0.62921  0.92514  Biso   1.000  Si
  O1       1.0000 0.69300  0.69200  0.70360  Biso   1.000  O
  O2       1.0000 0.56240  0.69560  0.73720  Biso   1.000  O
  O3       1.0000 0.43250  0.69140  0.70420  Biso   1.000  O
  O4       1.0000 0.62300  0.59880  0.70760  Biso   1.000  O
  O5       1.0000 0.50310  0.59820  0.70390  Biso   1.000  O
  O6       1.0000 0.41170  0.60560  0.81970  Biso   1.000  O
  O7       1.0000 0.49520  0.63160  0.94410  Biso   1.000  O
  O8       1.0000 0.62040  0.63000  0.93800  Biso   1.000  O
  O9       1.0000 0.71360  0.60950  0.82500  Biso   1.000  O
  O10      1.0000 0.72160  0.69410  0.94180  Biso   1.000  O
  O11      1.0000 0.39320  0.69420  0.92810  Biso   1.000  O
  C1       1.0000 0.73230  0.57950  0.00250  Biso   1.000  C
  H1       1.0000 0.72510  0.59190  0.06370  Biso   1.000  H
  H2       1.0000 0.77670  0.57950  0.99040  Biso   1.000  H
  H3       1.0000 0.71590  0.54080  0.99430  Biso   1.000  H
  C2       1.0000 0.74600  0.58590  0.65010  Biso   1.000  C
  H4       1.0000 0.73770  0.59640  0.58830  Biso   1.000  H
  H5       1.0000 0.73990  0.54460  0.65780  Biso   1.000  H
  H6       1.0000 0.78860  0.59580  0.66510  Biso   1.000  H
  C3       1.0000 0.56530  0.65110  0.55920  Biso   1.000  C
  H7       1.0000 0.57180  0.61500  0.52750  Biso   1.000  H
  H8       1.0000 0.59900  0.67750  0.54570  Biso   1.000  H
  H9       1.0000 0.52610  0.66810  0.54050  Biso   1.000  H
  C4       1.0000 0.38040  0.58530  0.64300  Biso   1.000  C
  H10      1.0000 0.33760  0.59500  0.65700  Biso   1.000  H
  H11      1.0000 0.38650  0.54400  0.65010  Biso   1.000  H
  H12      1.0000 0.38950  0.59620  0.58160  Biso   1.000  H
  C5       1.0000 0.38110  0.58080  0.99590  Biso   1.000  C
  H13      1.0000 0.33710  0.58980  0.99360  Biso   1.000  H
  H14      1.0000 0.39630  0.58600  0.05660  Biso   1.000  H
  H15      1.0000 0.38760  0.54110  0.97740  Biso   1.000  H
  H16      1.0000 0.40600  0.75650  0.10720  Biso   1.000  H
  H17      1.0000 0.47450  0.78050  0.09410  Biso   1.000  H
  H18      1.0000 0.46240  0.71300  0.09640  Biso   1.000  H
  H19      1.0000 0.62940  0.77750  0.09880  Biso   1.000  H
  H20      1.0000 0.69930  0.76090  0.12040  Biso   1.000  H
  H21      1.0000 0.64920  0.71160  0.10490  Biso   1.000  H
  Cs2      1.0000 0.94183  0.47303  0.35943  Biso   1.000  Cs
  Cu2      1.0000 0.94135  0.31422  0.41513  Biso   1.000  Cu
  Si6      1.0000 0.80694  0.37496  0.22359  Biso   1.000  Si
  Si7      1.0000 0.93675  0.36270  0.17961  Biso   1.000  Si
  Si8      1.0000 0.06745  0.37592  0.21886  Biso   1.000  Si
  Si9      1.0000 0.07654  0.37068  0.42011  Biso   1.000  Si
  Si10     1.0000 0.80678  0.37079  0.42514  Biso   1.000  Si
  O12      1.0000 0.80700  0.30800  0.20360  Biso   1.000  O
  O13      1.0000 0.93760  0.30440  0.23720  Biso   1.000  O
  O14      1.0000 0.06750  0.30860  0.20420  Biso   1.000  O
  O15      1.0000 0.87700  0.40120  0.20760  Biso   1.000  O
  O16      1.0000 0.99690  0.40180  0.20390  Biso   1.000  O
  O17      1.0000 0.08830  0.39440  0.31970  Biso   1.000  O
  O18      1.0000 0.00480  0.36840  0.44410  Biso   1.000  O
  O19      1.0000 0.87960  0.37000  0.43800  Biso   1.000  O
  O20      1.0000 0.78640  0.39050  0.32500  Biso   1.000  O
  O21      1.0000 0.77840  0.30590  0.44180  Biso   1.000  O
  O22      1.0000 0.10680  0.30580  0.42810  Biso   1.000  O
  C6       1.0000 0.76770  0.42050  0.50250  Biso   1.000  C
  H22      1.0000 0.77490  0.40810  0.56370  Biso   1.000  H
  H23      1.0000 0.72330  0.42050  0.49040  Biso   1.000  H
  H24      1.0000 0.78410  0.45920  0.49430  Biso   1.000  H
  C7       1.0000 0.75400  0.41410  0.15010  Biso   1.000  C
  H25      1.0000 0.76230  0.40360  0.08830  Biso   1.000  H
  H26      1.0000 0.76010  0.45540  0.15780  Biso   1.000  H
  H27      1.0000 0.71140  0.40420  0.16510  Biso   1.000  H
  C8       1.0000 0.93470  0.34890  0.05920  Biso   1.000  C
  H28      1.0000 0.92820  0.38500  0.02750  Biso   1.000  H
  H29      1.0000 0.90100  0.32250  0.04570  Biso   1.000  H
  H30      1.0000 0.97390  0.33190  0.04050  Biso   1.000  H
  C9       1.0000 0.11960  0.41470  0.14300  Biso   1.000  C
  H31      1.0000 0.16240  0.40500  0.15700  Biso   1.000  H
  H32      1.0000 0.11350  0.45600  0.15010  Biso   1.000  H
  H33      1.0000 0.11050  0.40380  0.08160  Biso   1.000  H
  C10      1.0000 0.11890  0.41920  0.49590  Biso   1.000  C
  H34      1.0000 0.16290  0.41020  0.49360  Biso   1.000  H
  H35      1.0000 0.10370  0.41400  0.55660  Biso   1.000  H
  H36      1.0000 0.11240  0.45890  0.47740  Biso   1.000  H
  H37      1.0000 0.09400  0.24350  0.60720  Biso   1.000  H
  H38      1.0000 0.02550  0.21950  0.59410  Biso   1.000  H
  H39      1.0000 0.03760  0.28700  0.59640  Biso   1.000  H
  H40      1.0000 0.87060  0.22250  0.59880  Biso   1.000  H
  H41      1.0000 0.80070  0.23910  0.62040  Biso   1.000  H
  H42      1.0000 0.85080  0.28840  0.60490  Biso   1.000  H
  Cs3      1.0000 0.44183  0.02697  0.14057  Biso   1.000  Cs
  Cu3      1.0000 0.44135  0.18578  0.08487  Biso   1.000  Cu
  Si11     1.0000 0.30694  0.12504  0.27641  Biso   1.000  Si
  Si12     1.0000 0.43675  0.13730  0.32039  Biso   1.000  Si
  Si13     1.0000 0.56745  0.12408  0.28114  Biso   1.000  Si
  Si14     1.0000 0.57654  0.12932  0.07989  Biso   1.000  Si
  Si15     1.0000 0.30678  0.12921  0.07486  Biso   1.000  Si
  O23      1.0000 0.30700  0.19200  0.29640  Biso   1.000  O
  O24      1.0000 0.43760  0.19560  0.26280  Biso   1.000  O
  O25      1.0000 0.56750  0.19140  0.29580  Biso   1.000  O
  O26      1.0000 0.37700  0.09880  0.29240  Biso   1.000  O
  O27      1.0000 0.49690  0.09820  0.29610  Biso   1.000  O
  O28      1.0000 0.58830  0.10560  0.18030  Biso   1.000  O
  O29      1.0000 0.50480  0.13160  0.05590  Biso   1.000  O
  O30      1.0000 0.37960  0.13000  0.06200  Biso   1.000  O
  O31      1.0000 0.28640  0.10950  0.17500  Biso   1.000  O
  O32      1.0000 0.27840  0.19410  0.05820  Biso   1.000  O
  O33      1.0000 0.60680  0.19420  0.07190  Biso   1.000  O
  C11      1.0000 0.26770  0.07950  0.99750  Biso   1.000  C
  H43      1.0000 0.27490  0.09190  0.93630  Biso   1.000  H
  H44      1.0000 0.22330  0.07950  0.00960  Biso   1.000  H
  H45      1.0000 0.28410  0.04080  0.00570  Biso   1.000  H
  C12      1.0000 0.25400  0.08590  0.34990  Biso   1.000  C
  H46      1.0000 0.26230  0.09640  0.41170  Biso   1.000  H
  H47      1.0000 0.26010  0.04460  0.34220  Biso   1.000  H
  H48      1.0000 0.21140  0.09580  0.33490  Biso   1.000  H
  C13      1.0000 0.43470  0.15110  0.44080  Biso   1.000  C
  H49      1.0000 0.42820  0.11500  0.47250  Biso   1.000  H
  H50      1.0000 0.40100  0.17750  0.45430  Biso   1.000  H
  H51      1.0000 0.47390  0.16810  0.45950  Biso   1.000  H
  C14      1.0000 0.61960  0.08530  0.35700  Biso   1.000  C
  H52      1.0000 0.66240  0.09500  0.34300  Biso   1.000  H
  H53      1.0000 0.61350  0.04400  0.34990  Biso   1.000  H
  H54      1.0000 0.61050  0.09620  0.41840  Biso   1.000  H
  C15      1.0000 0.61890  0.08080  0.00410  Biso   1.000  C
  H55      1.0000 0.66290  0.08980  0.00640  Biso   1.000  H
  H56      1.0000 0.60370  0.08600  0.94340  Biso   1.000  H
  H57      1.0000 0.61240  0.04110  0.02260  Biso   1.000  H
  H58      1.0000 0.59400  0.25650  0.89280  Biso   1.000  H
  H59      1.0000 0.52550  0.28050  0.90590  Biso   1.000  H
  H60      1.0000 0.53760  0.21300  0.90360  Biso   1.000  H
  H61      1.0000 0.37060  0.27750  0.90120  Biso   1.000  H
  H62      1.0000 0.30070  0.26090  0.87960  Biso   1.000  H
  H63      1.0000 0.35080  0.21160  0.89510  Biso   1.000  H
  Cs4      1.0000 0.05817  0.97303  0.64057  Biso   1.000  Cs
  Cu4      1.0000 0.05865  0.81422  0.58487  Biso   1.000  Cu
  Si16     1.0000 0.19306  0.87496  0.77641  Biso   1.000  Si
  Si17     1.0000 0.06325  0.86270  0.82039  Biso   1.000  Si
  Si18     1.0000 0.93255  0.87592  0.78114  Biso   1.000  Si
  Si19     1.0000 0.92346  0.87068  0.57989  Biso   1.000  Si
  Si20     1.0000 0.19322  0.87079  0.57486  Biso   1.000  Si
  O34      1.0000 0.19300  0.80800  0.79640  Biso   1.000  O
  O35      1.0000 0.06240  0.80440  0.76280  Biso   1.000  O
  O36      1.0000 0.93250  0.80860  0.79580  Biso   1.000  O
  O37      1.0000 0.12300  0.90120  0.79240  Biso   1.000  O
  O38      1.0000 0.00310  0.90180  0.79610  Biso   1.000  O
  O39      1.0000 0.91170  0.89440  0.68030  Biso   1.000  O
  O40      1.0000 0.99520  0.86840  0.55590  Biso   1.000  O
  O41      1.0000 0.12040  0.87000  0.56200  Biso   1.000  O
  O42      1.0000 0.21360  0.89050  0.67500  Biso   1.000  O
  O43      1.0000 0.22160  0.80590  0.55820  Biso   1.000  O
  O44      1.0000 0.89320  0.80580  0.57190  Biso   1.000  O
  C16      1.0000 0.23230  0.92050  0.49750  Biso   1.000  C
  H64      1.0000 0.22510  0.90810  0.43630  Biso   1.000  H
  H65      1.0000 0.27670  0.92050  0.50960  Biso   1.000  H
  H66      1.0000 0.21590  0.95920  0.50570  Biso   1.000  H
  C17      1.0000 0.24600  0.91410  0.84990  Biso   1.000  C
  H67      1.0000 0.23770  0.90360  0.91170  Biso   1.000  H
  H68      1.0000 0.23990  0.95540  0.84220  Biso   1.000  H
  H69      1.0000 0.28860  0.90420  0.83490  Biso   1.000  H
  C18      1.0000 0.06530  0.84890  0.94080  Biso   1.000  C
  H70      1.0000 0.07180  0.88500  0.97250  Biso   1.000  H
  H71      1.0000 0.09900  0.82250  0.95430  Biso   1.000  H
  H72      1.0000 0.02610  0.83190  0.95950  Biso   1.000  H
  C19      1.0000 0.88040  0.91470  0.85700  Biso   1.000  C
  H73      1.0000 0.83760  0.90500  0.84300  Biso   1.000  H
  H74      1.0000 0.88650  0.95600  0.84990  Biso   1.000  H
  H75      1.0000 0.88950  0.90380  0.91840  Biso   1.000  H
  C20      1.0000 0.88110  0.91920  0.50410  Biso   1.000  C
  H76      1.0000 0.83710  0.91020  0.50640  Biso   1.000  H
  H77      1.0000 0.89630  0.91400  0.44340  Biso   1.000  H
  H78      1.0000 0.88760  0.95890  0.52260  Biso   1.000  H
  H79      1.0000 0.90600  0.74350  0.39280  Biso   1.000  H
  H80      1.0000 0.97450  0.71950  0.40590  Biso   1.000  H
  H81      1.0000 0.96240  0.78700  0.40360  Biso   1.000  H
  H82      1.0000 0.12940  0.72250  0.40120  Biso   1.000  H
  H83      1.0000 0.19930  0.73910  0.37960  Biso   1.000  H
  H84      1.0000 0.14920  0.78840  0.39510  Biso   1.000  H
  Cs5      1.0000 0.44183  0.47303  0.14057  Biso   1.000  Cs
  Cu5      1.0000 0.44135  0.31422  0.08487  Biso   1.000  Cu
  Si21     1.0000 0.30694  0.37496  0.27641  Biso   1.000  Si
  Si22     1.0000 0.43675  0.36270  0.32039  Biso   1.000  Si
  Si23     1.0000 0.56745  0.37592  0.28114  Biso   1.000  Si
  Si24     1.0000 0.57654  0.37068  0.07989  Biso   1.000  Si
  Si25     1.0000 0.30678  0.37079  0.07486  Biso   1.000  Si
  O45      1.0000 0.30700  0.30800  0.29640  Biso   1.000  O
  O46      1.0000 0.43760  0.30440  0.26280  Biso   1.000  O
  O47      1.0000 0.56750  0.30860  0.29580  Biso   1.000  O
  O48      1.0000 0.37700  0.40120  0.29240  Biso   1.000  O
  O49      1.0000 0.49690  0.40180  0.29610  Biso   1.000  O
  O50      1.0000 0.58830  0.39440  0.18030  Biso   1.000  O
  O51      1.0000 0.50480  0.36840  0.05590  Biso   1.000  O
  O52      1.0000 0.37960  0.37000  0.06200  Biso   1.000  O
  O53      1.0000 0.28640  0.39050  0.17500  Biso   1.000  O
  O54      1.0000 0.27840  0.30590  0.05820  Biso   1.000  O
  O55      1.0000 0.60680  0.30580  0.07190  Biso   1.000  O
  C21      1.0000 0.26770  0.42050  0.99750  Biso   1.000  C
  H85      1.0000 0.27490  0.40810  0.93630  Biso   1.000  H
  H86      1.0000 0.22330  0.42050  0.00960  Biso   1.000  H
  H87      1.0000 0.28410  0.45920  0.00570  Biso   1.000  H
  C22      1.0000 0.25400  0.41410  0.34990  Biso   1.000  C
  H88      1.0000 0.26230  0.40360  0.41170  Biso   1.000  H
  H89      1.0000 0.26010  0.45540  0.34220  Biso   1.000  H
  H90      1.0000 0.21140  0.40420  0.33490  Biso   1.000  H
  C23      1.0000 0.43470  0.34890  0.44080  Biso   1.000  C
  H91      1.0000 0.42820  0.38500  0.47250  Biso   1.000  H
  H92      1.0000 0.40100  0.32250  0.45430  Biso   1.000  H
  H93      1.0000 0.47390  0.33190  0.45950  Biso   1.000  H
  C24      1.0000 0.61960  0.41470  0.35700  Biso   1.000  C
  H94      1.0000 0.66240  0.40500  0.34300  Biso   1.000  H
  H95      1.0000 0.61350  0.45600  0.34990  Biso   1.000  H
  H96      1.0000 0.61050  0.40380  0.41840  Biso   1.000  H
  C25      1.0000 0.61890  0.41920  0.00410  Biso   1.000  C
  H97      1.0000 0.66290  0.41020  0.00640  Biso   1.000  H
  H98      1.0000 0.60370  0.41400  0.94340  Biso   1.000  H
  H99      1.0000 0.61240  0.45890  0.02260  Biso   1.000  H
  H100     1.0000 0.59400  0.24350  0.89280  Biso   1.000  H
  H101     1.0000 0.52550  0.21950  0.90590  Biso   1.000  H
  H102     1.0000 0.53760  0.28700  0.90360  Biso   1.000  H
  H103     1.0000 0.37060  0.22250  0.90120  Biso   1.000  H
  H104     1.0000 0.30070  0.23910  0.87960  Biso   1.000  H
  H105     1.0000 0.35080  0.28840  0.89510  Biso   1.000  H
  Cs6      1.0000 0.05817  0.52697  0.64057  Biso   1.000  Cs
  Cu6      1.0000 0.05865  0.68578  0.58487  Biso   1.000  Cu
  Si26     1.0000 0.19306  0.62504  0.77641  Biso   1.000  Si
  Si27     1.0000 0.06325  0.63730  0.82039  Biso   1.000  Si
  Si28     1.0000 0.93255  0.62408  0.78114  Biso   1.000  Si
  Si29     1.0000 0.92346  0.62932  0.57989  Biso   1.000  Si
  Si30     1.0000 0.19322  0.62921  0.57486  Biso   1.000  Si
  O56      1.0000 0.19300  0.69200  0.79640  Biso   1.000  O
  O57      1.0000 0.06240  0.69560  0.76280  Biso   1.000  O
  O58      1.0000 0.93250  0.69140  0.79580  Biso   1.000  O
  O59      1.0000 0.12300  0.59880  0.79240  Biso   1.000  O
  O60      1.0000 0.00310  0.59820  0.79610  Biso   1.000  O
  O61      1.0000 0.91170  0.60560  0.68030  Biso   1.000  O
  O62      1.0000 0.99520  0.63160  0.55590  Biso   1.000  O
  O63      1.0000 0.12040  0.63000  0.56200  Biso   1.000  O
  O64      1.0000 0.21360  0.60950  0.67500  Biso   1.000  O
  O65      1.0000 0.22160  0.69410  0.55820  Biso   1.000  O
  O66      1.0000 0.89320  0.69420  0.57190  Biso   1.000  O
  C26      1.0000 0.23230  0.57950  0.49750  Biso   1.000  C
  H106     1.0000 0.22510  0.59190  0.43630  Biso   1.000  H
  H107     1.0000 0.27670  0.57950  0.50960  Biso   1.000  H
  H108     1.0000 0.21590  0.54080  0.50570  Biso   1.000  H
  C27      1.0000 0.24600  0.58590  0.84990  Biso   1.000  C
  H109     1.0000 0.23770  0.59640  0.91170  Biso   1.000  H
  H110     1.0000 0.23990  0.54460  0.84220  Biso   1.000  H
  H111     1.0000 0.28860  0.59580  0.83490  Biso   1.000  H
  C28      1.0000 0.06530  0.65110  0.94080  Biso   1.000  C
  H112     1.0000 0.07180  0.61500  0.97250  Biso   1.000  H
  H113     1.0000 0.09900  0.67750  0.95430  Biso   1.000  H
  H114     1.0000 0.02610  0.66810  0.95950  Biso   1.000  H
  C29      1.0000 0.88040  0.58530  0.85700  Biso   1.000  C
  H115     1.0000 0.83760  0.59500  0.84300  Biso   1.000  H
  H116     1.0000 0.88650  0.54400  0.84990  Biso   1.000  H
  H117     1.0000 0.88950  0.59620  0.91840  Biso   1.000  H
  C30      1.0000 0.88110  0.58080  0.50410  Biso   1.000  C
  H118     1.0000 0.83710  0.58980  0.50640  Biso   1.000  H
  H119     1.0000 0.89630  0.58600  0.44340  Biso   1.000  H
  H120     1.0000 0.88760  0.54110  0.52260  Biso   1.000  H
  H121     1.0000 0.90600  0.75650  0.39280  Biso   1.000  H
  H122     1.0000 0.97450  0.78050  0.40590  Biso   1.000  H
  H123     1.0000 0.96240  0.71300  0.40360  Biso   1.000  H
  H124     1.0000 0.12940  0.77750  0.40120  Biso   1.000  H
  H125     1.0000 0.19930  0.76090  0.37960  Biso   1.000  H
  H126     1.0000 0.14920  0.71160  0.39510  Biso   1.000  H
  Cs7      1.0000 0.55817  0.97303  0.85943  Biso   1.000  Cs
  Cu7      1.0000 0.55865  0.81422  0.91513  Biso   1.000  Cu
  Si31     1.0000 0.69306  0.87496  0.72359  Biso   1.000  Si
  Si32     1.0000 0.56325  0.86270  0.67961  Biso   1.000  Si
  Si33     1.0000 0.43255  0.87592  0.71886  Biso   1.000  Si
  Si34     1.0000 0.42346  0.87068  0.92011  Biso   1.000  Si
  Si35     1.0000 0.69322  0.87079  0.92514  Biso   1.000  Si
  O67      1.0000 0.69300  0.80800  0.70360  Biso   1.000  O
  O68      1.0000 0.56240  0.80440  0.73720  Biso   1.000  O
  O69      1.0000 0.43250  0.80860  0.70420  Biso   1.000  O
  O70      1.0000 0.62300  0.90120  0.70760  Biso   1.000  O
  O71      1.0000 0.50310  0.90180  0.70390  Biso   1.000  O
  O72      1.0000 0.41170  0.89440  0.81970  Biso   1.000  O
  O73      1.0000 0.49520  0.86840  0.94410  Biso   1.000  O
  O74      1.0000 0.62040  0.87000  0.93800  Biso   1.000  O
  O75      1.0000 0.71360  0.89050  0.82500  Biso   1.000  O
  O76      1.0000 0.72160  0.80590  0.94180  Biso   1.000  O
  O77      1.0000 0.39320  0.80580  0.92810  Biso   1.000  O
  C31      1.0000 0.73230  0.92050  0.00250  Biso   1.000  C
  H127     1.0000 0.72510  0.90810  0.06370  Biso   1.000  H
  H128     1.0000 0.77670  0.92050  0.99040  Biso   1.000  H
  H129     1.0000 0.71590  0.95920  0.99430  Biso   1.000  H
  C32      1.0000 0.74600  0.91410  0.65010  Biso   1.000  C
  H130     1.0000 0.73770  0.90360  0.58830  Biso   1.000  H
  H131     1.0000 0.73990  0.95540  0.65780  Biso   1.000  H
  H132     1.0000 0.78860  0.90420  0.66510  Biso   1.000  H
  C33      1.0000 0.56530  0.84890  0.55920  Biso   1.000  C
  H133     1.0000 0.57180  0.88500  0.52750  Biso   1.000  H
  H134     1.0000 0.59900  0.82250  0.54570  Biso   1.000  H
  H135     1.0000 0.52610  0.83190  0.54050  Biso   1.000  H
  C34      1.0000 0.38040  0.91470  0.64300  Biso   1.000  C
  H136     1.0000 0.33760  0.90500  0.65700  Biso   1.000  H
  H137     1.0000 0.38650  0.95600  0.65010  Biso   1.000  H
  H138     1.0000 0.38950  0.90380  0.58160  Biso   1.000  H
  C35      1.0000 0.38110  0.91920  0.99590  Biso   1.000  C
  H139     1.0000 0.33710  0.91020  0.99360  Biso   1.000  H
  H140     1.0000 0.39630  0.91400  0.05660  Biso   1.000  H
  H141     1.0000 0.38760  0.95890  0.97740  Biso   1.000  H
  H142     1.0000 0.40600  0.74350  0.10720  Biso   1.000  H
  H143     1.0000 0.47450  0.71950  0.09410  Biso   1.000  H
  H144     1.0000 0.46240  0.78700  0.09640  Biso   1.000  H
  H145     1.0000 0.62940  0.72250  0.09880  Biso   1.000  H
  H146     1.0000 0.69930  0.73910  0.12040  Biso   1.000  H
  H147     1.0000 0.64920  0.78840  0.10490  Biso   1.000  H
  Cs8      1.0000 0.94183  0.02697  0.35943  Biso   1.000  Cs
  Cu8      1.0000 0.94135  0.18578  0.41513  Biso   1.000  Cu
  Si36     1.0000 0.80694  0.12504  0.22359  Biso   1.000  Si
  Si37     1.0000 0.93675  0.13730  0.17961  Biso   1.000  Si
  Si38     1.0000 0.06745  0.12408  0.21886  Biso   1.000  Si
  Si39     1.0000 0.07654  0.12932  0.42011  Biso   1.000  Si
  Si40     1.0000 0.80678  0.12921  0.42514  Biso   1.000  Si
  O78      1.0000 0.80700  0.19200  0.20360  Biso   1.000  O
  O79      1.0000 0.93760  0.19560  0.23720  Biso   1.000  O
  O80      1.0000 0.06750  0.19140  0.20420  Biso   1.000  O
  O81      1.0000 0.87700  0.09880  0.20760  Biso   1.000  O
  O82      1.0000 0.99690  0.09820  0.20390  Biso   1.000  O
  O83      1.0000 0.08830  0.10560  0.31970  Biso   1.000  O
  O84      1.0000 0.00480  0.13160  0.44410  Biso   1.000  O
  O85      1.0000 0.87960  0.13000  0.43800  Biso   1.000  O
  O86      1.0000 0.78640  0.10950  0.32500  Biso   1.000  O
  O87      1.0000 0.77840  0.19410  0.44180  Biso   1.000  O
  O88      1.0000 0.10680  0.19420  0.42810  Biso   1.000  O
  C36      1.0000 0.76770  0.07950  0.50250  Biso   1.000  C
  H148     1.0000 0.77490  0.09190  0.56370  Biso   1.000  H
  H149     1.0000 0.72330  0.07950  0.49040  Biso   1.000  H
  H150     1.0000 0.78410  0.04080  0.49430  Biso   1.000  H
  C37      1.0000 0.75400  0.08590  0.15010  Biso   1.000  C
  H151     1.0000 0.76230  0.09640  0.08830  Biso   1.000  H
  H152     1.0000 0.76010  0.04460  0.15780  Biso   1.000  H
  H153     1.0000 0.71140  0.09580  0.16510  Biso   1.000  H
  C38      1.0000 0.93470  0.15110  0.05920  Biso   1.000  C
  H154     1.0000 0.92820  0.11500  0.02750  Biso   1.000  H
  H155     1.0000 0.90100  0.17750  0.04570  Biso   1.000  H
  H156     1.0000 0.97390  0.16810  0.04050  Biso   1.000  H
  C39      1.0000 0.11960  0.08530  0.14300  Biso   1.000  C
  H157     1.0000 0.16240  0.09500  0.15700  Biso   1.000  H
  H158     1.0000 0.11350  0.04400  0.15010  Biso   1.000  H
  H159     1.0000 0.11050  0.09620  0.08160  Biso   1.000  H
  C40      1.0000 0.11890  0.08080  0.49590  Biso   1.000  C
  H160     1.0000 0.16290  0.08980  0.49360  Biso   1.000  H
  H161     1.0000 0.10370  0.08600  0.55660  Biso   1.000  H
  H162     1.0000 0.11240  0.04110  0.47740  Biso   1.000  H
  H163     1.0000 0.09400  0.25650  0.60720  Biso   1.000  H
  H164     1.0000 0.02550  0.28050  0.59410  Biso   1.000  H
  H165     1.0000 0.03760  0.21300  0.59640  Biso   1.000  H
  H166     1.0000 0.87060  0.27750  0.59880  Biso   1.000  H
  H167     1.0000 0.80070  0.26090  0.62040  Biso   1.000  H
  H168     1.0000 0.85080  0.21160  0.60490  Biso   1.000  H
  Cs9      1.0000 0.75085  0.75000  0.54064  Biso   1.000  Cs
  Cs10     1.0000 0.31026  0.75000  0.70572  Biso   1.000  Cs
  Cu9      1.0000 0.63265  0.75000  0.73002  Biso   1.000  Cu
  Cu10     1.0000 0.49184  0.75000  0.72817  Biso   1.000  Cu
  Si41     1.0000 0.43446  0.75000  0.95647  Biso   1.000  Si
  Si42     1.0000 0.68013  0.75000  0.96761  Biso   1.000  Si
  O89      1.0000 0.61770  0.75000  0.90680  Biso   1.000  O
  O90      1.0000 0.49970  0.75000  0.90240  Biso   1.000  O
  C41      1.0000 0.44560  0.75000  0.07770  Biso   1.000  C
  C42      1.0000 0.66240  0.75000  0.08690  Biso   1.000  C
  Cs11     1.0000 0.74915  0.25000  0.04064  Biso   1.000  Cs
  Cs12     1.0000 0.18974  0.25000  0.20572  Biso   1.000  Cs
  Cu11     1.0000 0.86735  0.25000  0.23002  Biso   1.000  Cu
  Cu12     1.0000 0.00816  0.25000  0.22817  Biso   1.000  Cu
  Si43     1.0000 0.06554  0.25000  0.45647  Biso   1.000  Si
  Si44     1.0000 0.81987  0.25000  0.46761  Biso   1.000  Si
  O91      1.0000 0.88230  0.25000  0.40680  Biso   1.000  O
  O92      1.0000 0.00030  0.25000  0.40240  Biso   1.000  O
  C43      1.0000 0.05440  0.25000  0.57770  Biso   1.000  C
  C44      1.0000 0.83760  0.25000  0.58690  Biso   1.000  C
  Cs13     1.0000 0.24915  0.25000  0.45936  Biso   1.000  Cs
  Cs14     1.0000 0.68974  0.25000  0.29428  Biso   1.000  Cs
  Cu13     1.0000 0.36735  0.25000  0.26998  Biso   1.000  Cu
  Cu14     1.0000 0.50816  0.25000  0.27183  Biso   1.000  Cu
  Si45     1.0000 0.56554  0.25000  0.04353  Biso   1.000  Si
  Si46     1.0000 0.31987  0.25000  0.03239  Biso   1.000  Si
  O93      1.0000 0.38230  0.25000  0.09320  Biso   1.000  O
  O94      1.0000 0.50030  0.25000  0.09760  Biso   1.000  O
  C45      1.0000 0.55440  0.25000  0.92230  Biso   1.000  C
  C46      1.0000 0.33760  0.25000  0.91310  Biso   1.000  C
  Cs15     1.0000 0.25085  0.75000  0.95936  Biso   1.000  Cs
  Cs16     1.0000 0.81026  0.75000  0.79428  Biso   1.000  Cs
  Cu15     1.0000 0.13265  0.75000  0.76998  Biso   1.000  Cu
  Cu16     1.0000 0.99184  0.75000  0.77183  Biso   1.000  Cu
  Si47     1.0000 0.93446  0.75000  0.54353  Biso   1.000  Si
  Si48     1.0000 0.18013  0.75000  0.53239  Biso   1.000  Si
  O95      1.0000 0.11770  0.75000  0.59320  Biso   1.000  O
  O96      1.0000 0.99970  0.75000  0.59760  Biso   1.000  O
  C47      1.0000 0.94560  0.75000  0.42230  Biso   1.000  C
  C48      1.0000 0.16240  0.75000  0.41310  Biso   1.000  C
