data_image0
_cell_length_a       13.3451
_cell_length_b       23.7349
_cell_length_c       13.1709
_cell_angle_alpha    90
_cell_angle_beta     90
_cell_angle_gamma    90

_symmetry_space_group_name_H-M    "P 1"
_symmetry_int_tables_number       1

loop_
  _symmetry_equiv_pos_as_xyz
  'x, y, z'

loop_
  _atom_site_label
  _atom_site_occupancy
  _atom_site_fract_x
  _atom_site_fract_y
  _atom_site_fract_z
  _atom_site_thermal_displace_type
  _atom_site_B_iso_or_equiv
  _atom_site_type_symbol
  O1       1.0000 0.56380  0.56556  0.39850  Biso   1.000  O
  O2       1.0000 0.69580  0.61877  0.40890  Biso   1.000  O
  O3       1.0000 0.51360  0.68395  0.33240  Biso   1.000  O
  N1       1.0000 0.97480  0.52230  0.22770  Biso   1.000  N
  C1       1.0000 0.65240  0.57782  0.37190  Biso   1.000  C
  C2       1.0000 0.47960  0.66570  0.25930  Biso   1.000  C
  H1       1.0000 0.44180  0.63310  0.26760  Biso   1.000  H
  C3       1.0000 0.70600  0.54920  0.28590  Biso   1.000  C
  C4       1.0000 0.82000  0.53230  0.32320  Biso   1.000  C
  C5       1.0000 0.81460  0.55200  0.28340  Biso   1.000  C
  C6       1.0000 0.86800  0.51360  0.23280  Biso   1.000  C
  C7       1.0000 0.71280  0.53470  0.31490  Biso   1.000  C
  O4       1.0000 0.68560  0.63100  0.37980  Biso   1.000  O
  O5       1.0000 0.36600  0.53400  0.48180  Biso   1.000  O
  C8       1.0000 0.55900  0.93370  0.52160  Biso   1.000  C
  O6       1.0000 0.06380  0.06556  0.89850  Biso   1.000  O
  O7       1.0000 0.19580  0.11877  0.90890  Biso   1.000  O
  O8       1.0000 0.01360  0.18395  0.83240  Biso   1.000  O
  N2       1.0000 0.47480  0.02230  0.72770  Biso   1.000  N
  C9       1.0000 0.15240  0.07782  0.87190  Biso   1.000  C
  C10      1.0000 0.97960  0.16570  0.75930  Biso   1.000  C
  H2       1.0000 0.94180  0.13310  0.76760  Biso   1.000  H
  C11      1.0000 0.20600  0.04920  0.78590  Biso   1.000  C
  C12      1.0000 0.32000  0.03230  0.82320  Biso   1.000  C
  C13      1.0000 0.31460  0.05200  0.78340  Biso   1.000  C
  C14      1.0000 0.36800  0.01360  0.73280  Biso   1.000  C
  C15      1.0000 0.21280  0.03470  0.81490  Biso   1.000  C
  O9       1.0000 0.18560  0.13100  0.87980  Biso   1.000  O
  O10      1.0000 0.86600  0.03400  0.98180  Biso   1.000  O
  C16      1.0000 0.05900  0.43370  0.02160  Biso   1.000  C
  O11      1.0000 0.43620  0.43444  0.39850  Biso   1.000  O
  O12      1.0000 0.30420  0.38123  0.40890  Biso   1.000  O
  O13      1.0000 0.48640  0.31605  0.33240  Biso   1.000  O
  N3       1.0000 0.02520  0.47770  0.22770  Biso   1.000  N
  C17      1.0000 0.34760  0.42218  0.37190  Biso   1.000  C
  C18      1.0000 0.52040  0.33430  0.25930  Biso   1.000  C
  H3       1.0000 0.55820  0.36690  0.26760  Biso   1.000  H
  C19      1.0000 0.29400  0.45080  0.28590  Biso   1.000  C
  C20      1.0000 0.18000  0.46770  0.32320  Biso   1.000  C
  C21      1.0000 0.18540  0.44800  0.28340  Biso   1.000  C
  C22      1.0000 0.13200  0.48640  0.23280  Biso   1.000  C
  C23      1.0000 0.28720  0.46530  0.31490  Biso   1.000  C
  O14      1.0000 0.31440  0.36900  0.37980  Biso   1.000  O
  O15      1.0000 0.63400  0.46600  0.48180  Biso   1.000  O
  C24      1.0000 0.44100  0.06630  0.52160  Biso   1.000  C
  O16      1.0000 0.93620  0.93444  0.89850  Biso   1.000  O
  O17      1.0000 0.80420  0.88123  0.90890  Biso   1.000  O
  O18      1.0000 0.98640  0.81605  0.83240  Biso   1.000  O
  N4       1.0000 0.52520  0.97770  0.72770  Biso   1.000  N
  C25      1.0000 0.84760  0.92218  0.87190  Biso   1.000  C
  C26      1.0000 0.02040  0.83430  0.75930  Biso   1.000  C
  H4       1.0000 0.05820  0.86690  0.76760  Biso   1.000  H
  C27      1.0000 0.79400  0.95080  0.78590  Biso   1.000  C
  C28      1.0000 0.68000  0.96770  0.82320  Biso   1.000  C
  C29      1.0000 0.68540  0.94800  0.78340  Biso   1.000  C
  C30      1.0000 0.63200  0.98640  0.73280  Biso   1.000  C
  C31      1.0000 0.78720  0.96530  0.81490  Biso   1.000  C
  O19      1.0000 0.81440  0.86900  0.87980  Biso   1.000  O
  O20      1.0000 0.13400  0.96600  0.98180  Biso   1.000  O
  C32      1.0000 0.94100  0.56630  0.02160  Biso   1.000  C
  O21      1.0000 0.93620  0.06556  0.60150  Biso   1.000  O
  O22      1.0000 0.80420  0.11877  0.59110  Biso   1.000  O
  O23      1.0000 0.98640  0.18395  0.66760  Biso   1.000  O
  N5       1.0000 0.52520  0.02230  0.77230  Biso   1.000  N
  C33      1.0000 0.84760  0.07782  0.62810  Biso   1.000  C
  C34      1.0000 0.02040  0.16570  0.74070  Biso   1.000  C
  H5       1.0000 0.05820  0.13310  0.73240  Biso   1.000  H
  C35      1.0000 0.79400  0.04920  0.71410  Biso   1.000  C
  C36      1.0000 0.68000  0.03230  0.67680  Biso   1.000  C
  C37      1.0000 0.68540  0.05200  0.71660  Biso   1.000  C
  C38      1.0000 0.63200  0.01360  0.76720  Biso   1.000  C
  C39      1.0000 0.78720  0.03470  0.68510  Biso   1.000  C
  O24      1.0000 0.81440  0.13100  0.62020  Biso   1.000  O
  O25      1.0000 0.13400  0.03400  0.51820  Biso   1.000  O
  C40      1.0000 0.94100  0.43370  0.47840  Biso   1.000  C
  O26      1.0000 0.43620  0.56556  0.10150  Biso   1.000  O
  O27      1.0000 0.30420  0.61877  0.09110  Biso   1.000  O
  O28      1.0000 0.48640  0.68395  0.16760  Biso   1.000  O
  N6       1.0000 0.02520  0.52230  0.27230  Biso   1.000  N
  C41      1.0000 0.34760  0.57782  0.12810  Biso   1.000  C
  C42      1.0000 0.52040  0.66570  0.24070  Biso   1.000  C
  H6       1.0000 0.55820  0.63310  0.23240  Biso   1.000  H
  C43      1.0000 0.29400  0.54920  0.21410  Biso   1.000  C
  C44      1.0000 0.18000  0.53230  0.17680  Biso   1.000  C
  C45      1.0000 0.18540  0.55200  0.21660  Biso   1.000  C
  C46      1.0000 0.13200  0.51360  0.26720  Biso   1.000  C
  C47      1.0000 0.28720  0.53470  0.18510  Biso   1.000  C
  O29      1.0000 0.31440  0.63100  0.12020  Biso   1.000  O
  O30      1.0000 0.63400  0.53400  0.01820  Biso   1.000  O
  C48      1.0000 0.44100  0.93370  0.97840  Biso   1.000  C
  O31      1.0000 0.06380  0.93444  0.60150  Biso   1.000  O
  O32      1.0000 0.19580  0.88123  0.59110  Biso   1.000  O
  O33      1.0000 0.01360  0.81605  0.66760  Biso   1.000  O
  N7       1.0000 0.47480  0.97770  0.77230  Biso   1.000  N
  C49      1.0000 0.15240  0.92218  0.62810  Biso   1.000  C
  C50      1.0000 0.97960  0.83430  0.74070  Biso   1.000  C
  H7       1.0000 0.94180  0.86690  0.73240  Biso   1.000  H
  C51      1.0000 0.20600  0.95080  0.71410  Biso   1.000  C
  C52      1.0000 0.32000  0.96770  0.67680  Biso   1.000  C
  C53      1.0000 0.31460  0.94800  0.71660  Biso   1.000  C
  C54      1.0000 0.36800  0.98640  0.76720  Biso   1.000  C
  C55      1.0000 0.21280  0.96530  0.68510  Biso   1.000  C
  O34      1.0000 0.18560  0.86900  0.62020  Biso   1.000  O
  O35      1.0000 0.86600  0.96600  0.51820  Biso   1.000  O
  C56      1.0000 0.05900  0.56630  0.47840  Biso   1.000  C
  O36      1.0000 0.56380  0.43444  0.10150  Biso   1.000  O
  O37      1.0000 0.69580  0.38123  0.09110  Biso   1.000  O
  O38      1.0000 0.51360  0.31605  0.16760  Biso   1.000  O
  N8       1.0000 0.97480  0.47770  0.27230  Biso   1.000  N
  C57      1.0000 0.65240  0.42218  0.12810  Biso   1.000  C
  C58      1.0000 0.47960  0.33430  0.24070  Biso   1.000  C
  H8       1.0000 0.44180  0.36690  0.23240  Biso   1.000  H
  C59      1.0000 0.70600  0.45080  0.21410  Biso   1.000  C
  C60      1.0000 0.82000  0.46770  0.17680  Biso   1.000  C
  C61      1.0000 0.81460  0.44800  0.21660  Biso   1.000  C
  C62      1.0000 0.86800  0.48640  0.26720  Biso   1.000  C
  C63      1.0000 0.71280  0.46530  0.18510  Biso   1.000  C
  O39      1.0000 0.68560  0.36900  0.12020  Biso   1.000  O
  O40      1.0000 0.36600  0.46600  0.01820  Biso   1.000  O
  C64      1.0000 0.55900  0.06630  0.97840  Biso   1.000  C
  O41      1.0000 0.43620  0.43444  0.60150  Biso   1.000  O
  O42      1.0000 0.30420  0.38123  0.59110  Biso   1.000  O
  O43      1.0000 0.48640  0.31605  0.66760  Biso   1.000  O
  N9       1.0000 0.02520  0.47770  0.77230  Biso   1.000  N
  C65      1.0000 0.34760  0.42218  0.62810  Biso   1.000  C
  C66      1.0000 0.52040  0.33430  0.74070  Biso   1.000  C
  H9       1.0000 0.55820  0.36690  0.73240  Biso   1.000  H
  C67      1.0000 0.29400  0.45080  0.71410  Biso   1.000  C
  C68      1.0000 0.18000  0.46770  0.67680  Biso   1.000  C
  C69      1.0000 0.18540  0.44800  0.71660  Biso   1.000  C
  C70      1.0000 0.13200  0.48640  0.76720  Biso   1.000  C
  C71      1.0000 0.28720  0.46530  0.68510  Biso   1.000  C
  O44      1.0000 0.31440  0.36900  0.62020  Biso   1.000  O
  O45      1.0000 0.63400  0.46600  0.51820  Biso   1.000  O
  C72      1.0000 0.44100  0.06630  0.47840  Biso   1.000  C
  O46      1.0000 0.93620  0.93444  0.10150  Biso   1.000  O
  O47      1.0000 0.80420  0.88123  0.09110  Biso   1.000  O
  O48      1.0000 0.98640  0.81605  0.16760  Biso   1.000  O
  N10      1.0000 0.52520  0.97770  0.27230  Biso   1.000  N
  C73      1.0000 0.84760  0.92218  0.12810  Biso   1.000  C
  C74      1.0000 0.02040  0.83430  0.24070  Biso   1.000  C
  H10      1.0000 0.05820  0.86690  0.23240  Biso   1.000  H
  C75      1.0000 0.79400  0.95080  0.21410  Biso   1.000  C
  C76      1.0000 0.68000  0.96770  0.17680  Biso   1.000  C
  C77      1.0000 0.68540  0.94800  0.21660  Biso   1.000  C
  C78      1.0000 0.63200  0.98640  0.26720  Biso   1.000  C
  C79      1.0000 0.78720  0.96530  0.18510  Biso   1.000  C
  O49      1.0000 0.81440  0.86900  0.12020  Biso   1.000  O
  O50      1.0000 0.13400  0.96600  0.01820  Biso   1.000  O
  C80      1.0000 0.94100  0.56630  0.97840  Biso   1.000  C
  O51      1.0000 0.56380  0.56556  0.60150  Biso   1.000  O
  O52      1.0000 0.69580  0.61877  0.59110  Biso   1.000  O
  O53      1.0000 0.51360  0.68395  0.66760  Biso   1.000  O
  N11      1.0000 0.97480  0.52230  0.77230  Biso   1.000  N
  C81      1.0000 0.65240  0.57782  0.62810  Biso   1.000  C
  C82      1.0000 0.47960  0.66570  0.74070  Biso   1.000  C
  H11      1.0000 0.44180  0.63310  0.73240  Biso   1.000  H
  C83      1.0000 0.70600  0.54920  0.71410  Biso   1.000  C
  C84      1.0000 0.82000  0.53230  0.67680  Biso   1.000  C
  C85      1.0000 0.81460  0.55200  0.71660  Biso   1.000  C
  C86      1.0000 0.86800  0.51360  0.76720  Biso   1.000  C
  C87      1.0000 0.71280  0.53470  0.68510  Biso   1.000  C
  O54      1.0000 0.68560  0.63100  0.62020  Biso   1.000  O
  O55      1.0000 0.36600  0.53400  0.51820  Biso   1.000  O
  C88      1.0000 0.55900  0.93370  0.47840  Biso   1.000  C
  O56      1.0000 0.06380  0.06556  0.10150  Biso   1.000  O
  O57      1.0000 0.19580  0.11877  0.09110  Biso   1.000  O
  O58      1.0000 0.01360  0.18395  0.16760  Biso   1.000  O
  N12      1.0000 0.47480  0.02230  0.27230  Biso   1.000  N
  C89      1.0000 0.15240  0.07782  0.12810  Biso   1.000  C
  C90      1.0000 0.97960  0.16570  0.24070  Biso   1.000  C
  H12      1.0000 0.94180  0.13310  0.23240  Biso   1.000  H
  C91      1.0000 0.20600  0.04920  0.21410  Biso   1.000  C
  C92      1.0000 0.32000  0.03230  0.17680  Biso   1.000  C
  C93      1.0000 0.31460  0.05200  0.21660  Biso   1.000  C
  C94      1.0000 0.36800  0.01360  0.26720  Biso   1.000  C
  C95      1.0000 0.21280  0.03470  0.18510  Biso   1.000  C
  O59      1.0000 0.18560  0.13100  0.12020  Biso   1.000  O
  O60      1.0000 0.86600  0.03400  0.01820  Biso   1.000  O
  C96      1.0000 0.05900  0.43370  0.97840  Biso   1.000  C
  O61      1.0000 0.06380  0.93444  0.39850  Biso   1.000  O
  O62      1.0000 0.19580  0.88123  0.40890  Biso   1.000  O
  O63      1.0000 0.01360  0.81605  0.33240  Biso   1.000  O
  N13      1.0000 0.47480  0.97770  0.22770  Biso   1.000  N
  C97      1.0000 0.15240  0.92218  0.37190  Biso   1.000  C
  C98      1.0000 0.97960  0.83430  0.25930  Biso   1.000  C
  H13      1.0000 0.94180  0.86690  0.26760  Biso   1.000  H
  C99      1.0000 0.20600  0.95080  0.28590  Biso   1.000  C
  C100     1.0000 0.32000  0.96770  0.32320  Biso   1.000  C
  C101     1.0000 0.31460  0.94800  0.28340  Biso   1.000  C
  C102     1.0000 0.36800  0.98640  0.23280  Biso   1.000  C
  C103     1.0000 0.21280  0.96530  0.31490  Biso   1.000  C
  O64      1.0000 0.18560  0.86900  0.37980  Biso   1.000  O
  O65      1.0000 0.86600  0.96600  0.48180  Biso   1.000  O
  C104     1.0000 0.05900  0.56630  0.52160  Biso   1.000  C
  O66      1.0000 0.56380  0.43444  0.89850  Biso   1.000  O
  O67      1.0000 0.69580  0.38123  0.90890  Biso   1.000  O
  O68      1.0000 0.51360  0.31605  0.83240  Biso   1.000  O
  N14      1.0000 0.97480  0.47770  0.72770  Biso   1.000  N
  C105     1.0000 0.65240  0.42218  0.87190  Biso   1.000  C
  C106     1.0000 0.47960  0.33430  0.75930  Biso   1.000  C
  H14      1.0000 0.44180  0.36690  0.76760  Biso   1.000  H
  C107     1.0000 0.70600  0.45080  0.78590  Biso   1.000  C
  C108     1.0000 0.82000  0.46770  0.82320  Biso   1.000  C
  C109     1.0000 0.81460  0.44800  0.78340  Biso   1.000  C
  C110     1.0000 0.86800  0.48640  0.73280  Biso   1.000  C
  C111     1.0000 0.71280  0.46530  0.81490  Biso   1.000  C
  O69      1.0000 0.68560  0.36900  0.87980  Biso   1.000  O
  O70      1.0000 0.36600  0.46600  0.98180  Biso   1.000  O
  C112     1.0000 0.55900  0.06630  0.02160  Biso   1.000  C
  O71      1.0000 0.93620  0.06556  0.39850  Biso   1.000  O
  O72      1.0000 0.80420  0.11877  0.40890  Biso   1.000  O
  O73      1.0000 0.98640  0.18395  0.33240  Biso   1.000  O
  N15      1.0000 0.52520  0.02230  0.22770  Biso   1.000  N
  C113     1.0000 0.84760  0.07782  0.37190  Biso   1.000  C
  C114     1.0000 0.02040  0.16570  0.25930  Biso   1.000  C
  H15      1.0000 0.05820  0.13310  0.26760  Biso   1.000  H
  C115     1.0000 0.79400  0.04920  0.28590  Biso   1.000  C
  C116     1.0000 0.68000  0.03230  0.32320  Biso   1.000  C
  C117     1.0000 0.68540  0.05200  0.28340  Biso   1.000  C
  C118     1.0000 0.63200  0.01360  0.23280  Biso   1.000  C
  C119     1.0000 0.78720  0.03470  0.31490  Biso   1.000  C
  O74      1.0000 0.81440  0.13100  0.37980  Biso   1.000  O
  O75      1.0000 0.13400  0.03400  0.48180  Biso   1.000  O
  C120     1.0000 0.94100  0.43370  0.52160  Biso   1.000  C
  O76      1.0000 0.43620  0.56556  0.89850  Biso   1.000  O
  O77      1.0000 0.30420  0.61877  0.90890  Biso   1.000  O
  O78      1.0000 0.48640  0.68395  0.83240  Biso   1.000  O
  N16      1.0000 0.02520  0.52230  0.72770  Biso   1.000  N
  C121     1.0000 0.34760  0.57782  0.87190  Biso   1.000  C
  C122     1.0000 0.52040  0.66570  0.75930  Biso   1.000  C
  H16      1.0000 0.55820  0.63310  0.76760  Biso   1.000  H
  C123     1.0000 0.29400  0.54920  0.78590  Biso   1.000  C
  C124     1.0000 0.18000  0.53230  0.82320  Biso   1.000  C
  C125     1.0000 0.18540  0.55200  0.78340  Biso   1.000  C
  C126     1.0000 0.13200  0.51360  0.73280  Biso   1.000  C
  C127     1.0000 0.28720  0.53470  0.81490  Biso   1.000  C
  O79      1.0000 0.31440  0.63100  0.87980  Biso   1.000  O
  O80      1.0000 0.63400  0.53400  0.98180  Biso   1.000  O
  C128     1.0000 0.44100  0.93370  0.02160  Biso   1.000  C
  Dy1      1.0000 0.55404  0.65525  0.50000  Biso   1.000  Dy
  O81      1.0000 0.39670  0.62594  0.50000  Biso   1.000  O
  O82      1.0000 0.64270  0.73826  0.50000  Biso   1.000  O
  O83      1.0000 0.48150  0.75769  0.50000  Biso   1.000  O
  C129     1.0000 0.33900  0.58390  0.50000  Biso   1.000  C
  C130     1.0000 0.22990  0.59630  0.50000  Biso   1.000  C
  C131     1.0000 0.16130  0.55330  0.50000  Biso   1.000  C
  H17      1.0000 0.18400  0.51400  0.50000  Biso   1.000  H
  C132     1.0000 0.19890  0.65250  0.50000  Biso   1.000  C
  H18      1.0000 0.24670  0.68100  0.50000  Biso   1.000  H
  C133     1.0000 0.57270  0.77390  0.50000  Biso   1.000  C
  C134     1.0000 0.59810  0.83350  0.50000  Biso   1.000  C
  C135     1.0000 0.52600  0.87885  0.50000  Biso   1.000  C
  H19      1.0000 0.45410  0.87030  0.50000  Biso   1.000  H
  N17      1.0000 0.48480  0.97541  0.50000  Biso   1.000  N
  Dy2      1.0000 0.05404  0.15525  0.00000  Biso   1.000  Dy
  O84      1.0000 0.89670  0.12594  0.00000  Biso   1.000  O
  O85      1.0000 0.14270  0.23826  0.00000  Biso   1.000  O
  O86      1.0000 0.98150  0.25769  0.00000  Biso   1.000  O
  C136     1.0000 0.83900  0.08390  0.00000  Biso   1.000  C
  C137     1.0000 0.72990  0.09630  0.00000  Biso   1.000  C
  C138     1.0000 0.66130  0.05330  0.00000  Biso   1.000  C
  H20      1.0000 0.68400  0.01400  0.00000  Biso   1.000  H
  C139     1.0000 0.69890  0.15250  0.00000  Biso   1.000  C
  H21      1.0000 0.74670  0.18100  0.00000  Biso   1.000  H
  C140     1.0000 0.07270  0.27390  0.00000  Biso   1.000  C
  C141     1.0000 0.09810  0.33350  0.00000  Biso   1.000  C
  C142     1.0000 0.02600  0.37885  0.00000  Biso   1.000  C
  H22      1.0000 0.95410  0.37030  0.00000  Biso   1.000  H
  N18      1.0000 0.98480  0.47541  0.00000  Biso   1.000  N
  Dy3      1.0000 0.44596  0.34475  0.50000  Biso   1.000  Dy
  O87      1.0000 0.60330  0.37406  0.50000  Biso   1.000  O
  O88      1.0000 0.35730  0.26174  0.50000  Biso   1.000  O
  O89      1.0000 0.51850  0.24231  0.50000  Biso   1.000  O
  C143     1.0000 0.66100  0.41610  0.50000  Biso   1.000  C
  C144     1.0000 0.77010  0.40370  0.50000  Biso   1.000  C
  C145     1.0000 0.83870  0.44670  0.50000  Biso   1.000  C
  H23      1.0000 0.81600  0.48600  0.50000  Biso   1.000  H
  C146     1.0000 0.80110  0.34750  0.50000  Biso   1.000  C
  H24      1.0000 0.75330  0.31900  0.50000  Biso   1.000  H
  C147     1.0000 0.42730  0.22610  0.50000  Biso   1.000  C
  C148     1.0000 0.40190  0.16650  0.50000  Biso   1.000  C
  C149     1.0000 0.47400  0.12115  0.50000  Biso   1.000  C
  H25      1.0000 0.54590  0.12970  0.50000  Biso   1.000  H
  N19      1.0000 0.51520  0.02459  0.50000  Biso   1.000  N
  Dy4      1.0000 0.94596  0.84475  0.00000  Biso   1.000  Dy
  O90      1.0000 0.10330  0.87406  0.00000  Biso   1.000  O
  O91      1.0000 0.85730  0.76174  0.00000  Biso   1.000  O
  O92      1.0000 0.01850  0.74231  0.00000  Biso   1.000  O
  C150     1.0000 0.16100  0.91610  0.00000  Biso   1.000  C
  C151     1.0000 0.27010  0.90370  0.00000  Biso   1.000  C
  C152     1.0000 0.33870  0.94670  0.00000  Biso   1.000  C
  H26      1.0000 0.31600  0.98600  0.00000  Biso   1.000  H
  C153     1.0000 0.30110  0.84750  0.00000  Biso   1.000  C
  H27      1.0000 0.25330  0.81900  0.00000  Biso   1.000  H
  C154     1.0000 0.92730  0.72610  0.00000  Biso   1.000  C
  C155     1.0000 0.90190  0.66650  0.00000  Biso   1.000  C
  C156     1.0000 0.97400  0.62115  0.00000  Biso   1.000  C
  H28      1.0000 0.04590  0.62970  0.00000  Biso   1.000  H
  N20      1.0000 0.01520  0.52459  0.00000  Biso   1.000  N
  Dy5      1.0000 0.94596  0.15525  0.50000  Biso   1.000  Dy
  O93      1.0000 0.10330  0.12594  0.50000  Biso   1.000  O
  O94      1.0000 0.85730  0.23826  0.50000  Biso   1.000  O
  O95      1.0000 0.01850  0.25769  0.50000  Biso   1.000  O
  C157     1.0000 0.16100  0.08390  0.50000  Biso   1.000  C
  C158     1.0000 0.27010  0.09630  0.50000  Biso   1.000  C
  C159     1.0000 0.33870  0.05330  0.50000  Biso   1.000  C
  H29      1.0000 0.31600  0.01400  0.50000  Biso   1.000  H
  C160     1.0000 0.30110  0.15250  0.50000  Biso   1.000  C
  H30      1.0000 0.25330  0.18100  0.50000  Biso   1.000  H
  C161     1.0000 0.92730  0.27390  0.50000  Biso   1.000  C
  C162     1.0000 0.90190  0.33350  0.50000  Biso   1.000  C
  C163     1.0000 0.97400  0.37885  0.50000  Biso   1.000  C
  H31      1.0000 0.04590  0.37030  0.50000  Biso   1.000  H
  N21      1.0000 0.01520  0.47541  0.50000  Biso   1.000  N
  Dy6      1.0000 0.44596  0.65525  0.00000  Biso   1.000  Dy
  O96      1.0000 0.60330  0.62594  0.00000  Biso   1.000  O
  O97      1.0000 0.35730  0.73826  0.00000  Biso   1.000  O
  O98      1.0000 0.51850  0.75769  0.00000  Biso   1.000  O
  C164     1.0000 0.66100  0.58390  0.00000  Biso   1.000  C
  C165     1.0000 0.77010  0.59630  0.00000  Biso   1.000  C
  C166     1.0000 0.83870  0.55330  0.00000  Biso   1.000  C
  H32      1.0000 0.81600  0.51400  0.00000  Biso   1.000  H
  C167     1.0000 0.80110  0.65250  0.00000  Biso   1.000  C
  H33      1.0000 0.75330  0.68100  0.00000  Biso   1.000  H
  C168     1.0000 0.42730  0.77390  0.00000  Biso   1.000  C
  C169     1.0000 0.40190  0.83350  0.00000  Biso   1.000  C
  C170     1.0000 0.47400  0.87885  0.00000  Biso   1.000  C
  H34      1.0000 0.54590  0.87030  0.00000  Biso   1.000  H
  N22      1.0000 0.51520  0.97541  0.00000  Biso   1.000  N
  Dy7      1.0000 0.05404  0.84475  0.50000  Biso   1.000  Dy
  O99      1.0000 0.89670  0.87406  0.50000  Biso   1.000  O
  O100     1.0000 0.14270  0.76174  0.50000  Biso   1.000  O
  O101     1.0000 0.98150  0.74231  0.50000  Biso   1.000  O
  C171     1.0000 0.83900  0.91610  0.50000  Biso   1.000  C
  C172     1.0000 0.72990  0.90370  0.50000  Biso   1.000  C
  C173     1.0000 0.66130  0.94670  0.50000  Biso   1.000  C
  H35      1.0000 0.68400  0.98600  0.50000  Biso   1.000  H
  C174     1.0000 0.69890  0.84750  0.50000  Biso   1.000  C
  H36      1.0000 0.74670  0.81900  0.50000  Biso   1.000  H
  C175     1.0000 0.07270  0.72610  0.50000  Biso   1.000  C
  C176     1.0000 0.09810  0.66650  0.50000  Biso   1.000  C
  C177     1.0000 0.02600  0.62115  0.50000  Biso   1.000  C
  H37      1.0000 0.95410  0.62970  0.50000  Biso   1.000  H
  N23      1.0000 0.98480  0.52459  0.50000  Biso   1.000  N
  Dy8      1.0000 0.55404  0.34475  0.00000  Biso   1.000  Dy
  O102     1.0000 0.39670  0.37406  0.00000  Biso   1.000  O
  O103     1.0000 0.64270  0.26174  0.00000  Biso   1.000  O
  O104     1.0000 0.48150  0.24231  0.00000  Biso   1.000  O
  C178     1.0000 0.33900  0.41610  0.00000  Biso   1.000  C
  C179     1.0000 0.22990  0.40370  0.00000  Biso   1.000  C
  C180     1.0000 0.16130  0.44670  0.00000  Biso   1.000  C
  H38      1.0000 0.18400  0.48600  0.00000  Biso   1.000  H
  C181     1.0000 0.19890  0.34750  0.00000  Biso   1.000  C
  H39      1.0000 0.24670  0.31900  0.00000  Biso   1.000  H
  C182     1.0000 0.57270  0.22610  0.00000  Biso   1.000  C
  C183     1.0000 0.59810  0.16650  0.00000  Biso   1.000  C
  C184     1.0000 0.52600  0.12115  0.00000  Biso   1.000  C
  H40      1.0000 0.45410  0.12970  0.00000  Biso   1.000  H
  N24      1.0000 0.48480  0.02459  0.00000  Biso   1.000  N
  Ni1      1.0000 0.50000  0.50000  0.50000  Biso   1.000  Ni
  Ni2      1.0000 0.00000  0.00000  0.00000  Biso   1.000  Ni
  Ni3      1.0000 0.00000  0.00000  0.50000  Biso   1.000  Ni
  Ni4      1.0000 0.50000  0.50000  0.00000  Biso   1.000  Ni
  C185     1.0000 0.66130  0.50000  0.25000  Biso   1.000  C
  H41      1.0000 0.59160  0.50000  0.25000  Biso   1.000  H
  C186     1.0000 0.33870  0.50000  0.25000  Biso   1.000  C
  H42      1.0000 0.40840  0.50000  0.25000  Biso   1.000  H
  C187     1.0000 0.83870  0.00000  0.75000  Biso   1.000  C
  H43      1.0000 0.90840  0.00000  0.75000  Biso   1.000  H
  C188     1.0000 0.16130  0.00000  0.75000  Biso   1.000  C
  H44      1.0000 0.09160  0.00000  0.75000  Biso   1.000  H
  C189     1.0000 0.33870  0.50000  0.75000  Biso   1.000  C
  H45      1.0000 0.40840  0.50000  0.75000  Biso   1.000  H
  C190     1.0000 0.66130  0.50000  0.75000  Biso   1.000  C
  H46      1.0000 0.59160  0.50000  0.75000  Biso   1.000  H
  C191     1.0000 0.16130  0.00000  0.25000  Biso   1.000  C
  H47      1.0000 0.09160  0.00000  0.25000  Biso   1.000  H
  C192     1.0000 0.83870  0.00000  0.25000  Biso   1.000  C
  H48      1.0000 0.90840  0.00000  0.25000  Biso   1.000  H
