data_image0
_cell_length_a       13.9585
_cell_length_b       13.9585
_cell_length_c       20.0529
_cell_angle_alpha    90
_cell_angle_beta     90
_cell_angle_gamma    90

_symmetry_space_group_name_H-M    "P 1"
_symmetry_int_tables_number       1

loop_
  _symmetry_equiv_pos_as_xyz
  'x, y, z'

loop_
  _atom_site_label
  _atom_site_occupancy
  _atom_site_fract_x
  _atom_site_fract_y
  _atom_site_fract_z
  _atom_site_thermal_displace_type
  _atom_site_B_iso_or_equiv
  _atom_site_type_symbol
  N1       1.0000 0.17660  0.89190  0.93190  Biso   1.000  N
  C1       1.0000 0.23010  0.87880  0.87910  Biso   1.000  C
  H1       1.0000 0.28280  0.91640  0.86830  Biso   1.000  H
  C2       1.0000 0.27450  0.84460  0.80830  Biso   1.000  C
  H2       1.0000 0.30230  0.89900  0.82680  Biso   1.000  H
  O1       1.0000 0.20210  0.90970  0.92690  Biso   1.000  O
  N2       1.0000 0.67660  0.39190  0.43190  Biso   1.000  N
  C3       1.0000 0.73010  0.37880  0.37910  Biso   1.000  C
  H3       1.0000 0.78280  0.41640  0.36830  Biso   1.000  H
  C4       1.0000 0.77450  0.34460  0.30830  Biso   1.000  C
  H4       1.0000 0.80230  0.39900  0.32680  Biso   1.000  H
  O2       1.0000 0.70210  0.40970  0.42690  Biso   1.000  O
  N3       1.0000 0.82340  0.10810  0.93190  Biso   1.000  N
  C5       1.0000 0.76990  0.12120  0.87910  Biso   1.000  C
  H5       1.0000 0.71720  0.08360  0.86830  Biso   1.000  H
  C6       1.0000 0.72550  0.15540  0.80830  Biso   1.000  C
  H6       1.0000 0.69770  0.10100  0.82680  Biso   1.000  H
  O3       1.0000 0.79790  0.09030  0.92690  Biso   1.000  O
  N4       1.0000 0.32340  0.60810  0.43190  Biso   1.000  N
  C7       1.0000 0.26990  0.62120  0.37910  Biso   1.000  C
  H7       1.0000 0.21720  0.58360  0.36830  Biso   1.000  H
  C8       1.0000 0.22550  0.65540  0.30830  Biso   1.000  C
  H8       1.0000 0.19770  0.60100  0.32680  Biso   1.000  H
  O4       1.0000 0.29790  0.59030  0.42690  Biso   1.000  O
  N5       1.0000 0.10810  0.17660  0.93190  Biso   1.000  N
  C9       1.0000 0.12120  0.23010  0.87910  Biso   1.000  C
  H9       1.0000 0.08360  0.28280  0.86830  Biso   1.000  H
  C10      1.0000 0.15540  0.27450  0.80830  Biso   1.000  C
  H10      1.0000 0.10100  0.30230  0.82680  Biso   1.000  H
  O5       1.0000 0.09030  0.20210  0.92690  Biso   1.000  O
  N6       1.0000 0.60810  0.67660  0.43190  Biso   1.000  N
  C11      1.0000 0.62120  0.73010  0.37910  Biso   1.000  C
  H11      1.0000 0.58360  0.78280  0.36830  Biso   1.000  H
  C12      1.0000 0.65540  0.77450  0.30830  Biso   1.000  C
  H12      1.0000 0.60100  0.80230  0.32680  Biso   1.000  H
  O6       1.0000 0.59030  0.70210  0.42690  Biso   1.000  O
  N7       1.0000 0.89190  0.82340  0.93190  Biso   1.000  N
  C13      1.0000 0.87880  0.76990  0.87910  Biso   1.000  C
  H13      1.0000 0.91640  0.71720  0.86830  Biso   1.000  H
  C14      1.0000 0.84460  0.72550  0.80830  Biso   1.000  C
  H14      1.0000 0.89900  0.69770  0.82680  Biso   1.000  H
  O7       1.0000 0.90970  0.79790  0.92690  Biso   1.000  O
  N8       1.0000 0.39190  0.32340  0.43190  Biso   1.000  N
  C15      1.0000 0.37880  0.26990  0.37910  Biso   1.000  C
  H15      1.0000 0.41640  0.21720  0.36830  Biso   1.000  H
  C16      1.0000 0.34460  0.22550  0.30830  Biso   1.000  C
  H16      1.0000 0.39900  0.19770  0.32680  Biso   1.000  H
  O8       1.0000 0.40970  0.29790  0.42690  Biso   1.000  O
  N9       1.0000 0.82340  0.89190  0.06810  Biso   1.000  N
  C17      1.0000 0.76990  0.87880  0.12090  Biso   1.000  C
  H17      1.0000 0.71720  0.91640  0.13170  Biso   1.000  H
  C18      1.0000 0.72550  0.84460  0.19170  Biso   1.000  C
  H18      1.0000 0.69770  0.89900  0.17320  Biso   1.000  H
  O9       1.0000 0.79790  0.90970  0.07310  Biso   1.000  O
  N10      1.0000 0.32340  0.39190  0.56810  Biso   1.000  N
  C19      1.0000 0.26990  0.37880  0.62090  Biso   1.000  C
  H19      1.0000 0.21720  0.41640  0.63170  Biso   1.000  H
  C20      1.0000 0.22550  0.34460  0.69170  Biso   1.000  C
  H20      1.0000 0.19770  0.39900  0.67320  Biso   1.000  H
  O10      1.0000 0.29790  0.40970  0.57310  Biso   1.000  O
  N11      1.0000 0.17660  0.10810  0.06810  Biso   1.000  N
  C21      1.0000 0.23010  0.12120  0.12090  Biso   1.000  C
  H21      1.0000 0.28280  0.08360  0.13170  Biso   1.000  H
  C22      1.0000 0.27450  0.15540  0.19170  Biso   1.000  C
  H22      1.0000 0.30230  0.10100  0.17320  Biso   1.000  H
  O11      1.0000 0.20210  0.09030  0.07310  Biso   1.000  O
  N12      1.0000 0.67660  0.60810  0.56810  Biso   1.000  N
  C23      1.0000 0.73010  0.62120  0.62090  Biso   1.000  C
  H23      1.0000 0.78280  0.58360  0.63170  Biso   1.000  H
  C24      1.0000 0.77450  0.65540  0.69170  Biso   1.000  C
  H24      1.0000 0.80230  0.60100  0.67320  Biso   1.000  H
  O12      1.0000 0.70210  0.59030  0.57310  Biso   1.000  O
  N13      1.0000 0.89190  0.17660  0.06810  Biso   1.000  N
  C25      1.0000 0.87880  0.23010  0.12090  Biso   1.000  C
  H25      1.0000 0.91640  0.28280  0.13170  Biso   1.000  H
  C26      1.0000 0.84460  0.27450  0.19170  Biso   1.000  C
  H26      1.0000 0.89900  0.30230  0.17320  Biso   1.000  H
  O13      1.0000 0.90970  0.20210  0.07310  Biso   1.000  O
  N14      1.0000 0.39190  0.67660  0.56810  Biso   1.000  N
  C27      1.0000 0.37880  0.73010  0.62090  Biso   1.000  C
  H27      1.0000 0.41640  0.78280  0.63170  Biso   1.000  H
  C28      1.0000 0.34460  0.77450  0.69170  Biso   1.000  C
  H28      1.0000 0.39900  0.80230  0.67320  Biso   1.000  H
  O14      1.0000 0.40970  0.70210  0.57310  Biso   1.000  O
  N15      1.0000 0.10810  0.82340  0.06810  Biso   1.000  N
  C29      1.0000 0.12120  0.76990  0.12090  Biso   1.000  C
  H29      1.0000 0.08360  0.71720  0.13170  Biso   1.000  H
  C30      1.0000 0.15540  0.72550  0.19170  Biso   1.000  C
  H30      1.0000 0.10100  0.69770  0.17320  Biso   1.000  H
  O15      1.0000 0.09030  0.79790  0.07310  Biso   1.000  O
  N16      1.0000 0.60810  0.32340  0.56810  Biso   1.000  N
  C31      1.0000 0.62120  0.26990  0.62090  Biso   1.000  C
  H31      1.0000 0.58360  0.21720  0.63170  Biso   1.000  H
  C32      1.0000 0.65540  0.22550  0.69170  Biso   1.000  C
  H32      1.0000 0.60100  0.19770  0.67320  Biso   1.000  H
  O16      1.0000 0.59030  0.29790  0.57310  Biso   1.000  O
  N17      1.0000 0.82340  0.10810  0.06810  Biso   1.000  N
  C33      1.0000 0.76990  0.12120  0.12090  Biso   1.000  C
  H33      1.0000 0.71720  0.08360  0.13170  Biso   1.000  H
  C34      1.0000 0.72550  0.15540  0.19170  Biso   1.000  C
  H34      1.0000 0.69770  0.10100  0.17320  Biso   1.000  H
  O17      1.0000 0.79790  0.09030  0.07310  Biso   1.000  O
  N18      1.0000 0.32340  0.60810  0.56810  Biso   1.000  N
  C35      1.0000 0.26990  0.62120  0.62090  Biso   1.000  C
  H35      1.0000 0.21720  0.58360  0.63170  Biso   1.000  H
  C36      1.0000 0.22550  0.65540  0.69170  Biso   1.000  C
  H36      1.0000 0.19770  0.60100  0.67320  Biso   1.000  H
  O18      1.0000 0.29790  0.59030  0.57310  Biso   1.000  O
  N19      1.0000 0.17660  0.89190  0.06810  Biso   1.000  N
  C37      1.0000 0.23010  0.87880  0.12090  Biso   1.000  C
  H37      1.0000 0.28280  0.91640  0.13170  Biso   1.000  H
  C38      1.0000 0.27450  0.84460  0.19170  Biso   1.000  C
  H38      1.0000 0.30230  0.89900  0.17320  Biso   1.000  H
  O19      1.0000 0.20210  0.90970  0.07310  Biso   1.000  O
  N20      1.0000 0.67660  0.39190  0.56810  Biso   1.000  N
  C39      1.0000 0.73010  0.37880  0.62090  Biso   1.000  C
  H39      1.0000 0.78280  0.41640  0.63170  Biso   1.000  H
  C40      1.0000 0.77450  0.34460  0.69170  Biso   1.000  C
  H40      1.0000 0.80230  0.39900  0.67320  Biso   1.000  H
  O20      1.0000 0.70210  0.40970  0.57310  Biso   1.000  O
  N21      1.0000 0.89190  0.82340  0.06810  Biso   1.000  N
  C41      1.0000 0.87880  0.76990  0.12090  Biso   1.000  C
  H41      1.0000 0.91640  0.71720  0.13170  Biso   1.000  H
  C42      1.0000 0.84460  0.72550  0.19170  Biso   1.000  C
  H42      1.0000 0.89900  0.69770  0.17320  Biso   1.000  H
  O21      1.0000 0.90970  0.79790  0.07310  Biso   1.000  O
  N22      1.0000 0.39190  0.32340  0.56810  Biso   1.000  N
  C43      1.0000 0.37880  0.26990  0.62090  Biso   1.000  C
  H43      1.0000 0.41640  0.21720  0.63170  Biso   1.000  H
  C44      1.0000 0.34460  0.22550  0.69170  Biso   1.000  C
  H44      1.0000 0.39900  0.19770  0.67320  Biso   1.000  H
  O22      1.0000 0.40970  0.29790  0.57310  Biso   1.000  O
  N23      1.0000 0.10810  0.17660  0.06810  Biso   1.000  N
  C45      1.0000 0.12120  0.23010  0.12090  Biso   1.000  C
  H45      1.0000 0.08360  0.28280  0.13170  Biso   1.000  H
  C46      1.0000 0.15540  0.27450  0.19170  Biso   1.000  C
  H46      1.0000 0.10100  0.30230  0.17320  Biso   1.000  H
  O23      1.0000 0.09030  0.20210  0.07310  Biso   1.000  O
  N24      1.0000 0.60810  0.67660  0.56810  Biso   1.000  N
  C47      1.0000 0.62120  0.73010  0.62090  Biso   1.000  C
  H47      1.0000 0.58360  0.78280  0.63170  Biso   1.000  H
  C48      1.0000 0.65540  0.77450  0.69170  Biso   1.000  C
  H48      1.0000 0.60100  0.80230  0.67320  Biso   1.000  H
  O24      1.0000 0.59030  0.70210  0.57310  Biso   1.000  O
  N25      1.0000 0.17660  0.10810  0.93190  Biso   1.000  N
  C49      1.0000 0.23010  0.12120  0.87910  Biso   1.000  C
  H49      1.0000 0.28280  0.08360  0.86830  Biso   1.000  H
  C50      1.0000 0.27450  0.15540  0.80830  Biso   1.000  C
  H50      1.0000 0.30230  0.10100  0.82680  Biso   1.000  H
  O25      1.0000 0.20210  0.09030  0.92690  Biso   1.000  O
  N26      1.0000 0.67660  0.60810  0.43190  Biso   1.000  N
  C51      1.0000 0.73010  0.62120  0.37910  Biso   1.000  C
  H51      1.0000 0.78280  0.58360  0.36830  Biso   1.000  H
  C52      1.0000 0.77450  0.65540  0.30830  Biso   1.000  C
  H52      1.0000 0.80230  0.60100  0.32680  Biso   1.000  H
  O26      1.0000 0.70210  0.59030  0.42690  Biso   1.000  O
  N27      1.0000 0.82340  0.89190  0.93190  Biso   1.000  N
  C53      1.0000 0.76990  0.87880  0.87910  Biso   1.000  C
  H53      1.0000 0.71720  0.91640  0.86830  Biso   1.000  H
  C54      1.0000 0.72550  0.84460  0.80830  Biso   1.000  C
  H54      1.0000 0.69770  0.89900  0.82680  Biso   1.000  H
  O27      1.0000 0.79790  0.90970  0.92690  Biso   1.000  O
  N28      1.0000 0.32340  0.39190  0.43190  Biso   1.000  N
  C55      1.0000 0.26990  0.37880  0.37910  Biso   1.000  C
  H55      1.0000 0.21720  0.41640  0.36830  Biso   1.000  H
  C56      1.0000 0.22550  0.34460  0.30830  Biso   1.000  C
  H56      1.0000 0.19770  0.39900  0.32680  Biso   1.000  H
  O28      1.0000 0.29790  0.40970  0.42690  Biso   1.000  O
  N29      1.0000 0.10810  0.82340  0.93190  Biso   1.000  N
  C57      1.0000 0.12120  0.76990  0.87910  Biso   1.000  C
  H57      1.0000 0.08360  0.71720  0.86830  Biso   1.000  H
  C58      1.0000 0.15540  0.72550  0.80830  Biso   1.000  C
  H58      1.0000 0.10100  0.69770  0.82680  Biso   1.000  H
  O29      1.0000 0.09030  0.79790  0.92690  Biso   1.000  O
  N30      1.0000 0.60810  0.32340  0.43190  Biso   1.000  N
  C59      1.0000 0.62120  0.26990  0.37910  Biso   1.000  C
  H59      1.0000 0.58360  0.21720  0.36830  Biso   1.000  H
  C60      1.0000 0.65540  0.22550  0.30830  Biso   1.000  C
  H60      1.0000 0.60100  0.19770  0.32680  Biso   1.000  H
  O30      1.0000 0.59030  0.29790  0.42690  Biso   1.000  O
  N31      1.0000 0.89190  0.17660  0.93190  Biso   1.000  N
  C61      1.0000 0.87880  0.23010  0.87910  Biso   1.000  C
  H61      1.0000 0.91640  0.28280  0.86830  Biso   1.000  H
  C62      1.0000 0.84460  0.27450  0.80830  Biso   1.000  C
  H62      1.0000 0.89900  0.30230  0.82680  Biso   1.000  H
  O31      1.0000 0.90970  0.20210  0.92690  Biso   1.000  O
  N32      1.0000 0.39190  0.67660  0.43190  Biso   1.000  N
  C63      1.0000 0.37880  0.73010  0.37910  Biso   1.000  C
  H63      1.0000 0.41640  0.78280  0.36830  Biso   1.000  H
  C64      1.0000 0.34460  0.77450  0.30830  Biso   1.000  C
  H64      1.0000 0.39900  0.80230  0.32680  Biso   1.000  H
  O32      1.0000 0.40970  0.70210  0.42690  Biso   1.000  O
  Cu1      1.0000 0.18418  0.00000  0.00000  Biso   1.000  Cu
  Cu2      1.0000 0.68418  0.50000  0.50000  Biso   1.000  Cu
  Cu3      1.0000 0.81582  0.00000  0.00000  Biso   1.000  Cu
  Cu4      1.0000 0.31582  0.50000  0.50000  Biso   1.000  Cu
  Cu5      1.0000 0.00000  0.18418  0.00000  Biso   1.000  Cu
  Cu6      1.0000 0.50000  0.68418  0.50000  Biso   1.000  Cu
  Cu7      1.0000 0.00000  0.81582  0.00000  Biso   1.000  Cu
  Cu8      1.0000 0.50000  0.31582  0.50000  Biso   1.000  Cu
  Cl1      1.0000 0.00000  0.00000  0.00000  Biso   1.000  Cl
  Cl2      1.0000 0.50000  0.50000  0.50000  Biso   1.000  Cl
  C65      1.0000 0.19830  0.80170  0.84140  Biso   1.000  C
  C66      1.0000 0.23430  0.76570  0.78200  Biso   1.000  C
  C67      1.0000 0.16120  0.83880  0.90370  Biso   1.000  C
  C68      1.0000 0.69830  0.30170  0.34140  Biso   1.000  C
  C69      1.0000 0.73430  0.26570  0.28200  Biso   1.000  C
  C70      1.0000 0.66120  0.33880  0.40370  Biso   1.000  C
  C71      1.0000 0.80170  0.19830  0.84140  Biso   1.000  C
  C72      1.0000 0.76570  0.23430  0.78200  Biso   1.000  C
  C73      1.0000 0.83880  0.16120  0.90370  Biso   1.000  C
  C74      1.0000 0.30170  0.69830  0.34140  Biso   1.000  C
  C75      1.0000 0.26570  0.73430  0.28200  Biso   1.000  C
  C76      1.0000 0.33880  0.66120  0.40370  Biso   1.000  C
  C77      1.0000 0.19830  0.19830  0.84140  Biso   1.000  C
  C78      1.0000 0.23430  0.23430  0.78200  Biso   1.000  C
  C79      1.0000 0.16120  0.16120  0.90370  Biso   1.000  C
  C80      1.0000 0.69830  0.69830  0.34140  Biso   1.000  C
  C81      1.0000 0.73430  0.73430  0.28200  Biso   1.000  C
  C82      1.0000 0.66120  0.66120  0.40370  Biso   1.000  C
  C83      1.0000 0.80170  0.80170  0.84140  Biso   1.000  C
  C84      1.0000 0.76570  0.76570  0.78200  Biso   1.000  C
  C85      1.0000 0.83880  0.83880  0.90370  Biso   1.000  C
  C86      1.0000 0.30170  0.30170  0.34140  Biso   1.000  C
  C87      1.0000 0.26570  0.26570  0.28200  Biso   1.000  C
  C88      1.0000 0.33880  0.33880  0.40370  Biso   1.000  C
  C89      1.0000 0.80170  0.80170  0.15860  Biso   1.000  C
  C90      1.0000 0.76570  0.76570  0.21800  Biso   1.000  C
  C91      1.0000 0.83880  0.83880  0.09630  Biso   1.000  C
  C92      1.0000 0.30170  0.30170  0.65860  Biso   1.000  C
  C93      1.0000 0.26570  0.26570  0.71800  Biso   1.000  C
  C94      1.0000 0.33880  0.33880  0.59630  Biso   1.000  C
  C95      1.0000 0.19830  0.19830  0.15860  Biso   1.000  C
  C96      1.0000 0.23430  0.23430  0.21800  Biso   1.000  C
  C97      1.0000 0.16120  0.16120  0.09630  Biso   1.000  C
  C98      1.0000 0.69830  0.69830  0.65860  Biso   1.000  C
  C99      1.0000 0.73430  0.73430  0.71800  Biso   1.000  C
  C100     1.0000 0.66120  0.66120  0.59630  Biso   1.000  C
  C101     1.0000 0.80170  0.19830  0.15860  Biso   1.000  C
  C102     1.0000 0.76570  0.23430  0.21800  Biso   1.000  C
  C103     1.0000 0.83880  0.16120  0.09630  Biso   1.000  C
  C104     1.0000 0.30170  0.69830  0.65860  Biso   1.000  C
  C105     1.0000 0.26570  0.73430  0.71800  Biso   1.000  C
  C106     1.0000 0.33880  0.66120  0.59630  Biso   1.000  C
  C107     1.0000 0.19830  0.80170  0.15860  Biso   1.000  C
  C108     1.0000 0.23430  0.76570  0.21800  Biso   1.000  C
  C109     1.0000 0.16120  0.83880  0.09630  Biso   1.000  C
  C110     1.0000 0.69830  0.30170  0.65860  Biso   1.000  C
  C111     1.0000 0.73430  0.26570  0.71800  Biso   1.000  C
  C112     1.0000 0.66120  0.33880  0.59630  Biso   1.000  C
  C113     1.0000 0.31020  0.81020  0.75000  Biso   1.000  C
  H65      1.0000 0.35735  0.85735  0.75000  Biso   1.000  H
  C114     1.0000 0.68980  0.18980  0.75000  Biso   1.000  C
  H66      1.0000 0.64265  0.14265  0.75000  Biso   1.000  H
  C115     1.0000 0.18980  0.31020  0.75000  Biso   1.000  C
  H67      1.0000 0.14265  0.35735  0.75000  Biso   1.000  H
  C116     1.0000 0.81020  0.68980  0.75000  Biso   1.000  C
  H68      1.0000 0.85735  0.64265  0.75000  Biso   1.000  H
  C117     1.0000 0.31020  0.18980  0.25000  Biso   1.000  C
  H69      1.0000 0.35735  0.14265  0.25000  Biso   1.000  H
  C118     1.0000 0.68980  0.81020  0.25000  Biso   1.000  C
  H70      1.0000 0.64265  0.85735  0.25000  Biso   1.000  H
  C119     1.0000 0.81020  0.31020  0.25000  Biso   1.000  C
  H71      1.0000 0.85735  0.35735  0.25000  Biso   1.000  H
  C120     1.0000 0.18980  0.68980  0.25000  Biso   1.000  C
  H72      1.0000 0.14265  0.64265  0.25000  Biso   1.000  H
  C121     1.0000 0.68980  0.18980  0.25000  Biso   1.000  C
  H73      1.0000 0.64265  0.14265  0.25000  Biso   1.000  H
  C122     1.0000 0.31020  0.81020  0.25000  Biso   1.000  C
  H74      1.0000 0.35735  0.85735  0.25000  Biso   1.000  H
  C123     1.0000 0.81020  0.68980  0.25000  Biso   1.000  C
  H75      1.0000 0.85735  0.64265  0.25000  Biso   1.000  H
  C124     1.0000 0.18980  0.31020  0.25000  Biso   1.000  C
  H76      1.0000 0.14265  0.35735  0.25000  Biso   1.000  H
  C125     1.0000 0.31020  0.18980  0.75000  Biso   1.000  C
  H77      1.0000 0.35735  0.14265  0.75000  Biso   1.000  H
  C126     1.0000 0.68980  0.81020  0.75000  Biso   1.000  C
  H78      1.0000 0.64265  0.85735  0.75000  Biso   1.000  H
  C127     1.0000 0.18980  0.68980  0.75000  Biso   1.000  C
  H79      1.0000 0.14265  0.64265  0.75000  Biso   1.000  H
  C128     1.0000 0.81020  0.31020  0.75000  Biso   1.000  C
  H80      1.0000 0.85735  0.35735  0.75000  Biso   1.000  H
