data_image0
_cell_length_a       10.941
_cell_length_b       33.973
_cell_length_c       14.014
_cell_angle_alpha    90
_cell_angle_beta     98.89
_cell_angle_gamma    90

_symmetry_space_group_name_H-M    "P 1"
_symmetry_int_tables_number       1

loop_
  _symmetry_equiv_pos_as_xyz
  'x, y, z'

loop_
  _atom_site_label
  _atom_site_occupancy
  _atom_site_fract_x
  _atom_site_fract_y
  _atom_site_fract_z
  _atom_site_thermal_displace_type
  _atom_site_B_iso_or_equiv
  _atom_site_type_symbol
  Cl1      1.0000 0.67800  0.45000  0.28600  Biso   1.000  Cl
  O1       1.0000 0.35900  0.41480  0.69300  Biso   1.000  O
  O2       1.0000 0.28600  0.35580  0.66300  Biso   1.000  O
  O3       1.0000 0.58600  0.37100  0.60500  Biso   1.000  O
  O4       1.0000 0.55500  0.31040  0.64700  Biso   1.000  O
  O5       1.0000 0.78300  0.46900  0.22800  Biso   1.000  O
  O6       1.0000 0.74000  0.43400  0.37700  Biso   1.000  O
  O7       1.0000 0.62400  0.48600  0.31300  Biso   1.000  O
  O8       1.0000 0.62000  0.41900  0.22200  Biso   1.000  O
  C1       1.0000 0.27400  0.39280  0.66400  Biso   1.000  C
  C2       1.0000 0.14500  0.41040  0.63300  Biso   1.000  C
  C3       1.0000 0.04800  0.38900  0.59600  Biso   1.000  C
  H1       1.0000 0.05960  0.36190  0.58120  Biso   1.000  H
  C4       1.0000 0.92900  0.40400  0.57900  Biso   1.000  C
  H2       1.0000 0.85930  0.38810  0.55860  Biso   1.000  H
  C5       1.0000 0.91500  0.44400  0.59100  Biso   1.000  C
  C6       1.0000 0.00900  0.46600  0.62700  Biso   1.000  C
  H3       1.0000 0.99810  0.49350  0.63690  Biso   1.000  H
  C7       1.0000 0.12600  0.44830  0.65100  Biso   1.000  C
  H4       1.0000 0.19340  0.46380  0.68100  Biso   1.000  H
  N1       1.0000 0.70500  0.28450  0.22600  Biso   1.000  N
  C8       1.0000 0.69900  0.45100  0.61300  Biso   1.000  C
  H5       1.0000 0.71200  0.43030  0.65850  Biso   1.000  H
  C9       1.0000 0.58200  0.46600  0.59100  Biso   1.000  C
  H6       1.0000 0.51410  0.45440  0.61530  Biso   1.000  H
  C10      1.0000 0.56500  0.49800  0.53200  Biso   1.000  C
  C11      1.0000 0.66700  0.51600  0.50500  Biso   1.000  C
  H7       1.0000 0.65970  0.53990  0.47200  Biso   1.000  H
  C12      1.0000 0.78000  0.49800  0.52700  Biso   1.000  C
  H8       1.0000 0.85030  0.50930  0.50640  Biso   1.000  H
  N2       1.0000 0.78800  0.44500  0.52000  Biso   1.000  N
  C13      1.0000 0.70600  0.44100  0.58400  Biso   1.000  C
  C14      1.0000 0.59000  0.46200  0.56100  Biso   1.000  C
  C15      1.0000 0.55800  0.47900  0.48100  Biso   1.000  C
  C16      1.0000 0.63700  0.47400  0.41100  Biso   1.000  C
  C17      1.0000 0.75100  0.45800  0.43400  Biso   1.000  C
  C18      1.0000 0.58600  0.33530  0.59100  Biso   1.000  C
  C19      1.0000 0.62300  0.32160  0.49500  Biso   1.000  C
  C20      1.0000 0.65300  0.34830  0.43000  Biso   1.000  C
  H9       1.0000 0.65490  0.37550  0.44570  Biso   1.000  H
  C21      1.0000 0.67900  0.33630  0.34100  Biso   1.000  C
  H10      1.0000 0.69840  0.35520  0.29510  Biso   1.000  H
  C22      1.0000 0.67800  0.29810  0.31900  Biso   1.000  C
  C23      1.0000 0.64800  0.26930  0.38400  Biso   1.000  C
  H11      1.0000 0.64700  0.24210  0.36810  Biso   1.000  H
  C24      1.0000 0.62000  0.28170  0.47300  Biso   1.000  C
  H12      1.0000 0.59900  0.26300  0.51860  Biso   1.000  H
  C25      1.0000 0.77800  0.25300  0.22000  Biso   1.000  C
  H13      1.0000 0.81710  0.24030  0.27770  Biso   1.000  H
  C26      1.0000 0.79500  0.23880  0.13300  Biso   1.000  C
  H14      1.0000 0.84380  0.21600  0.13000  Biso   1.000  H
  C27      1.0000 0.74200  0.25690  0.04800  Biso   1.000  C
  C28      1.0000 0.68500  0.29300  0.05800  Biso   1.000  C
  H15      1.0000 0.65950  0.30920  0.00320  Biso   1.000  H
  C29      1.0000 0.66500  0.30500  0.14800  Biso   1.000  C
  H16      1.0000 0.62160  0.32860  0.15380  Biso   1.000  H
  N3       1.0000 0.79300  0.46410  0.57600  Biso   1.000  N
  Cl2      1.0000 0.17800  0.95000  0.28600  Biso   1.000  Cl
  O9       1.0000 0.85900  0.91480  0.69300  Biso   1.000  O
  O10      1.0000 0.78600  0.85580  0.66300  Biso   1.000  O
  O11      1.0000 0.08600  0.87100  0.60500  Biso   1.000  O
  O12      1.0000 0.05500  0.81040  0.64700  Biso   1.000  O
  O13      1.0000 0.28300  0.96900  0.22800  Biso   1.000  O
  O14      1.0000 0.24000  0.93400  0.37700  Biso   1.000  O
  O15      1.0000 0.12400  0.98600  0.31300  Biso   1.000  O
  O16      1.0000 0.12000  0.91900  0.22200  Biso   1.000  O
  C30      1.0000 0.77400  0.89280  0.66400  Biso   1.000  C
  C31      1.0000 0.64500  0.91040  0.63300  Biso   1.000  C
  C32      1.0000 0.54800  0.88900  0.59600  Biso   1.000  C
  H17      1.0000 0.55960  0.86190  0.58120  Biso   1.000  H
  C33      1.0000 0.42900  0.90400  0.57900  Biso   1.000  C
  H18      1.0000 0.35930  0.88810  0.55860  Biso   1.000  H
  C34      1.0000 0.41500  0.94400  0.59100  Biso   1.000  C
  C35      1.0000 0.50900  0.96600  0.62700  Biso   1.000  C
  H19      1.0000 0.49810  0.99350  0.63690  Biso   1.000  H
  C36      1.0000 0.62600  0.94830  0.65100  Biso   1.000  C
  H20      1.0000 0.69340  0.96380  0.68100  Biso   1.000  H
  N4       1.0000 0.20500  0.78450  0.22600  Biso   1.000  N
  C37      1.0000 0.19900  0.95100  0.61300  Biso   1.000  C
  H21      1.0000 0.21200  0.93030  0.65850  Biso   1.000  H
  C38      1.0000 0.08200  0.96600  0.59100  Biso   1.000  C
  H22      1.0000 0.01410  0.95440  0.61530  Biso   1.000  H
  C39      1.0000 0.06500  0.99800  0.53200  Biso   1.000  C
  C40      1.0000 0.16700  0.01600  0.50500  Biso   1.000  C
  H23      1.0000 0.15970  0.03990  0.47200  Biso   1.000  H
  C41      1.0000 0.28000  0.99800  0.52700  Biso   1.000  C
  H24      1.0000 0.35030  0.00930  0.50640  Biso   1.000  H
  N5       1.0000 0.28800  0.94500  0.52000  Biso   1.000  N
  C42      1.0000 0.20600  0.94100  0.58400  Biso   1.000  C
  C43      1.0000 0.09000  0.96200  0.56100  Biso   1.000  C
  C44      1.0000 0.05800  0.97900  0.48100  Biso   1.000  C
  C45      1.0000 0.13700  0.97400  0.41100  Biso   1.000  C
  C46      1.0000 0.25100  0.95800  0.43400  Biso   1.000  C
  C47      1.0000 0.08600  0.83530  0.59100  Biso   1.000  C
  C48      1.0000 0.12300  0.82160  0.49500  Biso   1.000  C
  C49      1.0000 0.15300  0.84830  0.43000  Biso   1.000  C
  H25      1.0000 0.15490  0.87550  0.44570  Biso   1.000  H
  C50      1.0000 0.17900  0.83630  0.34100  Biso   1.000  C
  H26      1.0000 0.19840  0.85520  0.29510  Biso   1.000  H
  C51      1.0000 0.17800  0.79810  0.31900  Biso   1.000  C
  C52      1.0000 0.14800  0.76930  0.38400  Biso   1.000  C
  H27      1.0000 0.14700  0.74210  0.36810  Biso   1.000  H
  C53      1.0000 0.12000  0.78170  0.47300  Biso   1.000  C
  H28      1.0000 0.09900  0.76300  0.51860  Biso   1.000  H
  C54      1.0000 0.27800  0.75300  0.22000  Biso   1.000  C
  H29      1.0000 0.31710  0.74030  0.27770  Biso   1.000  H
  C55      1.0000 0.29500  0.73880  0.13300  Biso   1.000  C
  H30      1.0000 0.34380  0.71600  0.13000  Biso   1.000  H
  C56      1.0000 0.24200  0.75690  0.04800  Biso   1.000  C
  C57      1.0000 0.18500  0.79300  0.05800  Biso   1.000  C
  H31      1.0000 0.15950  0.80920  0.00320  Biso   1.000  H
  C58      1.0000 0.16500  0.80500  0.14800  Biso   1.000  C
  H32      1.0000 0.12160  0.82860  0.15380  Biso   1.000  H
  N6       1.0000 0.29300  0.96410  0.57600  Biso   1.000  N
  Cl3      1.0000 0.32200  0.45000  0.21400  Biso   1.000  Cl
  O17      1.0000 0.64100  0.41480  0.80700  Biso   1.000  O
  O18      1.0000 0.71400  0.35580  0.83700  Biso   1.000  O
  O19      1.0000 0.41400  0.37100  0.89500  Biso   1.000  O
  O20      1.0000 0.44500  0.31040  0.85300  Biso   1.000  O
  O21      1.0000 0.21700  0.46900  0.27200  Biso   1.000  O
  O22      1.0000 0.26000  0.43400  0.12300  Biso   1.000  O
  O23      1.0000 0.37600  0.48600  0.18700  Biso   1.000  O
  O24      1.0000 0.38000  0.41900  0.27800  Biso   1.000  O
  C59      1.0000 0.72600  0.39280  0.83600  Biso   1.000  C
  C60      1.0000 0.85500  0.41040  0.86700  Biso   1.000  C
  C61      1.0000 0.95200  0.38900  0.90400  Biso   1.000  C
  H33      1.0000 0.94040  0.36190  0.91880  Biso   1.000  H
  C62      1.0000 0.07100  0.40400  0.92100  Biso   1.000  C
  H34      1.0000 0.14070  0.38810  0.94140  Biso   1.000  H
  C63      1.0000 0.08500  0.44400  0.90900  Biso   1.000  C
  C64      1.0000 0.99100  0.46600  0.87300  Biso   1.000  C
  H35      1.0000 0.00190  0.49350  0.86310  Biso   1.000  H
  C65      1.0000 0.87400  0.44830  0.84900  Biso   1.000  C
  H36      1.0000 0.80660  0.46380  0.81900  Biso   1.000  H
  N7       1.0000 0.29500  0.28450  0.27400  Biso   1.000  N
  C66      1.0000 0.30100  0.45100  0.88700  Biso   1.000  C
  H37      1.0000 0.28800  0.43030  0.84150  Biso   1.000  H
  C67      1.0000 0.41800  0.46600  0.90900  Biso   1.000  C
  H38      1.0000 0.48590  0.45440  0.88470  Biso   1.000  H
  C68      1.0000 0.43500  0.49800  0.96800  Biso   1.000  C
  C69      1.0000 0.33300  0.51600  0.99500  Biso   1.000  C
  H39      1.0000 0.34030  0.53990  0.02800  Biso   1.000  H
  C70      1.0000 0.22000  0.49800  0.97300  Biso   1.000  C
  H40      1.0000 0.14970  0.50930  0.99360  Biso   1.000  H
  N8       1.0000 0.21200  0.44500  0.98000  Biso   1.000  N
  C71      1.0000 0.29400  0.44100  0.91600  Biso   1.000  C
  C72      1.0000 0.41000  0.46200  0.93900  Biso   1.000  C
  C73      1.0000 0.44200  0.47900  0.01900  Biso   1.000  C
  C74      1.0000 0.36300  0.47400  0.08900  Biso   1.000  C
  C75      1.0000 0.24900  0.45800  0.06600  Biso   1.000  C
  C76      1.0000 0.41400  0.33530  0.90900  Biso   1.000  C
  C77      1.0000 0.37700  0.32160  0.00500  Biso   1.000  C
  C78      1.0000 0.34700  0.34830  0.07000  Biso   1.000  C
  H41      1.0000 0.34510  0.37550  0.05430  Biso   1.000  H
  C79      1.0000 0.32100  0.33630  0.15900  Biso   1.000  C
  H42      1.0000 0.30160  0.35520  0.20490  Biso   1.000  H
  C80      1.0000 0.32200  0.29810  0.18100  Biso   1.000  C
  C81      1.0000 0.35200  0.26930  0.11600  Biso   1.000  C
  H43      1.0000 0.35300  0.24210  0.13190  Biso   1.000  H
  C82      1.0000 0.38000  0.28170  0.02700  Biso   1.000  C
  H44      1.0000 0.40100  0.26300  0.98140  Biso   1.000  H
  C83      1.0000 0.22200  0.25300  0.28000  Biso   1.000  C
  H45      1.0000 0.18290  0.24030  0.22230  Biso   1.000  H
  C84      1.0000 0.20500  0.23880  0.36700  Biso   1.000  C
  H46      1.0000 0.15620  0.21600  0.37000  Biso   1.000  H
  C85      1.0000 0.25800  0.25690  0.45200  Biso   1.000  C
  C86      1.0000 0.31500  0.29300  0.44200  Biso   1.000  C
  H47      1.0000 0.34050  0.30920  0.49680  Biso   1.000  H
  C87      1.0000 0.33500  0.30500  0.35200  Biso   1.000  C
  H48      1.0000 0.37840  0.32860  0.34620  Biso   1.000  H
  N9       1.0000 0.20700  0.46410  0.92400  Biso   1.000  N
  Cl4      1.0000 0.82200  0.95000  0.21400  Biso   1.000  Cl
  O25      1.0000 0.14100  0.91480  0.80700  Biso   1.000  O
  O26      1.0000 0.21400  0.85580  0.83700  Biso   1.000  O
  O27      1.0000 0.91400  0.87100  0.89500  Biso   1.000  O
  O28      1.0000 0.94500  0.81040  0.85300  Biso   1.000  O
  O29      1.0000 0.71700  0.96900  0.27200  Biso   1.000  O
  O30      1.0000 0.76000  0.93400  0.12300  Biso   1.000  O
  O31      1.0000 0.87600  0.98600  0.18700  Biso   1.000  O
  O32      1.0000 0.88000  0.91900  0.27800  Biso   1.000  O
  C88      1.0000 0.22600  0.89280  0.83600  Biso   1.000  C
  C89      1.0000 0.35500  0.91040  0.86700  Biso   1.000  C
  C90      1.0000 0.45200  0.88900  0.90400  Biso   1.000  C
  H49      1.0000 0.44040  0.86190  0.91880  Biso   1.000  H
  C91      1.0000 0.57100  0.90400  0.92100  Biso   1.000  C
  H50      1.0000 0.64070  0.88810  0.94140  Biso   1.000  H
  C92      1.0000 0.58500  0.94400  0.90900  Biso   1.000  C
  C93      1.0000 0.49100  0.96600  0.87300  Biso   1.000  C
  H51      1.0000 0.50190  0.99350  0.86310  Biso   1.000  H
  C94      1.0000 0.37400  0.94830  0.84900  Biso   1.000  C
  H52      1.0000 0.30660  0.96380  0.81900  Biso   1.000  H
  N10      1.0000 0.79500  0.78450  0.27400  Biso   1.000  N
  C95      1.0000 0.80100  0.95100  0.88700  Biso   1.000  C
  H53      1.0000 0.78800  0.93030  0.84150  Biso   1.000  H
  C96      1.0000 0.91800  0.96600  0.90900  Biso   1.000  C
  H54      1.0000 0.98590  0.95440  0.88470  Biso   1.000  H
  C97      1.0000 0.93500  0.99800  0.96800  Biso   1.000  C
  C98      1.0000 0.83300  0.01600  0.99500  Biso   1.000  C
  H55      1.0000 0.84030  0.03990  0.02800  Biso   1.000  H
  C99      1.0000 0.72000  0.99800  0.97300  Biso   1.000  C
  H56      1.0000 0.64970  0.00930  0.99360  Biso   1.000  H
  N11      1.0000 0.71200  0.94500  0.98000  Biso   1.000  N
  C100     1.0000 0.79400  0.94100  0.91600  Biso   1.000  C
  C101     1.0000 0.91000  0.96200  0.93900  Biso   1.000  C
  C102     1.0000 0.94200  0.97900  0.01900  Biso   1.000  C
  C103     1.0000 0.86300  0.97400  0.08900  Biso   1.000  C
  C104     1.0000 0.74900  0.95800  0.06600  Biso   1.000  C
  C105     1.0000 0.91400  0.83530  0.90900  Biso   1.000  C
  C106     1.0000 0.87700  0.82160  0.00500  Biso   1.000  C
  C107     1.0000 0.84700  0.84830  0.07000  Biso   1.000  C
  H57      1.0000 0.84510  0.87550  0.05430  Biso   1.000  H
  C108     1.0000 0.82100  0.83630  0.15900  Biso   1.000  C
  H58      1.0000 0.80160  0.85520  0.20490  Biso   1.000  H
  C109     1.0000 0.82200  0.79810  0.18100  Biso   1.000  C
  C110     1.0000 0.85200  0.76930  0.11600  Biso   1.000  C
  H59      1.0000 0.85300  0.74210  0.13190  Biso   1.000  H
  C111     1.0000 0.88000  0.78170  0.02700  Biso   1.000  C
  H60      1.0000 0.90100  0.76300  0.98140  Biso   1.000  H
  C112     1.0000 0.72200  0.75300  0.28000  Biso   1.000  C
  H61      1.0000 0.68290  0.74030  0.22230  Biso   1.000  H
  C113     1.0000 0.70500  0.73880  0.36700  Biso   1.000  C
  H62      1.0000 0.65620  0.71600  0.37000  Biso   1.000  H
  C114     1.0000 0.75800  0.75690  0.45200  Biso   1.000  C
  C115     1.0000 0.81500  0.79300  0.44200  Biso   1.000  C
  H63      1.0000 0.84050  0.80920  0.49680  Biso   1.000  H
  C116     1.0000 0.83500  0.80500  0.35200  Biso   1.000  C
  H64      1.0000 0.87840  0.82860  0.34620  Biso   1.000  H
  N12      1.0000 0.70700  0.96410  0.92400  Biso   1.000  N
  Cl5      1.0000 0.32200  0.55000  0.71400  Biso   1.000  Cl
  O33      1.0000 0.64100  0.58520  0.30700  Biso   1.000  O
  O34      1.0000 0.71400  0.64420  0.33700  Biso   1.000  O
  O35      1.0000 0.41400  0.62900  0.39500  Biso   1.000  O
  O36      1.0000 0.44500  0.68960  0.35300  Biso   1.000  O
  O37      1.0000 0.21700  0.53100  0.77200  Biso   1.000  O
  O38      1.0000 0.26000  0.56600  0.62300  Biso   1.000  O
  O39      1.0000 0.37600  0.51400  0.68700  Biso   1.000  O
  O40      1.0000 0.38000  0.58100  0.77800  Biso   1.000  O
  C117     1.0000 0.72600  0.60720  0.33600  Biso   1.000  C
  C118     1.0000 0.85500  0.58960  0.36700  Biso   1.000  C
  C119     1.0000 0.95200  0.61100  0.40400  Biso   1.000  C
  H65      1.0000 0.94040  0.63810  0.41880  Biso   1.000  H
  C120     1.0000 0.07100  0.59600  0.42100  Biso   1.000  C
  H66      1.0000 0.14070  0.61190  0.44140  Biso   1.000  H
  C121     1.0000 0.08500  0.55600  0.40900  Biso   1.000  C
  C122     1.0000 0.99100  0.53400  0.37300  Biso   1.000  C
  H67      1.0000 0.00190  0.50650  0.36310  Biso   1.000  H
  C123     1.0000 0.87400  0.55170  0.34900  Biso   1.000  C
  H68      1.0000 0.80660  0.53620  0.31900  Biso   1.000  H
  N13      1.0000 0.29500  0.71550  0.77400  Biso   1.000  N
  C124     1.0000 0.30100  0.54900  0.38700  Biso   1.000  C
  H69      1.0000 0.28800  0.56970  0.34150  Biso   1.000  H
  C125     1.0000 0.41800  0.53400  0.40900  Biso   1.000  C
  H70      1.0000 0.48590  0.54560  0.38470  Biso   1.000  H
  C126     1.0000 0.43500  0.50200  0.46800  Biso   1.000  C
  C127     1.0000 0.33300  0.48400  0.49500  Biso   1.000  C
  H71      1.0000 0.34030  0.46010  0.52800  Biso   1.000  H
  C128     1.0000 0.22000  0.50200  0.47300  Biso   1.000  C
  H72      1.0000 0.14970  0.49070  0.49360  Biso   1.000  H
  N14      1.0000 0.21200  0.55500  0.48000  Biso   1.000  N
  C129     1.0000 0.29400  0.55900  0.41600  Biso   1.000  C
  C130     1.0000 0.41000  0.53800  0.43900  Biso   1.000  C
  C131     1.0000 0.44200  0.52100  0.51900  Biso   1.000  C
  C132     1.0000 0.36300  0.52600  0.58900  Biso   1.000  C
  C133     1.0000 0.24900  0.54200  0.56600  Biso   1.000  C
  C134     1.0000 0.41400  0.66470  0.40900  Biso   1.000  C
  C135     1.0000 0.37700  0.67840  0.50500  Biso   1.000  C
  C136     1.0000 0.34700  0.65170  0.57000  Biso   1.000  C
  H73      1.0000 0.34510  0.62450  0.55430  Biso   1.000  H
  C137     1.0000 0.32100  0.66370  0.65900  Biso   1.000  C
  H74      1.0000 0.30160  0.64480  0.70490  Biso   1.000  H
  C138     1.0000 0.32200  0.70190  0.68100  Biso   1.000  C
  C139     1.0000 0.35200  0.73070  0.61600  Biso   1.000  C
  H75      1.0000 0.35300  0.75790  0.63190  Biso   1.000  H
  C140     1.0000 0.38000  0.71830  0.52700  Biso   1.000  C
  H76      1.0000 0.40100  0.73700  0.48140  Biso   1.000  H
  C141     1.0000 0.22200  0.74700  0.78000  Biso   1.000  C
  H77      1.0000 0.18290  0.75970  0.72230  Biso   1.000  H
  C142     1.0000 0.20500  0.76120  0.86700  Biso   1.000  C
  H78      1.0000 0.15620  0.78400  0.87000  Biso   1.000  H
  C143     1.0000 0.25800  0.74310  0.95200  Biso   1.000  C
  C144     1.0000 0.31500  0.70700  0.94200  Biso   1.000  C
  H79      1.0000 0.34050  0.69080  0.99680  Biso   1.000  H
  C145     1.0000 0.33500  0.69500  0.85200  Biso   1.000  C
  H80      1.0000 0.37840  0.67140  0.84620  Biso   1.000  H
  N15      1.0000 0.20700  0.53590  0.42400  Biso   1.000  N
  Cl6      1.0000 0.82200  0.05000  0.71400  Biso   1.000  Cl
  O41      1.0000 0.14100  0.08520  0.30700  Biso   1.000  O
  O42      1.0000 0.21400  0.14420  0.33700  Biso   1.000  O
  O43      1.0000 0.91400  0.12900  0.39500  Biso   1.000  O
  O44      1.0000 0.94500  0.18960  0.35300  Biso   1.000  O
  O45      1.0000 0.71700  0.03100  0.77200  Biso   1.000  O
  O46      1.0000 0.76000  0.06600  0.62300  Biso   1.000  O
  O47      1.0000 0.87600  0.01400  0.68700  Biso   1.000  O
  O48      1.0000 0.88000  0.08100  0.77800  Biso   1.000  O
  C146     1.0000 0.22600  0.10720  0.33600  Biso   1.000  C
  C147     1.0000 0.35500  0.08960  0.36700  Biso   1.000  C
  C148     1.0000 0.45200  0.11100  0.40400  Biso   1.000  C
  H81      1.0000 0.44040  0.13810  0.41880  Biso   1.000  H
  C149     1.0000 0.57100  0.09600  0.42100  Biso   1.000  C
  H82      1.0000 0.64070  0.11190  0.44140  Biso   1.000  H
  C150     1.0000 0.58500  0.05600  0.40900  Biso   1.000  C
  C151     1.0000 0.49100  0.03400  0.37300  Biso   1.000  C
  H83      1.0000 0.50190  0.00650  0.36310  Biso   1.000  H
  C152     1.0000 0.37400  0.05170  0.34900  Biso   1.000  C
  H84      1.0000 0.30660  0.03620  0.31900  Biso   1.000  H
  N16      1.0000 0.79500  0.21550  0.77400  Biso   1.000  N
  C153     1.0000 0.80100  0.04900  0.38700  Biso   1.000  C
  H85      1.0000 0.78800  0.06970  0.34150  Biso   1.000  H
  C154     1.0000 0.91800  0.03400  0.40900  Biso   1.000  C
  H86      1.0000 0.98590  0.04560  0.38470  Biso   1.000  H
  C155     1.0000 0.93500  0.00200  0.46800  Biso   1.000  C
  C156     1.0000 0.83300  0.98400  0.49500  Biso   1.000  C
  H87      1.0000 0.84030  0.96010  0.52800  Biso   1.000  H
  C157     1.0000 0.72000  0.00200  0.47300  Biso   1.000  C
  H88      1.0000 0.64970  0.99070  0.49360  Biso   1.000  H
  N17      1.0000 0.71200  0.05500  0.48000  Biso   1.000  N
  C158     1.0000 0.79400  0.05900  0.41600  Biso   1.000  C
  C159     1.0000 0.91000  0.03800  0.43900  Biso   1.000  C
  C160     1.0000 0.94200  0.02100  0.51900  Biso   1.000  C
  C161     1.0000 0.86300  0.02600  0.58900  Biso   1.000  C
  C162     1.0000 0.74900  0.04200  0.56600  Biso   1.000  C
  C163     1.0000 0.91400  0.16470  0.40900  Biso   1.000  C
  C164     1.0000 0.87700  0.17840  0.50500  Biso   1.000  C
  C165     1.0000 0.84700  0.15170  0.57000  Biso   1.000  C
  H89      1.0000 0.84510  0.12450  0.55430  Biso   1.000  H
  C166     1.0000 0.82100  0.16370  0.65900  Biso   1.000  C
  H90      1.0000 0.80160  0.14480  0.70490  Biso   1.000  H
  C167     1.0000 0.82200  0.20190  0.68100  Biso   1.000  C
  C168     1.0000 0.85200  0.23070  0.61600  Biso   1.000  C
  H91      1.0000 0.85300  0.25790  0.63190  Biso   1.000  H
  C169     1.0000 0.88000  0.21830  0.52700  Biso   1.000  C
  H92      1.0000 0.90100  0.23700  0.48140  Biso   1.000  H
  C170     1.0000 0.72200  0.24700  0.78000  Biso   1.000  C
  H93      1.0000 0.68290  0.25970  0.72230  Biso   1.000  H
  C171     1.0000 0.70500  0.26120  0.86700  Biso   1.000  C
  H94      1.0000 0.65620  0.28400  0.87000  Biso   1.000  H
  C172     1.0000 0.75800  0.24310  0.95200  Biso   1.000  C
  C173     1.0000 0.81500  0.20700  0.94200  Biso   1.000  C
  H95      1.0000 0.84050  0.19080  0.99680  Biso   1.000  H
  C174     1.0000 0.83500  0.19500  0.85200  Biso   1.000  C
  H96      1.0000 0.87840  0.17140  0.84620  Biso   1.000  H
  N18      1.0000 0.70700  0.03590  0.42400  Biso   1.000  N
  Cl7      1.0000 0.67800  0.55000  0.78600  Biso   1.000  Cl
  O49      1.0000 0.35900  0.58520  0.19300  Biso   1.000  O
  O50      1.0000 0.28600  0.64420  0.16300  Biso   1.000  O
  O51      1.0000 0.58600  0.62900  0.10500  Biso   1.000  O
  O52      1.0000 0.55500  0.68960  0.14700  Biso   1.000  O
  O53      1.0000 0.78300  0.53100  0.72800  Biso   1.000  O
  O54      1.0000 0.74000  0.56600  0.87700  Biso   1.000  O
  O55      1.0000 0.62400  0.51400  0.81300  Biso   1.000  O
  O56      1.0000 0.62000  0.58100  0.72200  Biso   1.000  O
  C175     1.0000 0.27400  0.60720  0.16400  Biso   1.000  C
  C176     1.0000 0.14500  0.58960  0.13300  Biso   1.000  C
  C177     1.0000 0.04800  0.61100  0.09600  Biso   1.000  C
  H97      1.0000 0.05960  0.63810  0.08120  Biso   1.000  H
  C178     1.0000 0.92900  0.59600  0.07900  Biso   1.000  C
  H98      1.0000 0.85930  0.61190  0.05860  Biso   1.000  H
  C179     1.0000 0.91500  0.55600  0.09100  Biso   1.000  C
  C180     1.0000 0.00900  0.53400  0.12700  Biso   1.000  C
  H99      1.0000 0.99810  0.50650  0.13690  Biso   1.000  H
  C181     1.0000 0.12600  0.55170  0.15100  Biso   1.000  C
  H100     1.0000 0.19340  0.53620  0.18100  Biso   1.000  H
  N19      1.0000 0.70500  0.71550  0.72600  Biso   1.000  N
  C182     1.0000 0.69900  0.54900  0.11300  Biso   1.000  C
  H101     1.0000 0.71200  0.56970  0.15850  Biso   1.000  H
  C183     1.0000 0.58200  0.53400  0.09100  Biso   1.000  C
  H102     1.0000 0.51410  0.54560  0.11530  Biso   1.000  H
  C184     1.0000 0.56500  0.50200  0.03200  Biso   1.000  C
  C185     1.0000 0.66700  0.48400  0.00500  Biso   1.000  C
  H103     1.0000 0.65970  0.46010  0.97200  Biso   1.000  H
  C186     1.0000 0.78000  0.50200  0.02700  Biso   1.000  C
  H104     1.0000 0.85030  0.49070  0.00640  Biso   1.000  H
  N20      1.0000 0.78800  0.55500  0.02000  Biso   1.000  N
  C187     1.0000 0.70600  0.55900  0.08400  Biso   1.000  C
  C188     1.0000 0.59000  0.53800  0.06100  Biso   1.000  C
  C189     1.0000 0.55800  0.52100  0.98100  Biso   1.000  C
  C190     1.0000 0.63700  0.52600  0.91100  Biso   1.000  C
  C191     1.0000 0.75100  0.54200  0.93400  Biso   1.000  C
  C192     1.0000 0.58600  0.66470  0.09100  Biso   1.000  C
  C193     1.0000 0.62300  0.67840  0.99500  Biso   1.000  C
  C194     1.0000 0.65300  0.65170  0.93000  Biso   1.000  C
  H105     1.0000 0.65490  0.62450  0.94570  Biso   1.000  H
  C195     1.0000 0.67900  0.66370  0.84100  Biso   1.000  C
  H106     1.0000 0.69840  0.64480  0.79510  Biso   1.000  H
  C196     1.0000 0.67800  0.70190  0.81900  Biso   1.000  C
  C197     1.0000 0.64800  0.73070  0.88400  Biso   1.000  C
  H107     1.0000 0.64700  0.75790  0.86810  Biso   1.000  H
  C198     1.0000 0.62000  0.71830  0.97300  Biso   1.000  C
  H108     1.0000 0.59900  0.73700  0.01860  Biso   1.000  H
  C199     1.0000 0.77800  0.74700  0.72000  Biso   1.000  C
  H109     1.0000 0.81710  0.75970  0.77770  Biso   1.000  H
  C200     1.0000 0.79500  0.76120  0.63300  Biso   1.000  C
  H110     1.0000 0.84380  0.78400  0.63000  Biso   1.000  H
  C201     1.0000 0.74200  0.74310  0.54800  Biso   1.000  C
  C202     1.0000 0.68500  0.70700  0.55800  Biso   1.000  C
  H111     1.0000 0.65950  0.69080  0.50320  Biso   1.000  H
  C203     1.0000 0.66500  0.69500  0.64800  Biso   1.000  C
  H112     1.0000 0.62160  0.67140  0.65380  Biso   1.000  H
  N21      1.0000 0.79300  0.53590  0.07600  Biso   1.000  N
  Cl8      1.0000 0.17800  0.05000  0.78600  Biso   1.000  Cl
  O57      1.0000 0.85900  0.08520  0.19300  Biso   1.000  O
  O58      1.0000 0.78600  0.14420  0.16300  Biso   1.000  O
  O59      1.0000 0.08600  0.12900  0.10500  Biso   1.000  O
  O60      1.0000 0.05500  0.18960  0.14700  Biso   1.000  O
  O61      1.0000 0.28300  0.03100  0.72800  Biso   1.000  O
  O62      1.0000 0.24000  0.06600  0.87700  Biso   1.000  O
  O63      1.0000 0.12400  0.01400  0.81300  Biso   1.000  O
  O64      1.0000 0.12000  0.08100  0.72200  Biso   1.000  O
  C204     1.0000 0.77400  0.10720  0.16400  Biso   1.000  C
  C205     1.0000 0.64500  0.08960  0.13300  Biso   1.000  C
  C206     1.0000 0.54800  0.11100  0.09600  Biso   1.000  C
  H113     1.0000 0.55960  0.13810  0.08120  Biso   1.000  H
  C207     1.0000 0.42900  0.09600  0.07900  Biso   1.000  C
  H114     1.0000 0.35930  0.11190  0.05860  Biso   1.000  H
  C208     1.0000 0.41500  0.05600  0.09100  Biso   1.000  C
  C209     1.0000 0.50900  0.03400  0.12700  Biso   1.000  C
  H115     1.0000 0.49810  0.00650  0.13690  Biso   1.000  H
  C210     1.0000 0.62600  0.05170  0.15100  Biso   1.000  C
  H116     1.0000 0.69340  0.03620  0.18100  Biso   1.000  H
  N22      1.0000 0.20500  0.21550  0.72600  Biso   1.000  N
  C211     1.0000 0.19900  0.04900  0.11300  Biso   1.000  C
  H117     1.0000 0.21200  0.06970  0.15850  Biso   1.000  H
  C212     1.0000 0.08200  0.03400  0.09100  Biso   1.000  C
  H118     1.0000 0.01410  0.04560  0.11530  Biso   1.000  H
  C213     1.0000 0.06500  0.00200  0.03200  Biso   1.000  C
  C214     1.0000 0.16700  0.98400  0.00500  Biso   1.000  C
  H119     1.0000 0.15970  0.96010  0.97200  Biso   1.000  H
  C215     1.0000 0.28000  0.00200  0.02700  Biso   1.000  C
  H120     1.0000 0.35030  0.99070  0.00640  Biso   1.000  H
  N23      1.0000 0.28800  0.05500  0.02000  Biso   1.000  N
  C216     1.0000 0.20600  0.05900  0.08400  Biso   1.000  C
  C217     1.0000 0.09000  0.03800  0.06100  Biso   1.000  C
  C218     1.0000 0.05800  0.02100  0.98100  Biso   1.000  C
  C219     1.0000 0.13700  0.02600  0.91100  Biso   1.000  C
  C220     1.0000 0.25100  0.04200  0.93400  Biso   1.000  C
  C221     1.0000 0.08600  0.16470  0.09100  Biso   1.000  C
  C222     1.0000 0.12300  0.17840  0.99500  Biso   1.000  C
  C223     1.0000 0.15300  0.15170  0.93000  Biso   1.000  C
  H121     1.0000 0.15490  0.12450  0.94570  Biso   1.000  H
  C224     1.0000 0.17900  0.16370  0.84100  Biso   1.000  C
  H122     1.0000 0.19840  0.14480  0.79510  Biso   1.000  H
  C225     1.0000 0.17800  0.20190  0.81900  Biso   1.000  C
  C226     1.0000 0.14800  0.23070  0.88400  Biso   1.000  C
  H123     1.0000 0.14700  0.25790  0.86810  Biso   1.000  H
  C227     1.0000 0.12000  0.21830  0.97300  Biso   1.000  C
  H124     1.0000 0.09900  0.23700  0.01860  Biso   1.000  H
  C228     1.0000 0.27800  0.24700  0.72000  Biso   1.000  C
  H125     1.0000 0.31710  0.25970  0.77770  Biso   1.000  H
  C229     1.0000 0.29500  0.26120  0.63300  Biso   1.000  C
  H126     1.0000 0.34380  0.28400  0.63000  Biso   1.000  H
  C230     1.0000 0.24200  0.24310  0.54800  Biso   1.000  C
  C231     1.0000 0.18500  0.20700  0.55800  Biso   1.000  C
  H127     1.0000 0.15950  0.19080  0.50320  Biso   1.000  H
  C232     1.0000 0.16500  0.19500  0.64800  Biso   1.000  C
  H128     1.0000 0.12160  0.17140  0.65380  Biso   1.000  H
  N24      1.0000 0.29300  0.03590  0.07600  Biso   1.000  N
  Cd1      1.0000 0.50000  0.36359  0.75000  Biso   1.000  Cd
  Cd2      1.0000 0.00000  0.86359  0.75000  Biso   1.000  Cd
  Cd3      1.0000 0.50000  0.63641  0.25000  Biso   1.000  Cd
  Cd4      1.0000 0.00000  0.13641  0.25000  Biso   1.000  Cd
