data_image0
_cell_length_a       15.775
_cell_length_b       16.035
_cell_length_c       33.845
_cell_angle_alpha    90
_cell_angle_beta     90
_cell_angle_gamma    90

_symmetry_space_group_name_H-M    "P 1"
_symmetry_int_tables_number       1

loop_
  _symmetry_equiv_pos_as_xyz
  'x, y, z'

loop_
  _atom_site_label
  _atom_site_occupancy
  _atom_site_fract_x
  _atom_site_fract_y
  _atom_site_fract_z
  _atom_site_thermal_displace_type
  _atom_site_B_iso_or_equiv
  _atom_site_type_symbol
  O1       1.0000 0.15790  0.85820  0.21380  Biso   1.000  O
  O2       1.0000 0.13830  0.83540  0.27250  Biso   1.000  O
  O3       1.0000 0.32860  0.86270  0.28960  Biso   1.000  O
  O4       1.0000 0.35360  0.83400  0.22330  Biso   1.000  O
  C1       1.0000 0.12650  0.87500  0.24440  Biso   1.000  C
  C2       1.0000 0.06760  0.94630  0.24690  Biso   1.000  C
  C3       1.0000 0.03410  0.97270  0.21100  Biso   1.000  C
  H1       1.0000 0.05720  0.95400  0.18740  Biso   1.000  H
  C4       1.0000 0.03460  0.97290  0.28340  Biso   1.000  C
  H2       1.0000 0.05760  0.95310  0.30690  Biso   1.000  H
  C5       1.0000 0.09070  0.99200  0.32050  Biso   1.000  C
  C6       1.0000 0.21600  0.98990  0.36050  Biso   1.000  C
  H3       1.0000 0.27440  0.98540  0.36150  Biso   1.000  H
  C7       1.0000 0.17410  0.99240  0.39720  Biso   1.000  C
  H4       1.0000 0.20190  0.99660  0.42130  Biso   1.000  H
  C8       1.0000 0.04970  0.99700  0.35760  Biso   1.000  C
  H5       1.0000 0.99160  0.00740  0.35770  Biso   1.000  H
  C9       1.0000 0.36580  0.87230  0.25690  Biso   1.000  C
  C10      1.0000 0.43450  0.93970  0.25670  Biso   1.000  C
  C11      1.0000 0.46800  0.97030  0.29160  Biso   1.000  C
  H6       1.0000 0.44710  0.95060  0.31550  Biso   1.000  H
  C12      1.0000 0.46760  0.97060  0.22150  Biso   1.000  C
  H7       1.0000 0.44590  0.95160  0.19760  Biso   1.000  H
  C13      1.0000 0.41480  0.98330  0.18420  Biso   1.000  C
  C14      1.0000 0.32660  0.97920  0.17830  Biso   1.000  C
  H8       1.0000 0.29330  0.97720  0.20100  Biso   1.000  H
  C15      1.0000 0.28350  0.97790  0.14250  Biso   1.000  C
  H9       1.0000 0.22470  0.97610  0.14120  Biso   1.000  H
  C16      1.0000 0.33430  0.97930  0.10840  Biso   1.000  C
  H10      1.0000 0.30880  0.97740  0.08370  Biso   1.000  H
  C17      1.0000 0.45610  0.98170  0.14760  Biso   1.000  C
  H11      1.0000 0.51500  0.97970  0.14810  Biso   1.000  H
  N1       1.0000 0.08940  0.98800  0.39330  Biso   1.000  N
  N2       1.0000 0.41900  0.98350  0.11110  Biso   1.000  N
  C18      1.0000 0.18040  0.99330  0.32260  Biso   1.000  C
  H12      1.0000 0.21400  0.99610  0.30010  Biso   1.000  H
  O5       1.0000 0.15790  0.35820  0.71380  Biso   1.000  O
  O6       1.0000 0.13830  0.33540  0.77250  Biso   1.000  O
  O7       1.0000 0.32860  0.36270  0.78960  Biso   1.000  O
  O8       1.0000 0.35360  0.33400  0.72330  Biso   1.000  O
  C19      1.0000 0.12650  0.37500  0.74440  Biso   1.000  C
  C20      1.0000 0.06760  0.44630  0.74690  Biso   1.000  C
  C21      1.0000 0.03410  0.47270  0.71100  Biso   1.000  C
  H13      1.0000 0.05720  0.45400  0.68740  Biso   1.000  H
  C22      1.0000 0.03460  0.47290  0.78340  Biso   1.000  C
  H14      1.0000 0.05760  0.45310  0.80690  Biso   1.000  H
  C23      1.0000 0.09070  0.49200  0.82050  Biso   1.000  C
  C24      1.0000 0.21600  0.48990  0.86050  Biso   1.000  C
  H15      1.0000 0.27440  0.48540  0.86150  Biso   1.000  H
  C25      1.0000 0.17410  0.49240  0.89720  Biso   1.000  C
  H16      1.0000 0.20190  0.49660  0.92130  Biso   1.000  H
  C26      1.0000 0.04970  0.49700  0.85760  Biso   1.000  C
  H17      1.0000 0.99160  0.50740  0.85770  Biso   1.000  H
  C27      1.0000 0.36580  0.37230  0.75690  Biso   1.000  C
  C28      1.0000 0.43450  0.43970  0.75670  Biso   1.000  C
  C29      1.0000 0.46800  0.47030  0.79160  Biso   1.000  C
  H18      1.0000 0.44710  0.45060  0.81550  Biso   1.000  H
  C30      1.0000 0.46760  0.47060  0.72150  Biso   1.000  C
  H19      1.0000 0.44590  0.45160  0.69760  Biso   1.000  H
  C31      1.0000 0.41480  0.48330  0.68420  Biso   1.000  C
  C32      1.0000 0.32660  0.47920  0.67830  Biso   1.000  C
  H20      1.0000 0.29330  0.47720  0.70100  Biso   1.000  H
  C33      1.0000 0.28350  0.47790  0.64250  Biso   1.000  C
  H21      1.0000 0.22470  0.47610  0.64120  Biso   1.000  H
  C34      1.0000 0.33430  0.47930  0.60840  Biso   1.000  C
  H22      1.0000 0.30880  0.47740  0.58370  Biso   1.000  H
  C35      1.0000 0.45610  0.48170  0.64760  Biso   1.000  C
  H23      1.0000 0.51500  0.47970  0.64810  Biso   1.000  H
  N3       1.0000 0.08940  0.48800  0.89330  Biso   1.000  N
  N4       1.0000 0.41900  0.48350  0.61110  Biso   1.000  N
  C36      1.0000 0.18040  0.49330  0.82260  Biso   1.000  C
  H24      1.0000 0.21400  0.49610  0.80010  Biso   1.000  H
  O9       1.0000 0.65790  0.85820  0.71380  Biso   1.000  O
  O10      1.0000 0.63830  0.83540  0.77250  Biso   1.000  O
  O11      1.0000 0.82860  0.86270  0.78960  Biso   1.000  O
  O12      1.0000 0.85360  0.83400  0.72330  Biso   1.000  O
  C37      1.0000 0.62650  0.87500  0.74440  Biso   1.000  C
  C38      1.0000 0.56760  0.94630  0.74690  Biso   1.000  C
  C39      1.0000 0.53410  0.97270  0.71100  Biso   1.000  C
  H25      1.0000 0.55720  0.95400  0.68740  Biso   1.000  H
  C40      1.0000 0.53460  0.97290  0.78340  Biso   1.000  C
  H26      1.0000 0.55760  0.95310  0.80690  Biso   1.000  H
  C41      1.0000 0.59070  0.99200  0.82050  Biso   1.000  C
  C42      1.0000 0.71600  0.98990  0.86050  Biso   1.000  C
  H27      1.0000 0.77440  0.98540  0.86150  Biso   1.000  H
  C43      1.0000 0.67410  0.99240  0.89720  Biso   1.000  C
  H28      1.0000 0.70190  0.99660  0.92130  Biso   1.000  H
  C44      1.0000 0.54970  0.99700  0.85760  Biso   1.000  C
  H29      1.0000 0.49160  0.00740  0.85770  Biso   1.000  H
  C45      1.0000 0.86580  0.87230  0.75690  Biso   1.000  C
  C46      1.0000 0.93450  0.93970  0.75670  Biso   1.000  C
  C47      1.0000 0.96800  0.97030  0.79160  Biso   1.000  C
  H30      1.0000 0.94710  0.95060  0.81550  Biso   1.000  H
  C48      1.0000 0.96760  0.97060  0.72150  Biso   1.000  C
  H31      1.0000 0.94590  0.95160  0.69760  Biso   1.000  H
  C49      1.0000 0.91480  0.98330  0.68420  Biso   1.000  C
  C50      1.0000 0.82660  0.97920  0.67830  Biso   1.000  C
  H32      1.0000 0.79330  0.97720  0.70100  Biso   1.000  H
  C51      1.0000 0.78350  0.97790  0.64250  Biso   1.000  C
  H33      1.0000 0.72470  0.97610  0.64120  Biso   1.000  H
  C52      1.0000 0.83430  0.97930  0.60840  Biso   1.000  C
  H34      1.0000 0.80880  0.97740  0.58370  Biso   1.000  H
  C53      1.0000 0.95610  0.98170  0.64760  Biso   1.000  C
  H35      1.0000 0.01500  0.97970  0.64810  Biso   1.000  H
  N5       1.0000 0.58940  0.98800  0.89330  Biso   1.000  N
  N6       1.0000 0.91900  0.98350  0.61110  Biso   1.000  N
  C54      1.0000 0.68040  0.99330  0.82260  Biso   1.000  C
  H36      1.0000 0.71400  0.99610  0.80010  Biso   1.000  H
  O13      1.0000 0.65790  0.35820  0.21380  Biso   1.000  O
  O14      1.0000 0.63830  0.33540  0.27250  Biso   1.000  O
  O15      1.0000 0.82860  0.36270  0.28960  Biso   1.000  O
  O16      1.0000 0.85360  0.33400  0.22330  Biso   1.000  O
  C55      1.0000 0.62650  0.37500  0.24440  Biso   1.000  C
  C56      1.0000 0.56760  0.44630  0.24690  Biso   1.000  C
  C57      1.0000 0.53410  0.47270  0.21100  Biso   1.000  C
  H37      1.0000 0.55720  0.45400  0.18740  Biso   1.000  H
  C58      1.0000 0.53460  0.47290  0.28340  Biso   1.000  C
  H38      1.0000 0.55760  0.45310  0.30690  Biso   1.000  H
  C59      1.0000 0.59070  0.49200  0.32050  Biso   1.000  C
  C60      1.0000 0.71600  0.48990  0.36050  Biso   1.000  C
  H39      1.0000 0.77440  0.48540  0.36150  Biso   1.000  H
  C61      1.0000 0.67410  0.49240  0.39720  Biso   1.000  C
  H40      1.0000 0.70190  0.49660  0.42130  Biso   1.000  H
  C62      1.0000 0.54970  0.49700  0.35760  Biso   1.000  C
  H41      1.0000 0.49160  0.50740  0.35770  Biso   1.000  H
  C63      1.0000 0.86580  0.37230  0.25690  Biso   1.000  C
  C64      1.0000 0.93450  0.43970  0.25670  Biso   1.000  C
  C65      1.0000 0.96800  0.47030  0.29160  Biso   1.000  C
  H42      1.0000 0.94710  0.45060  0.31550  Biso   1.000  H
  C66      1.0000 0.96760  0.47060  0.22150  Biso   1.000  C
  H43      1.0000 0.94590  0.45160  0.19760  Biso   1.000  H
  C67      1.0000 0.91480  0.48330  0.18420  Biso   1.000  C
  C68      1.0000 0.82660  0.47920  0.17830  Biso   1.000  C
  H44      1.0000 0.79330  0.47720  0.20100  Biso   1.000  H
  C69      1.0000 0.78350  0.47790  0.14250  Biso   1.000  C
  H45      1.0000 0.72470  0.47610  0.14120  Biso   1.000  H
  C70      1.0000 0.83430  0.47930  0.10840  Biso   1.000  C
  H46      1.0000 0.80880  0.47740  0.08370  Biso   1.000  H
  C71      1.0000 0.95610  0.48170  0.14760  Biso   1.000  C
  H47      1.0000 0.01500  0.47970  0.14810  Biso   1.000  H
  N7       1.0000 0.58940  0.48800  0.39330  Biso   1.000  N
  N8       1.0000 0.91900  0.48350  0.11110  Biso   1.000  N
  C72      1.0000 0.68040  0.49330  0.32260  Biso   1.000  C
  H48      1.0000 0.71400  0.49610  0.30010  Biso   1.000  H
  O17      1.0000 0.84210  0.14180  0.21380  Biso   1.000  O
  O18      1.0000 0.86170  0.16460  0.27250  Biso   1.000  O
  O19      1.0000 0.67140  0.13730  0.28960  Biso   1.000  O
  O20      1.0000 0.64640  0.16600  0.22330  Biso   1.000  O
  C73      1.0000 0.87350  0.12500  0.24440  Biso   1.000  C
  C74      1.0000 0.93240  0.05370  0.24690  Biso   1.000  C
  C75      1.0000 0.96590  0.02730  0.21100  Biso   1.000  C
  H49      1.0000 0.94280  0.04600  0.18740  Biso   1.000  H
  C76      1.0000 0.96540  0.02710  0.28340  Biso   1.000  C
  H50      1.0000 0.94240  0.04690  0.30690  Biso   1.000  H
  C77      1.0000 0.90930  0.00800  0.32050  Biso   1.000  C
  C78      1.0000 0.78400  0.01010  0.36050  Biso   1.000  C
  H51      1.0000 0.72560  0.01460  0.36150  Biso   1.000  H
  C79      1.0000 0.82590  0.00760  0.39720  Biso   1.000  C
  H52      1.0000 0.79810  0.00340  0.42130  Biso   1.000  H
  C80      1.0000 0.95030  0.00300  0.35760  Biso   1.000  C
  H53      1.0000 0.00840  0.99260  0.35770  Biso   1.000  H
  C81      1.0000 0.63420  0.12770  0.25690  Biso   1.000  C
  C82      1.0000 0.56550  0.06030  0.25670  Biso   1.000  C
  C83      1.0000 0.53200  0.02970  0.29160  Biso   1.000  C
  H54      1.0000 0.55290  0.04940  0.31550  Biso   1.000  H
  C84      1.0000 0.53240  0.02940  0.22150  Biso   1.000  C
  H55      1.0000 0.55410  0.04840  0.19760  Biso   1.000  H
  C85      1.0000 0.58520  0.01670  0.18420  Biso   1.000  C
  C86      1.0000 0.67340  0.02080  0.17830  Biso   1.000  C
  H56      1.0000 0.70670  0.02280  0.20100  Biso   1.000  H
  C87      1.0000 0.71650  0.02210  0.14250  Biso   1.000  C
  H57      1.0000 0.77530  0.02390  0.14120  Biso   1.000  H
  C88      1.0000 0.66570  0.02070  0.10840  Biso   1.000  C
  H58      1.0000 0.69120  0.02260  0.08370  Biso   1.000  H
  C89      1.0000 0.54390  0.01830  0.14760  Biso   1.000  C
  H59      1.0000 0.48500  0.02030  0.14810  Biso   1.000  H
  N9       1.0000 0.91060  0.01200  0.39330  Biso   1.000  N
  N10      1.0000 0.58100  0.01650  0.11110  Biso   1.000  N
  C90      1.0000 0.81960  0.00670  0.32260  Biso   1.000  C
  H60      1.0000 0.78600  0.00390  0.30010  Biso   1.000  H
  O21      1.0000 0.84210  0.64180  0.71380  Biso   1.000  O
  O22      1.0000 0.86170  0.66460  0.77250  Biso   1.000  O
  O23      1.0000 0.67140  0.63730  0.78960  Biso   1.000  O
  O24      1.0000 0.64640  0.66600  0.72330  Biso   1.000  O
  C91      1.0000 0.87350  0.62500  0.74440  Biso   1.000  C
  C92      1.0000 0.93240  0.55370  0.74690  Biso   1.000  C
  C93      1.0000 0.96590  0.52730  0.71100  Biso   1.000  C
  H61      1.0000 0.94280  0.54600  0.68740  Biso   1.000  H
  C94      1.0000 0.96540  0.52710  0.78340  Biso   1.000  C
  H62      1.0000 0.94240  0.54690  0.80690  Biso   1.000  H
  C95      1.0000 0.90930  0.50800  0.82050  Biso   1.000  C
  C96      1.0000 0.78400  0.51010  0.86050  Biso   1.000  C
  H63      1.0000 0.72560  0.51460  0.86150  Biso   1.000  H
  C97      1.0000 0.82590  0.50760  0.89720  Biso   1.000  C
  H64      1.0000 0.79810  0.50340  0.92130  Biso   1.000  H
  C98      1.0000 0.95030  0.50300  0.85760  Biso   1.000  C
  H65      1.0000 0.00840  0.49260  0.85770  Biso   1.000  H
  C99      1.0000 0.63420  0.62770  0.75690  Biso   1.000  C
  C100     1.0000 0.56550  0.56030  0.75670  Biso   1.000  C
  C101     1.0000 0.53200  0.52970  0.79160  Biso   1.000  C
  H66      1.0000 0.55290  0.54940  0.81550  Biso   1.000  H
  C102     1.0000 0.53240  0.52940  0.72150  Biso   1.000  C
  H67      1.0000 0.55410  0.54840  0.69760  Biso   1.000  H
  C103     1.0000 0.58520  0.51670  0.68420  Biso   1.000  C
  C104     1.0000 0.67340  0.52080  0.67830  Biso   1.000  C
  H68      1.0000 0.70670  0.52280  0.70100  Biso   1.000  H
  C105     1.0000 0.71650  0.52210  0.64250  Biso   1.000  C
  H69      1.0000 0.77530  0.52390  0.64120  Biso   1.000  H
  C106     1.0000 0.66570  0.52070  0.60840  Biso   1.000  C
  H70      1.0000 0.69120  0.52260  0.58370  Biso   1.000  H
  C107     1.0000 0.54390  0.51830  0.64760  Biso   1.000  C
  H71      1.0000 0.48500  0.52030  0.64810  Biso   1.000  H
  N11      1.0000 0.91060  0.51200  0.89330  Biso   1.000  N
  N12      1.0000 0.58100  0.51650  0.61110  Biso   1.000  N
  C108     1.0000 0.81960  0.50670  0.82260  Biso   1.000  C
  H72      1.0000 0.78600  0.50390  0.80010  Biso   1.000  H
  O25      1.0000 0.34210  0.14180  0.71380  Biso   1.000  O
  O26      1.0000 0.36170  0.16460  0.77250  Biso   1.000  O
  O27      1.0000 0.17140  0.13730  0.78960  Biso   1.000  O
  O28      1.0000 0.14640  0.16600  0.72330  Biso   1.000  O
  C109     1.0000 0.37350  0.12500  0.74440  Biso   1.000  C
  C110     1.0000 0.43240  0.05370  0.74690  Biso   1.000  C
  C111     1.0000 0.46590  0.02730  0.71100  Biso   1.000  C
  H73      1.0000 0.44280  0.04600  0.68740  Biso   1.000  H
  C112     1.0000 0.46540  0.02710  0.78340  Biso   1.000  C
  H74      1.0000 0.44240  0.04690  0.80690  Biso   1.000  H
  C113     1.0000 0.40930  0.00800  0.82050  Biso   1.000  C
  C114     1.0000 0.28400  0.01010  0.86050  Biso   1.000  C
  H75      1.0000 0.22560  0.01460  0.86150  Biso   1.000  H
  C115     1.0000 0.32590  0.00760  0.89720  Biso   1.000  C
  H76      1.0000 0.29810  0.00340  0.92130  Biso   1.000  H
  C116     1.0000 0.45030  0.00300  0.85760  Biso   1.000  C
  H77      1.0000 0.50840  0.99260  0.85770  Biso   1.000  H
  C117     1.0000 0.13420  0.12770  0.75690  Biso   1.000  C
  C118     1.0000 0.06550  0.06030  0.75670  Biso   1.000  C
  C119     1.0000 0.03200  0.02970  0.79160  Biso   1.000  C
  H78      1.0000 0.05290  0.04940  0.81550  Biso   1.000  H
  C120     1.0000 0.03240  0.02940  0.72150  Biso   1.000  C
  H79      1.0000 0.05410  0.04840  0.69760  Biso   1.000  H
  C121     1.0000 0.08520  0.01670  0.68420  Biso   1.000  C
  C122     1.0000 0.17340  0.02080  0.67830  Biso   1.000  C
  H80      1.0000 0.20670  0.02280  0.70100  Biso   1.000  H
  C123     1.0000 0.21650  0.02210  0.64250  Biso   1.000  C
  H81      1.0000 0.27530  0.02390  0.64120  Biso   1.000  H
  C124     1.0000 0.16570  0.02070  0.60840  Biso   1.000  C
  H82      1.0000 0.19120  0.02260  0.58370  Biso   1.000  H
  C125     1.0000 0.04390  0.01830  0.64760  Biso   1.000  C
  H83      1.0000 0.98500  0.02030  0.64810  Biso   1.000  H
  N13      1.0000 0.41060  0.01200  0.89330  Biso   1.000  N
  N14      1.0000 0.08100  0.01650  0.61110  Biso   1.000  N
  C126     1.0000 0.31960  0.00670  0.82260  Biso   1.000  C
  H84      1.0000 0.28600  0.00390  0.80010  Biso   1.000  H
  O29      1.0000 0.34210  0.64180  0.21380  Biso   1.000  O
  O30      1.0000 0.36170  0.66460  0.27250  Biso   1.000  O
  O31      1.0000 0.17140  0.63730  0.28960  Biso   1.000  O
  O32      1.0000 0.14640  0.66600  0.22330  Biso   1.000  O
  C127     1.0000 0.37350  0.62500  0.24440  Biso   1.000  C
  C128     1.0000 0.43240  0.55370  0.24690  Biso   1.000  C
  C129     1.0000 0.46590  0.52730  0.21100  Biso   1.000  C
  H85      1.0000 0.44280  0.54600  0.18740  Biso   1.000  H
  C130     1.0000 0.46540  0.52710  0.28340  Biso   1.000  C
  H86      1.0000 0.44240  0.54690  0.30690  Biso   1.000  H
  C131     1.0000 0.40930  0.50800  0.32050  Biso   1.000  C
  C132     1.0000 0.28400  0.51010  0.36050  Biso   1.000  C
  H87      1.0000 0.22560  0.51460  0.36150  Biso   1.000  H
  C133     1.0000 0.32590  0.50760  0.39720  Biso   1.000  C
  H88      1.0000 0.29810  0.50340  0.42130  Biso   1.000  H
  C134     1.0000 0.45030  0.50300  0.35760  Biso   1.000  C
  H89      1.0000 0.50840  0.49260  0.35770  Biso   1.000  H
  C135     1.0000 0.13420  0.62770  0.25690  Biso   1.000  C
  C136     1.0000 0.06550  0.56030  0.25670  Biso   1.000  C
  C137     1.0000 0.03200  0.52970  0.29160  Biso   1.000  C
  H90      1.0000 0.05290  0.54940  0.31550  Biso   1.000  H
  C138     1.0000 0.03240  0.52940  0.22150  Biso   1.000  C
  H91      1.0000 0.05410  0.54840  0.19760  Biso   1.000  H
  C139     1.0000 0.08520  0.51670  0.18420  Biso   1.000  C
  C140     1.0000 0.17340  0.52080  0.17830  Biso   1.000  C
  H92      1.0000 0.20670  0.52280  0.20100  Biso   1.000  H
  C141     1.0000 0.21650  0.52210  0.14250  Biso   1.000  C
  H93      1.0000 0.27530  0.52390  0.14120  Biso   1.000  H
  C142     1.0000 0.16570  0.52070  0.10840  Biso   1.000  C
  H94      1.0000 0.19120  0.52260  0.08370  Biso   1.000  H
  C143     1.0000 0.04390  0.51830  0.14760  Biso   1.000  C
  H95      1.0000 0.98500  0.52030  0.14810  Biso   1.000  H
  N15      1.0000 0.41060  0.51200  0.39330  Biso   1.000  N
  N16      1.0000 0.08100  0.51650  0.11110  Biso   1.000  N
  C144     1.0000 0.31960  0.50670  0.32260  Biso   1.000  C
  H96      1.0000 0.28600  0.50390  0.30010  Biso   1.000  H
  O33      1.0000 0.40790  0.39180  0.46380  Biso   1.000  O
  O34      1.0000 0.38830  0.41460  0.52250  Biso   1.000  O
  O35      1.0000 0.57860  0.38730  0.53960  Biso   1.000  O
  O36      1.0000 0.60360  0.41600  0.47330  Biso   1.000  O
  C145     1.0000 0.37650  0.37500  0.49440  Biso   1.000  C
  C146     1.0000 0.31760  0.30370  0.49690  Biso   1.000  C
  C147     1.0000 0.28410  0.27730  0.46100  Biso   1.000  C
  H97      1.0000 0.30720  0.29600  0.43740  Biso   1.000  H
  C148     1.0000 0.28460  0.27710  0.53340  Biso   1.000  C
  H98      1.0000 0.30760  0.29690  0.55690  Biso   1.000  H
  C149     1.0000 0.34070  0.25800  0.57050  Biso   1.000  C
  C150     1.0000 0.46600  0.26010  0.61050  Biso   1.000  C
  H99      1.0000 0.52440  0.26460  0.61150  Biso   1.000  H
  C151     1.0000 0.42410  0.25760  0.64720  Biso   1.000  C
  H100     1.0000 0.45190  0.25340  0.67130  Biso   1.000  H
  C152     1.0000 0.29970  0.25300  0.60760  Biso   1.000  C
  H101     1.0000 0.24160  0.24260  0.60770  Biso   1.000  H
  C153     1.0000 0.61580  0.37770  0.50690  Biso   1.000  C
  C154     1.0000 0.68450  0.31030  0.50670  Biso   1.000  C
  C155     1.0000 0.71800  0.27970  0.54160  Biso   1.000  C
  H102     1.0000 0.69710  0.29940  0.56550  Biso   1.000  H
  C156     1.0000 0.71760  0.27940  0.47150  Biso   1.000  C
  H103     1.0000 0.69590  0.29840  0.44760  Biso   1.000  H
  C157     1.0000 0.66480  0.26670  0.43420  Biso   1.000  C
  C158     1.0000 0.57660  0.27080  0.42830  Biso   1.000  C
  H104     1.0000 0.54330  0.27280  0.45100  Biso   1.000  H
  C159     1.0000 0.53350  0.27210  0.39250  Biso   1.000  C
  H105     1.0000 0.47470  0.27390  0.39120  Biso   1.000  H
  C160     1.0000 0.58430  0.27070  0.35840  Biso   1.000  C
  H106     1.0000 0.55880  0.27260  0.33370  Biso   1.000  H
  C161     1.0000 0.70610  0.26830  0.39760  Biso   1.000  C
  H107     1.0000 0.76500  0.27030  0.39810  Biso   1.000  H
  N17      1.0000 0.33940  0.26200  0.64330  Biso   1.000  N
  N18      1.0000 0.66900  0.26650  0.36110  Biso   1.000  N
  C162     1.0000 0.43040  0.25670  0.57260  Biso   1.000  C
  H108     1.0000 0.46400  0.25390  0.55010  Biso   1.000  H
  O37      1.0000 0.40790  0.89180  0.96380  Biso   1.000  O
  O38      1.0000 0.38830  0.91460  0.02250  Biso   1.000  O
  O39      1.0000 0.57860  0.88730  0.03960  Biso   1.000  O
  O40      1.0000 0.60360  0.91600  0.97330  Biso   1.000  O
  C163     1.0000 0.37650  0.87500  0.99440  Biso   1.000  C
  C164     1.0000 0.31760  0.80370  0.99690  Biso   1.000  C
  C165     1.0000 0.28410  0.77730  0.96100  Biso   1.000  C
  H109     1.0000 0.30720  0.79600  0.93740  Biso   1.000  H
  C166     1.0000 0.28460  0.77710  0.03340  Biso   1.000  C
  H110     1.0000 0.30760  0.79690  0.05690  Biso   1.000  H
  C167     1.0000 0.34070  0.75800  0.07050  Biso   1.000  C
  C168     1.0000 0.46600  0.76010  0.11050  Biso   1.000  C
  H111     1.0000 0.52440  0.76460  0.11150  Biso   1.000  H
  C169     1.0000 0.42410  0.75760  0.14720  Biso   1.000  C
  H112     1.0000 0.45190  0.75340  0.17130  Biso   1.000  H
  C170     1.0000 0.29970  0.75300  0.10760  Biso   1.000  C
  H113     1.0000 0.24160  0.74260  0.10770  Biso   1.000  H
  C171     1.0000 0.61580  0.87770  0.00690  Biso   1.000  C
  C172     1.0000 0.68450  0.81030  0.00670  Biso   1.000  C
  C173     1.0000 0.71800  0.77970  0.04160  Biso   1.000  C
  H114     1.0000 0.69710  0.79940  0.06550  Biso   1.000  H
  C174     1.0000 0.71760  0.77940  0.97150  Biso   1.000  C
  H115     1.0000 0.69590  0.79840  0.94760  Biso   1.000  H
  C175     1.0000 0.66480  0.76670  0.93420  Biso   1.000  C
  C176     1.0000 0.57660  0.77080  0.92830  Biso   1.000  C
  H116     1.0000 0.54330  0.77280  0.95100  Biso   1.000  H
  C177     1.0000 0.53350  0.77210  0.89250  Biso   1.000  C
  H117     1.0000 0.47470  0.77390  0.89120  Biso   1.000  H
  C178     1.0000 0.58430  0.77070  0.85840  Biso   1.000  C
  H118     1.0000 0.55880  0.77260  0.83370  Biso   1.000  H
  C179     1.0000 0.70610  0.76830  0.89760  Biso   1.000  C
  H119     1.0000 0.76500  0.77030  0.89810  Biso   1.000  H
  N19      1.0000 0.33940  0.76200  0.14330  Biso   1.000  N
  N20      1.0000 0.66900  0.76650  0.86110  Biso   1.000  N
  C180     1.0000 0.43040  0.75670  0.07260  Biso   1.000  C
  H120     1.0000 0.46400  0.75390  0.05010  Biso   1.000  H
  O41      1.0000 0.90790  0.39180  0.96380  Biso   1.000  O
  O42      1.0000 0.88830  0.41460  0.02250  Biso   1.000  O
  O43      1.0000 0.07860  0.38730  0.03960  Biso   1.000  O
  O44      1.0000 0.10360  0.41600  0.97330  Biso   1.000  O
  C181     1.0000 0.87650  0.37500  0.99440  Biso   1.000  C
  C182     1.0000 0.81760  0.30370  0.99690  Biso   1.000  C
  C183     1.0000 0.78410  0.27730  0.96100  Biso   1.000  C
  H121     1.0000 0.80720  0.29600  0.93740  Biso   1.000  H
  C184     1.0000 0.78460  0.27710  0.03340  Biso   1.000  C
  H122     1.0000 0.80760  0.29690  0.05690  Biso   1.000  H
  C185     1.0000 0.84070  0.25800  0.07050  Biso   1.000  C
  C186     1.0000 0.96600  0.26010  0.11050  Biso   1.000  C
  H123     1.0000 0.02440  0.26460  0.11150  Biso   1.000  H
  C187     1.0000 0.92410  0.25760  0.14720  Biso   1.000  C
  H124     1.0000 0.95190  0.25340  0.17130  Biso   1.000  H
  C188     1.0000 0.79970  0.25300  0.10760  Biso   1.000  C
  H125     1.0000 0.74160  0.24260  0.10770  Biso   1.000  H
  C189     1.0000 0.11580  0.37770  0.00690  Biso   1.000  C
  C190     1.0000 0.18450  0.31030  0.00670  Biso   1.000  C
  C191     1.0000 0.21800  0.27970  0.04160  Biso   1.000  C
  H126     1.0000 0.19710  0.29940  0.06550  Biso   1.000  H
  C192     1.0000 0.21760  0.27940  0.97150  Biso   1.000  C
  H127     1.0000 0.19590  0.29840  0.94760  Biso   1.000  H
  C193     1.0000 0.16480  0.26670  0.93420  Biso   1.000  C
  C194     1.0000 0.07660  0.27080  0.92830  Biso   1.000  C
  H128     1.0000 0.04330  0.27280  0.95100  Biso   1.000  H
  C195     1.0000 0.03350  0.27210  0.89250  Biso   1.000  C
  H129     1.0000 0.97470  0.27390  0.89120  Biso   1.000  H
  C196     1.0000 0.08430  0.27070  0.85840  Biso   1.000  C
  H130     1.0000 0.05880  0.27260  0.83370  Biso   1.000  H
  C197     1.0000 0.20610  0.26830  0.89760  Biso   1.000  C
  H131     1.0000 0.26500  0.27030  0.89810  Biso   1.000  H
  N21      1.0000 0.83940  0.26200  0.14330  Biso   1.000  N
  N22      1.0000 0.16900  0.26650  0.86110  Biso   1.000  N
  C198     1.0000 0.93040  0.25670  0.07260  Biso   1.000  C
  H132     1.0000 0.96400  0.25390  0.05010  Biso   1.000  H
  O45      1.0000 0.90790  0.89180  0.46380  Biso   1.000  O
  O46      1.0000 0.88830  0.91460  0.52250  Biso   1.000  O
  O47      1.0000 0.07860  0.88730  0.53960  Biso   1.000  O
  O48      1.0000 0.10360  0.91600  0.47330  Biso   1.000  O
  C199     1.0000 0.87650  0.87500  0.49440  Biso   1.000  C
  C200     1.0000 0.81760  0.80370  0.49690  Biso   1.000  C
  C201     1.0000 0.78410  0.77730  0.46100  Biso   1.000  C
  H133     1.0000 0.80720  0.79600  0.43740  Biso   1.000  H
  C202     1.0000 0.78460  0.77710  0.53340  Biso   1.000  C
  H134     1.0000 0.80760  0.79690  0.55690  Biso   1.000  H
  C203     1.0000 0.84070  0.75800  0.57050  Biso   1.000  C
  C204     1.0000 0.96600  0.76010  0.61050  Biso   1.000  C
  H135     1.0000 0.02440  0.76460  0.61150  Biso   1.000  H
  C205     1.0000 0.92410  0.75760  0.64720  Biso   1.000  C
  H136     1.0000 0.95190  0.75340  0.67130  Biso   1.000  H
  C206     1.0000 0.79970  0.75300  0.60760  Biso   1.000  C
  H137     1.0000 0.74160  0.74260  0.60770  Biso   1.000  H
  C207     1.0000 0.11580  0.87770  0.50690  Biso   1.000  C
  C208     1.0000 0.18450  0.81030  0.50670  Biso   1.000  C
  C209     1.0000 0.21800  0.77970  0.54160  Biso   1.000  C
  H138     1.0000 0.19710  0.79940  0.56550  Biso   1.000  H
  C210     1.0000 0.21760  0.77940  0.47150  Biso   1.000  C
  H139     1.0000 0.19590  0.79840  0.44760  Biso   1.000  H
  C211     1.0000 0.16480  0.76670  0.43420  Biso   1.000  C
  C212     1.0000 0.07660  0.77080  0.42830  Biso   1.000  C
  H140     1.0000 0.04330  0.77280  0.45100  Biso   1.000  H
  C213     1.0000 0.03350  0.77210  0.39250  Biso   1.000  C
  H141     1.0000 0.97470  0.77390  0.39120  Biso   1.000  H
  C214     1.0000 0.08430  0.77070  0.35840  Biso   1.000  C
  H142     1.0000 0.05880  0.77260  0.33370  Biso   1.000  H
  C215     1.0000 0.20610  0.76830  0.39760  Biso   1.000  C
  H143     1.0000 0.26500  0.77030  0.39810  Biso   1.000  H
  N23      1.0000 0.83940  0.76200  0.64330  Biso   1.000  N
  N24      1.0000 0.16900  0.76650  0.36110  Biso   1.000  N
  C216     1.0000 0.93040  0.75670  0.57260  Biso   1.000  C
  H144     1.0000 0.96400  0.75390  0.55010  Biso   1.000  H
  O49      1.0000 0.09210  0.10820  0.46380  Biso   1.000  O
  O50      1.0000 0.11170  0.08540  0.52250  Biso   1.000  O
  O51      1.0000 0.92140  0.11270  0.53960  Biso   1.000  O
  O52      1.0000 0.89640  0.08400  0.47330  Biso   1.000  O
  C217     1.0000 0.12350  0.12500  0.49440  Biso   1.000  C
  C218     1.0000 0.18240  0.19630  0.49690  Biso   1.000  C
  C219     1.0000 0.21590  0.22270  0.46100  Biso   1.000  C
  H145     1.0000 0.19280  0.20400  0.43740  Biso   1.000  H
  C220     1.0000 0.21540  0.22290  0.53340  Biso   1.000  C
  H146     1.0000 0.19240  0.20310  0.55690  Biso   1.000  H
  C221     1.0000 0.15930  0.24200  0.57050  Biso   1.000  C
  C222     1.0000 0.03400  0.23990  0.61050  Biso   1.000  C
  H147     1.0000 0.97560  0.23540  0.61150  Biso   1.000  H
  C223     1.0000 0.07590  0.24240  0.64720  Biso   1.000  C
  H148     1.0000 0.04810  0.24660  0.67130  Biso   1.000  H
  C224     1.0000 0.20030  0.24700  0.60760  Biso   1.000  C
  H149     1.0000 0.25840  0.25740  0.60770  Biso   1.000  H
  C225     1.0000 0.88420  0.12230  0.50690  Biso   1.000  C
  C226     1.0000 0.81550  0.18970  0.50670  Biso   1.000  C
  C227     1.0000 0.78200  0.22030  0.54160  Biso   1.000  C
  H150     1.0000 0.80290  0.20060  0.56550  Biso   1.000  H
  C228     1.0000 0.78240  0.22060  0.47150  Biso   1.000  C
  H151     1.0000 0.80410  0.20160  0.44760  Biso   1.000  H
  C229     1.0000 0.83520  0.23330  0.43420  Biso   1.000  C
  C230     1.0000 0.92340  0.22920  0.42830  Biso   1.000  C
  H152     1.0000 0.95670  0.22720  0.45100  Biso   1.000  H
  C231     1.0000 0.96650  0.22790  0.39250  Biso   1.000  C
  H153     1.0000 0.02530  0.22610  0.39120  Biso   1.000  H
  C232     1.0000 0.91570  0.22930  0.35840  Biso   1.000  C
  H154     1.0000 0.94120  0.22740  0.33370  Biso   1.000  H
  C233     1.0000 0.79390  0.23170  0.39760  Biso   1.000  C
  H155     1.0000 0.73500  0.22970  0.39810  Biso   1.000  H
  N25      1.0000 0.16060  0.23800  0.64330  Biso   1.000  N
  N26      1.0000 0.83100  0.23350  0.36110  Biso   1.000  N
  C234     1.0000 0.06960  0.24330  0.57260  Biso   1.000  C
  H156     1.0000 0.03600  0.24610  0.55010  Biso   1.000  H
  O53      1.0000 0.09210  0.60820  0.96380  Biso   1.000  O
  O54      1.0000 0.11170  0.58540  0.02250  Biso   1.000  O
  O55      1.0000 0.92140  0.61270  0.03960  Biso   1.000  O
  O56      1.0000 0.89640  0.58400  0.97330  Biso   1.000  O
  C235     1.0000 0.12350  0.62500  0.99440  Biso   1.000  C
  C236     1.0000 0.18240  0.69630  0.99690  Biso   1.000  C
  C237     1.0000 0.21590  0.72270  0.96100  Biso   1.000  C
  H157     1.0000 0.19280  0.70400  0.93740  Biso   1.000  H
  C238     1.0000 0.21540  0.72290  0.03340  Biso   1.000  C
  H158     1.0000 0.19240  0.70310  0.05690  Biso   1.000  H
  C239     1.0000 0.15930  0.74200  0.07050  Biso   1.000  C
  C240     1.0000 0.03400  0.73990  0.11050  Biso   1.000  C
  H159     1.0000 0.97560  0.73540  0.11150  Biso   1.000  H
  C241     1.0000 0.07590  0.74240  0.14720  Biso   1.000  C
  H160     1.0000 0.04810  0.74660  0.17130  Biso   1.000  H
  C242     1.0000 0.20030  0.74700  0.10760  Biso   1.000  C
  H161     1.0000 0.25840  0.75740  0.10770  Biso   1.000  H
  C243     1.0000 0.88420  0.62230  0.00690  Biso   1.000  C
  C244     1.0000 0.81550  0.68970  0.00670  Biso   1.000  C
  C245     1.0000 0.78200  0.72030  0.04160  Biso   1.000  C
  H162     1.0000 0.80290  0.70060  0.06550  Biso   1.000  H
  C246     1.0000 0.78240  0.72060  0.97150  Biso   1.000  C
  H163     1.0000 0.80410  0.70160  0.94760  Biso   1.000  H
  C247     1.0000 0.83520  0.73330  0.93420  Biso   1.000  C
  C248     1.0000 0.92340  0.72920  0.92830  Biso   1.000  C
  H164     1.0000 0.95670  0.72720  0.95100  Biso   1.000  H
  C249     1.0000 0.96650  0.72790  0.89250  Biso   1.000  C
  H165     1.0000 0.02530  0.72610  0.89120  Biso   1.000  H
  C250     1.0000 0.91570  0.72930  0.85840  Biso   1.000  C
  H166     1.0000 0.94120  0.72740  0.83370  Biso   1.000  H
  C251     1.0000 0.79390  0.73170  0.89760  Biso   1.000  C
  H167     1.0000 0.73500  0.72970  0.89810  Biso   1.000  H
  N27      1.0000 0.16060  0.73800  0.14330  Biso   1.000  N
  N28      1.0000 0.83100  0.73350  0.86110  Biso   1.000  N
  C252     1.0000 0.06960  0.74330  0.07260  Biso   1.000  C
  H168     1.0000 0.03600  0.74610  0.05010  Biso   1.000  H
  O57      1.0000 0.59210  0.10820  0.96380  Biso   1.000  O
  O58      1.0000 0.61170  0.08540  0.02250  Biso   1.000  O
  O59      1.0000 0.42140  0.11270  0.03960  Biso   1.000  O
  O60      1.0000 0.39640  0.08400  0.97330  Biso   1.000  O
  C253     1.0000 0.62350  0.12500  0.99440  Biso   1.000  C
  C254     1.0000 0.68240  0.19630  0.99690  Biso   1.000  C
  C255     1.0000 0.71590  0.22270  0.96100  Biso   1.000  C
  H169     1.0000 0.69280  0.20400  0.93740  Biso   1.000  H
  C256     1.0000 0.71540  0.22290  0.03340  Biso   1.000  C
  H170     1.0000 0.69240  0.20310  0.05690  Biso   1.000  H
  C257     1.0000 0.65930  0.24200  0.07050  Biso   1.000  C
  C258     1.0000 0.53400  0.23990  0.11050  Biso   1.000  C
  H171     1.0000 0.47560  0.23540  0.11150  Biso   1.000  H
  C259     1.0000 0.57590  0.24240  0.14720  Biso   1.000  C
  H172     1.0000 0.54810  0.24660  0.17130  Biso   1.000  H
  C260     1.0000 0.70030  0.24700  0.10760  Biso   1.000  C
  H173     1.0000 0.75840  0.25740  0.10770  Biso   1.000  H
  C261     1.0000 0.38420  0.12230  0.00690  Biso   1.000  C
  C262     1.0000 0.31550  0.18970  0.00670  Biso   1.000  C
  C263     1.0000 0.28200  0.22030  0.04160  Biso   1.000  C
  H174     1.0000 0.30290  0.20060  0.06550  Biso   1.000  H
  C264     1.0000 0.28240  0.22060  0.97150  Biso   1.000  C
  H175     1.0000 0.30410  0.20160  0.94760  Biso   1.000  H
  C265     1.0000 0.33520  0.23330  0.93420  Biso   1.000  C
  C266     1.0000 0.42340  0.22920  0.92830  Biso   1.000  C
  H176     1.0000 0.45670  0.22720  0.95100  Biso   1.000  H
  C267     1.0000 0.46650  0.22790  0.89250  Biso   1.000  C
  H177     1.0000 0.52530  0.22610  0.89120  Biso   1.000  H
  C268     1.0000 0.41570  0.22930  0.85840  Biso   1.000  C
  H178     1.0000 0.44120  0.22740  0.83370  Biso   1.000  H
  C269     1.0000 0.29390  0.23170  0.89760  Biso   1.000  C
  H179     1.0000 0.23500  0.22970  0.89810  Biso   1.000  H
  N29      1.0000 0.66060  0.23800  0.14330  Biso   1.000  N
  N30      1.0000 0.33100  0.23350  0.86110  Biso   1.000  N
  C270     1.0000 0.56960  0.24330  0.07260  Biso   1.000  C
  H180     1.0000 0.53600  0.24610  0.05010  Biso   1.000  H
  O61      1.0000 0.59210  0.60820  0.46380  Biso   1.000  O
  O62      1.0000 0.61170  0.58540  0.52250  Biso   1.000  O
  O63      1.0000 0.42140  0.61270  0.53960  Biso   1.000  O
  O64      1.0000 0.39640  0.58400  0.47330  Biso   1.000  O
  C271     1.0000 0.62350  0.62500  0.49440  Biso   1.000  C
  C272     1.0000 0.68240  0.69630  0.49690  Biso   1.000  C
  C273     1.0000 0.71590  0.72270  0.46100  Biso   1.000  C
  H181     1.0000 0.69280  0.70400  0.43740  Biso   1.000  H
  C274     1.0000 0.71540  0.72290  0.53340  Biso   1.000  C
  H182     1.0000 0.69240  0.70310  0.55690  Biso   1.000  H
  C275     1.0000 0.65930  0.74200  0.57050  Biso   1.000  C
  C276     1.0000 0.53400  0.73990  0.61050  Biso   1.000  C
  H183     1.0000 0.47560  0.73540  0.61150  Biso   1.000  H
  C277     1.0000 0.57590  0.74240  0.64720  Biso   1.000  C
  H184     1.0000 0.54810  0.74660  0.67130  Biso   1.000  H
  C278     1.0000 0.70030  0.74700  0.60760  Biso   1.000  C
  H185     1.0000 0.75840  0.75740  0.60770  Biso   1.000  H
  C279     1.0000 0.38420  0.62230  0.50690  Biso   1.000  C
  C280     1.0000 0.31550  0.68970  0.50670  Biso   1.000  C
  C281     1.0000 0.28200  0.72030  0.54160  Biso   1.000  C
  H186     1.0000 0.30290  0.70060  0.56550  Biso   1.000  H
  C282     1.0000 0.28240  0.72060  0.47150  Biso   1.000  C
  H187     1.0000 0.30410  0.70160  0.44760  Biso   1.000  H
  C283     1.0000 0.33520  0.73330  0.43420  Biso   1.000  C
  C284     1.0000 0.42340  0.72920  0.42830  Biso   1.000  C
  H188     1.0000 0.45670  0.72720  0.45100  Biso   1.000  H
  C285     1.0000 0.46650  0.72790  0.39250  Biso   1.000  C
  H189     1.0000 0.52530  0.72610  0.39120  Biso   1.000  H
  C286     1.0000 0.41570  0.72930  0.35840  Biso   1.000  C
  H190     1.0000 0.44120  0.72740  0.33370  Biso   1.000  H
  C287     1.0000 0.29390  0.73170  0.39760  Biso   1.000  C
  H191     1.0000 0.23500  0.72970  0.39810  Biso   1.000  H
  N31      1.0000 0.66060  0.73800  0.64330  Biso   1.000  N
  N32      1.0000 0.33100  0.73350  0.36110  Biso   1.000  N
  C288     1.0000 0.56960  0.74330  0.57260  Biso   1.000  C
  H192     1.0000 0.53600  0.74610  0.55010  Biso   1.000  H
  Cd1      1.0000 0.25000  0.75000  0.30141  Biso   1.000  Cd
  Cd2      1.0000 0.25000  0.75000  0.19969  Biso   1.000  Cd
  Cd3      1.0000 0.25000  0.25000  0.80141  Biso   1.000  Cd
  Cd4      1.0000 0.25000  0.25000  0.69969  Biso   1.000  Cd
  Cd5      1.0000 0.75000  0.25000  0.30141  Biso   1.000  Cd
  Cd6      1.0000 0.75000  0.25000  0.19969  Biso   1.000  Cd
  Cd7      1.0000 0.75000  0.75000  0.80141  Biso   1.000  Cd
  Cd8      1.0000 0.75000  0.75000  0.69969  Biso   1.000  Cd
  Cd9      1.0000 0.50000  0.50000  0.55141  Biso   1.000  Cd
  Cd10     1.0000 0.50000  0.50000  0.44969  Biso   1.000  Cd
  Cd11     1.0000 0.50000  0.00000  0.05141  Biso   1.000  Cd
  Cd12     1.0000 0.50000  0.00000  0.94969  Biso   1.000  Cd
  Cd13     1.0000 0.00000  0.00000  0.55141  Biso   1.000  Cd
  Cd14     1.0000 0.00000  0.00000  0.44969  Biso   1.000  Cd
  Cd15     1.0000 0.00000  0.50000  0.05141  Biso   1.000  Cd
  Cd16     1.0000 0.00000  0.50000  0.94969  Biso   1.000  Cd
