data_image0
_cell_length_a       18.586
_cell_length_b       18.586
_cell_length_c       38.461
_cell_angle_alpha    90
_cell_angle_beta     90
_cell_angle_gamma    120

_symmetry_space_group_name_H-M    "P 1"
_symmetry_int_tables_number       1

loop_
  _symmetry_equiv_pos_as_xyz
  'x, y, z'

loop_
  _atom_site_label
  _atom_site_occupancy
  _atom_site_fract_x
  _atom_site_fract_y
  _atom_site_fract_z
  _atom_site_thermal_displace_type
  _atom_site_B_iso_or_equiv
  _atom_site_type_symbol
  C1       1.0000 0.35980  0.90730  0.97298  Biso   1.000  C
  C2       1.0000 0.28060  0.84910  0.95601  Biso   1.000  C
  C3       1.0000 0.26520  0.86360  0.92230  Biso   1.000  C
  H1       1.0000 0.30400  0.91340  0.91080  Biso   1.000  H
  C4       1.0000 0.54780  0.90740  0.97298  Biso   1.000  C
  C5       1.0000 0.56870  0.84900  0.95606  Biso   1.000  C
  C6       1.0000 0.55370  0.77670  0.97311  Biso   1.000  C
  H2       1.0000 0.53340  0.76650  0.99630  Biso   1.000  H
  C7       1.0000 0.59840  0.86360  0.92225  Biso   1.000  C
  H3       1.0000 0.60900  0.91320  0.91080  Biso   1.000  H
  C8       1.0000 0.61270  0.80650  0.90501  Biso   1.000  C
  C9       1.0000 0.64050  0.82030  0.86797  Biso   1.000  C
  C10      1.0000 0.70360  0.89680  0.85700  Biso   1.000  C
  C11      1.0000 0.70470  0.80740  0.85750  Biso   1.000  C
  C12      1.0000 0.60490  0.84890  0.84440  Biso   1.000  C
  H4       1.0000 0.56410  0.86190  0.85200  Biso   1.000  H
  C13      1.0000 0.60500  0.75540  0.84460  Biso   1.000  C
  H5       1.0000 0.56420  0.70150  0.85210  Biso   1.000  H
  N1       1.0000 0.75780  0.78960  0.88080  Biso   1.000  N
  N2       1.0000 0.75680  0.96900  0.88080  Biso   1.000  N
  O1       1.0000 0.51812  0.88967  0.00346  Biso   1.000  O
  O2       1.0000 0.58856  0.03039  0.04400  Biso   1.000  O
  O3       1.0000 0.44177  0.03045  0.04401  Biso   1.000  O
  O4       1.0000 0.37163  0.88979  0.00349  Biso   1.000  O
  Cu1      1.0000 0.47633  0.95271  0.02832  Biso   1.000  Cu
  C14      1.0000 0.02647  0.24063  0.30631  Biso   1.000  C
  C15      1.0000 0.94727  0.18243  0.28934  Biso   1.000  C
  C16      1.0000 0.93187  0.19693  0.25563  Biso   1.000  C
  H6       1.0000 0.97067  0.24673  0.24413  Biso   1.000  H
  C17      1.0000 0.21447  0.24073  0.30631  Biso   1.000  C
  C18      1.0000 0.23537  0.18233  0.28939  Biso   1.000  C
  C19      1.0000 0.22037  0.11003  0.30644  Biso   1.000  C
  H7       1.0000 0.20007  0.09983  0.32963  Biso   1.000  H
  C20      1.0000 0.26507  0.19693  0.25558  Biso   1.000  C
  H8       1.0000 0.27567  0.24653  0.24413  Biso   1.000  H
  C21      1.0000 0.27937  0.13983  0.23834  Biso   1.000  C
  C22      1.0000 0.30717  0.15363  0.20130  Biso   1.000  C
  C23      1.0000 0.37027  0.23013  0.19033  Biso   1.000  C
  C24      1.0000 0.37137  0.14073  0.19083  Biso   1.000  C
  C25      1.0000 0.27157  0.18223  0.17773  Biso   1.000  C
  H9       1.0000 0.23077  0.19523  0.18533  Biso   1.000  H
  C26      1.0000 0.27167  0.08873  0.17793  Biso   1.000  C
  H10      1.0000 0.23087  0.03483  0.18543  Biso   1.000  H
  N3       1.0000 0.42447  0.12293  0.21413  Biso   1.000  N
  N4       1.0000 0.42347  0.30233  0.21413  Biso   1.000  N
  O5       1.0000 0.18479  0.22300  0.33679  Biso   1.000  O
  O6       1.0000 0.25523  0.36372  0.37733  Biso   1.000  O
  O7       1.0000 0.10844  0.36378  0.37734  Biso   1.000  O
  O8       1.0000 0.03830  0.22312  0.33682  Biso   1.000  O
  Cu2      1.0000 0.14300  0.28604  0.36165  Biso   1.000  Cu
  C27      1.0000 0.69313  0.57397  0.63965  Biso   1.000  C
  C28      1.0000 0.61393  0.51577  0.62268  Biso   1.000  C
  C29      1.0000 0.59853  0.53027  0.58897  Biso   1.000  C
  H11      1.0000 0.63733  0.58007  0.57747  Biso   1.000  H
  C30      1.0000 0.88113  0.57407  0.63965  Biso   1.000  C
  C31      1.0000 0.90203  0.51567  0.62273  Biso   1.000  C
  C32      1.0000 0.88703  0.44337  0.63978  Biso   1.000  C
  H12      1.0000 0.86673  0.43317  0.66297  Biso   1.000  H
  C33      1.0000 0.93173  0.53027  0.58892  Biso   1.000  C
  H13      1.0000 0.94233  0.57987  0.57747  Biso   1.000  H
  C34      1.0000 0.94603  0.47317  0.57168  Biso   1.000  C
  C35      1.0000 0.97383  0.48697  0.53464  Biso   1.000  C
  C36      1.0000 0.03693  0.56347  0.52367  Biso   1.000  C
  C37      1.0000 0.03803  0.47407  0.52417  Biso   1.000  C
  C38      1.0000 0.93823  0.51557  0.51107  Biso   1.000  C
  H14      1.0000 0.89743  0.52857  0.51867  Biso   1.000  H
  C39      1.0000 0.93833  0.42207  0.51127  Biso   1.000  C
  H15      1.0000 0.89753  0.36817  0.51877  Biso   1.000  H
  N5       1.0000 0.09113  0.45627  0.54747  Biso   1.000  N
  N6       1.0000 0.09013  0.63567  0.54747  Biso   1.000  N
  O9       1.0000 0.85145  0.55634  0.67013  Biso   1.000  O
  O10      1.0000 0.92189  0.69706  0.71067  Biso   1.000  O
  O11      1.0000 0.77510  0.69712  0.71068  Biso   1.000  O
  O12      1.0000 0.70496  0.55646  0.67016  Biso   1.000  O
  Cu3      1.0000 0.80966  0.61938  0.69498  Biso   1.000  Cu
  C40      1.0000 0.09270  0.45250  0.97298  Biso   1.000  C
  C41      1.0000 0.15090  0.43150  0.95601  Biso   1.000  C
  C42      1.0000 0.13640  0.40160  0.92230  Biso   1.000  C
  H16      1.0000 0.08660  0.39060  0.91080  Biso   1.000  H
  C43      1.0000 0.09260  0.64040  0.97298  Biso   1.000  C
  C44      1.0000 0.15100  0.71970  0.95606  Biso   1.000  C
  C45      1.0000 0.22330  0.77700  0.97311  Biso   1.000  C
  H17      1.0000 0.23350  0.76690  0.99630  Biso   1.000  H
  C46      1.0000 0.13640  0.73480  0.92225  Biso   1.000  C
  H18      1.0000 0.08680  0.69580  0.91080  Biso   1.000  H
  C47      1.0000 0.19350  0.80620  0.90501  Biso   1.000  C
  C48      1.0000 0.17970  0.82020  0.86797  Biso   1.000  C
  C49      1.0000 0.10320  0.80680  0.85700  Biso   1.000  C
  C50      1.0000 0.19260  0.89730  0.85750  Biso   1.000  C
  C51      1.0000 0.15110  0.75600  0.84440  Biso   1.000  C
  H19      1.0000 0.13810  0.70220  0.85200  Biso   1.000  H
  C52      1.0000 0.24460  0.84960  0.84460  Biso   1.000  C
  H20      1.0000 0.29850  0.86270  0.85210  Biso   1.000  H
  N7       1.0000 0.21040  0.96820  0.88080  Biso   1.000  N
  N8       1.0000 0.03100  0.78780  0.88080  Biso   1.000  N
  O13      1.0000 0.11033  0.62845  0.00346  Biso   1.000  O
  O14      1.0000 0.96961  0.55817  0.04400  Biso   1.000  O
  O15      1.0000 0.96955  0.41132  0.04401  Biso   1.000  O
  O16      1.0000 0.11021  0.48184  0.00349  Biso   1.000  O
  Cu4      1.0000 0.04729  0.52362  0.02832  Biso   1.000  Cu
  C53      1.0000 0.75937  0.78583  0.30631  Biso   1.000  C
  C54      1.0000 0.81757  0.76483  0.28934  Biso   1.000  C
  C55      1.0000 0.80307  0.73493  0.25563  Biso   1.000  C
  H21      1.0000 0.75327  0.72393  0.24413  Biso   1.000  H
  C56      1.0000 0.75927  0.97373  0.30631  Biso   1.000  C
  C57      1.0000 0.81767  0.05303  0.28939  Biso   1.000  C
  C58      1.0000 0.88997  0.11033  0.30644  Biso   1.000  C
  H22      1.0000 0.90017  0.10023  0.32963  Biso   1.000  H
  C59      1.0000 0.80307  0.06813  0.25558  Biso   1.000  C
  H23      1.0000 0.75347  0.02913  0.24413  Biso   1.000  H
  C60      1.0000 0.86017  0.13953  0.23834  Biso   1.000  C
  C61      1.0000 0.84637  0.15353  0.20130  Biso   1.000  C
  C62      1.0000 0.76987  0.14013  0.19033  Biso   1.000  C
  C63      1.0000 0.85927  0.23063  0.19083  Biso   1.000  C
  C64      1.0000 0.81777  0.08933  0.17773  Biso   1.000  C
  H24      1.0000 0.80477  0.03553  0.18533  Biso   1.000  H
  C65      1.0000 0.91127  0.18293  0.17793  Biso   1.000  C
  H25      1.0000 0.96517  0.19603  0.18543  Biso   1.000  H
  N9       1.0000 0.87707  0.30153  0.21413  Biso   1.000  N
  N10      1.0000 0.69767  0.12113  0.21413  Biso   1.000  N
  O17      1.0000 0.77700  0.96178  0.33679  Biso   1.000  O
  O18      1.0000 0.63628  0.89150  0.37733  Biso   1.000  O
  O19      1.0000 0.63622  0.74465  0.37734  Biso   1.000  O
  O20      1.0000 0.77688  0.81517  0.33682  Biso   1.000  O
  Cu5      1.0000 0.71396  0.85695  0.36165  Biso   1.000  Cu
  C66      1.0000 0.42603  0.11917  0.63965  Biso   1.000  C
  C67      1.0000 0.48423  0.09817  0.62268  Biso   1.000  C
  C68      1.0000 0.46973  0.06827  0.58897  Biso   1.000  C
  H26      1.0000 0.41993  0.05727  0.57747  Biso   1.000  H
  C69      1.0000 0.42593  0.30707  0.63965  Biso   1.000  C
  C70      1.0000 0.48433  0.38637  0.62273  Biso   1.000  C
  C71      1.0000 0.55663  0.44367  0.63978  Biso   1.000  C
  H27      1.0000 0.56683  0.43357  0.66297  Biso   1.000  H
  C72      1.0000 0.46973  0.40147  0.58892  Biso   1.000  C
  H28      1.0000 0.42013  0.36247  0.57747  Biso   1.000  H
  C73      1.0000 0.52683  0.47287  0.57168  Biso   1.000  C
  C74      1.0000 0.51303  0.48687  0.53464  Biso   1.000  C
  C75      1.0000 0.43653  0.47347  0.52367  Biso   1.000  C
  C76      1.0000 0.52593  0.56397  0.52417  Biso   1.000  C
  C77      1.0000 0.48443  0.42267  0.51107  Biso   1.000  C
  H29      1.0000 0.47143  0.36887  0.51867  Biso   1.000  H
  C78      1.0000 0.57793  0.51627  0.51127  Biso   1.000  C
  H30      1.0000 0.63183  0.52937  0.51877  Biso   1.000  H
  N11      1.0000 0.54373  0.63487  0.54747  Biso   1.000  N
  N12      1.0000 0.36433  0.45447  0.54747  Biso   1.000  N
  O21      1.0000 0.44366  0.29512  0.67013  Biso   1.000  O
  O22      1.0000 0.30294  0.22484  0.71067  Biso   1.000  O
  O23      1.0000 0.30288  0.07799  0.71068  Biso   1.000  O
  O24      1.0000 0.44354  0.14851  0.67016  Biso   1.000  O
  Cu6      1.0000 0.38062  0.19029  0.69498  Biso   1.000  Cu
  C79      1.0000 0.54750  0.64020  0.97298  Biso   1.000  C
  C80      1.0000 0.56850  0.71940  0.95601  Biso   1.000  C
  C81      1.0000 0.59840  0.73480  0.92230  Biso   1.000  C
  H31      1.0000 0.60940  0.69600  0.91080  Biso   1.000  H
  C82      1.0000 0.35960  0.45220  0.97298  Biso   1.000  C
  C83      1.0000 0.28030  0.43130  0.95606  Biso   1.000  C
  C84      1.0000 0.22300  0.44630  0.97311  Biso   1.000  C
  H32      1.0000 0.23310  0.46660  0.99630  Biso   1.000  H
  C85      1.0000 0.26520  0.40160  0.92225  Biso   1.000  C
  H33      1.0000 0.30420  0.39100  0.91080  Biso   1.000  H
  C86      1.0000 0.19380  0.38730  0.90501  Biso   1.000  C
  C87      1.0000 0.17980  0.35950  0.86797  Biso   1.000  C
  C88      1.0000 0.19320  0.29640  0.85700  Biso   1.000  C
  C89      1.0000 0.10270  0.29530  0.85750  Biso   1.000  C
  C90      1.0000 0.24400  0.39510  0.84440  Biso   1.000  C
  H34      1.0000 0.29780  0.43590  0.85200  Biso   1.000  H
  C91      1.0000 0.15040  0.39500  0.84460  Biso   1.000  C
  H35      1.0000 0.13730  0.43580  0.85210  Biso   1.000  H
  N13      1.0000 0.03180  0.24220  0.88080  Biso   1.000  N
  N14      1.0000 0.21220  0.24320  0.88080  Biso   1.000  N
  O25      1.0000 0.37155  0.48188  0.00346  Biso   1.000  O
  O26      1.0000 0.44183  0.41144  0.04400  Biso   1.000  O
  O27      1.0000 0.58868  0.55823  0.04401  Biso   1.000  O
  O28      1.0000 0.51816  0.62837  0.00349  Biso   1.000  O
  Cu7      1.0000 0.47638  0.52367  0.02832  Biso   1.000  Cu
  C92      1.0000 0.21417  0.97353  0.30631  Biso   1.000  C
  C93      1.0000 0.23517  0.05273  0.28934  Biso   1.000  C
  C94      1.0000 0.26507  0.06813  0.25563  Biso   1.000  C
  H36      1.0000 0.27607  0.02933  0.24413  Biso   1.000  H
  C95      1.0000 0.02627  0.78553  0.30631  Biso   1.000  C
  C96      1.0000 0.94697  0.76463  0.28939  Biso   1.000  C
  C97      1.0000 0.88967  0.77963  0.30644  Biso   1.000  C
  H37      1.0000 0.89977  0.79993  0.32963  Biso   1.000  H
  C98      1.0000 0.93187  0.73493  0.25558  Biso   1.000  C
  H38      1.0000 0.97087  0.72433  0.24413  Biso   1.000  H
  C99      1.0000 0.86047  0.72063  0.23834  Biso   1.000  C
  C100     1.0000 0.84647  0.69283  0.20130  Biso   1.000  C
  C101     1.0000 0.85987  0.62973  0.19033  Biso   1.000  C
  C102     1.0000 0.76937  0.62863  0.19083  Biso   1.000  C
  C103     1.0000 0.91067  0.72843  0.17773  Biso   1.000  C
  H39      1.0000 0.96447  0.76923  0.18533  Biso   1.000  H
  C104     1.0000 0.81707  0.72833  0.17793  Biso   1.000  C
  H40      1.0000 0.80397  0.76913  0.18543  Biso   1.000  H
  N15      1.0000 0.69847  0.57553  0.21413  Biso   1.000  N
  N16      1.0000 0.87887  0.57653  0.21413  Biso   1.000  N
  O29      1.0000 0.03822  0.81521  0.33679  Biso   1.000  O
  O30      1.0000 0.10850  0.74477  0.37733  Biso   1.000  O
  O31      1.0000 0.25535  0.89156  0.37734  Biso   1.000  O
  O32      1.0000 0.18483  0.96170  0.33682  Biso   1.000  O
  Cu8      1.0000 0.14305  0.85700  0.36165  Biso   1.000  Cu
  C105     1.0000 0.88083  0.30687  0.63965  Biso   1.000  C
  C106     1.0000 0.90183  0.38607  0.62268  Biso   1.000  C
  C107     1.0000 0.93173  0.40147  0.58897  Biso   1.000  C
  H41      1.0000 0.94273  0.36267  0.57747  Biso   1.000  H
  C108     1.0000 0.69293  0.11887  0.63965  Biso   1.000  C
  C109     1.0000 0.61363  0.09797  0.62273  Biso   1.000  C
  C110     1.0000 0.55633  0.11297  0.63978  Biso   1.000  C
  H42      1.0000 0.56643  0.13327  0.66297  Biso   1.000  H
  C111     1.0000 0.59853  0.06827  0.58892  Biso   1.000  C
  H43      1.0000 0.63753  0.05767  0.57747  Biso   1.000  H
  C112     1.0000 0.52713  0.05397  0.57168  Biso   1.000  C
  C113     1.0000 0.51313  0.02617  0.53464  Biso   1.000  C
  C114     1.0000 0.52653  0.96307  0.52367  Biso   1.000  C
  C115     1.0000 0.43603  0.96197  0.52417  Biso   1.000  C
  C116     1.0000 0.57733  0.06177  0.51107  Biso   1.000  C
  H44      1.0000 0.63113  0.10257  0.51867  Biso   1.000  H
  C117     1.0000 0.48373  0.06167  0.51127  Biso   1.000  C
  H45      1.0000 0.47063  0.10247  0.51877  Biso   1.000  H
  N17      1.0000 0.36513  0.90887  0.54747  Biso   1.000  N
  N18      1.0000 0.54553  0.90987  0.54747  Biso   1.000  N
  O33      1.0000 0.70488  0.14855  0.67013  Biso   1.000  O
  O34      1.0000 0.77516  0.07811  0.71067  Biso   1.000  O
  O35      1.0000 0.92201  0.22490  0.71068  Biso   1.000  O
  O36      1.0000 0.85149  0.29504  0.67016  Biso   1.000  O
  Cu9      1.0000 0.80971  0.19034  0.69498  Biso   1.000  Cu
  C118     1.0000 0.64020  0.09270  0.02702  Biso   1.000  C
  C119     1.0000 0.71940  0.15090  0.04399  Biso   1.000  C
  C120     1.0000 0.73480  0.13640  0.07770  Biso   1.000  C
  H46      1.0000 0.69600  0.08660  0.08920  Biso   1.000  H
  C121     1.0000 0.45220  0.09260  0.02702  Biso   1.000  C
  C122     1.0000 0.43130  0.15100  0.04394  Biso   1.000  C
  C123     1.0000 0.44630  0.22330  0.02689  Biso   1.000  C
  H47      1.0000 0.46660  0.23350  0.00370  Biso   1.000  H
  C124     1.0000 0.40160  0.13640  0.07775  Biso   1.000  C
  H48      1.0000 0.39100  0.08680  0.08920  Biso   1.000  H
  C125     1.0000 0.38730  0.19350  0.09499  Biso   1.000  C
  C126     1.0000 0.35950  0.17970  0.13203  Biso   1.000  C
  C127     1.0000 0.29640  0.10320  0.14300  Biso   1.000  C
  C128     1.0000 0.29530  0.19260  0.14250  Biso   1.000  C
  C129     1.0000 0.39510  0.15110  0.15560  Biso   1.000  C
  H49      1.0000 0.43590  0.13810  0.14800  Biso   1.000  H
  C130     1.0000 0.39500  0.24460  0.15540  Biso   1.000  C
  H50      1.0000 0.43580  0.29850  0.14790  Biso   1.000  H
  N19      1.0000 0.24220  0.21040  0.11920  Biso   1.000  N
  N20      1.0000 0.24320  0.03100  0.11920  Biso   1.000  N
  O37      1.0000 0.48188  0.11033  0.99654  Biso   1.000  O
  O38      1.0000 0.41144  0.96961  0.95600  Biso   1.000  O
  O39      1.0000 0.55823  0.96955  0.95599  Biso   1.000  O
  O40      1.0000 0.62837  0.11021  0.99651  Biso   1.000  O
  Cu10     1.0000 0.52367  0.04729  0.97168  Biso   1.000  Cu
  C131     1.0000 0.30687  0.42603  0.36035  Biso   1.000  C
  C132     1.0000 0.38607  0.48423  0.37732  Biso   1.000  C
  C133     1.0000 0.40147  0.46973  0.41103  Biso   1.000  C
  H51      1.0000 0.36267  0.41993  0.42253  Biso   1.000  H
  C134     1.0000 0.11887  0.42593  0.36035  Biso   1.000  C
  C135     1.0000 0.09797  0.48433  0.37727  Biso   1.000  C
  C136     1.0000 0.11297  0.55663  0.36022  Biso   1.000  C
  H52      1.0000 0.13327  0.56683  0.33703  Biso   1.000  H
  C137     1.0000 0.06827  0.46973  0.41108  Biso   1.000  C
  H53      1.0000 0.05767  0.42013  0.42253  Biso   1.000  H
  C138     1.0000 0.05397  0.52683  0.42832  Biso   1.000  C
  C139     1.0000 0.02617  0.51303  0.46536  Biso   1.000  C
  C140     1.0000 0.96307  0.43653  0.47633  Biso   1.000  C
  C141     1.0000 0.96197  0.52593  0.47583  Biso   1.000  C
  C142     1.0000 0.06177  0.48443  0.48893  Biso   1.000  C
  H54      1.0000 0.10257  0.47143  0.48133  Biso   1.000  H
  C143     1.0000 0.06167  0.57793  0.48873  Biso   1.000  C
  H55      1.0000 0.10247  0.63183  0.48123  Biso   1.000  H
  N21      1.0000 0.90887  0.54373  0.45253  Biso   1.000  N
  N22      1.0000 0.90987  0.36433  0.45253  Biso   1.000  N
  O41      1.0000 0.14855  0.44366  0.32987  Biso   1.000  O
  O42      1.0000 0.07811  0.30294  0.28933  Biso   1.000  O
  O43      1.0000 0.22490  0.30288  0.28932  Biso   1.000  O
  O44      1.0000 0.29504  0.44354  0.32984  Biso   1.000  O
  Cu11     1.0000 0.19034  0.38062  0.30502  Biso   1.000  Cu
  C144     1.0000 0.97353  0.75937  0.69369  Biso   1.000  C
  C145     1.0000 0.05273  0.81757  0.71066  Biso   1.000  C
  C146     1.0000 0.06813  0.80307  0.74437  Biso   1.000  C
  H56      1.0000 0.02933  0.75327  0.75587  Biso   1.000  H
  C147     1.0000 0.78553  0.75927  0.69369  Biso   1.000  C
  C148     1.0000 0.76463  0.81767  0.71061  Biso   1.000  C
  C149     1.0000 0.77963  0.88997  0.69356  Biso   1.000  C
  H57      1.0000 0.79993  0.90017  0.67037  Biso   1.000  H
  C150     1.0000 0.73493  0.80307  0.74442  Biso   1.000  C
  H58      1.0000 0.72433  0.75347  0.75587  Biso   1.000  H
  C151     1.0000 0.72063  0.86017  0.76166  Biso   1.000  C
  C152     1.0000 0.69283  0.84637  0.79870  Biso   1.000  C
  C153     1.0000 0.62973  0.76987  0.80967  Biso   1.000  C
  C154     1.0000 0.62863  0.85927  0.80917  Biso   1.000  C
  C155     1.0000 0.72843  0.81777  0.82227  Biso   1.000  C
  H59      1.0000 0.76923  0.80477  0.81467  Biso   1.000  H
  C156     1.0000 0.72833  0.91127  0.82207  Biso   1.000  C
  H60      1.0000 0.76913  0.96517  0.81457  Biso   1.000  H
  N23      1.0000 0.57553  0.87707  0.78587  Biso   1.000  N
  N24      1.0000 0.57653  0.69767  0.78587  Biso   1.000  N
  O45      1.0000 0.81521  0.77700  0.66321  Biso   1.000  O
  O46      1.0000 0.74477  0.63628  0.62267  Biso   1.000  O
  O47      1.0000 0.89156  0.63622  0.62266  Biso   1.000  O
  O48      1.0000 0.96170  0.77688  0.66318  Biso   1.000  O
  Cu12     1.0000 0.85700  0.71396  0.63835  Biso   1.000  Cu
  C157     1.0000 0.90730  0.54750  0.02702  Biso   1.000  C
  C158     1.0000 0.84910  0.56850  0.04399  Biso   1.000  C
  C159     1.0000 0.86360  0.59840  0.07770  Biso   1.000  C
  H61      1.0000 0.91340  0.60940  0.08920  Biso   1.000  H
  C160     1.0000 0.90740  0.35960  0.02702  Biso   1.000  C
  C161     1.0000 0.84900  0.28030  0.04394  Biso   1.000  C
  C162     1.0000 0.77670  0.22300  0.02689  Biso   1.000  C
  H62      1.0000 0.76650  0.23310  0.00370  Biso   1.000  H
  C163     1.0000 0.86360  0.26520  0.07775  Biso   1.000  C
  H63      1.0000 0.91320  0.30420  0.08920  Biso   1.000  H
  C164     1.0000 0.80650  0.19380  0.09499  Biso   1.000  C
  C165     1.0000 0.82030  0.17980  0.13203  Biso   1.000  C
  C166     1.0000 0.89680  0.19320  0.14300  Biso   1.000  C
  C167     1.0000 0.80740  0.10270  0.14250  Biso   1.000  C
  C168     1.0000 0.84890  0.24400  0.15560  Biso   1.000  C
  H64      1.0000 0.86190  0.29780  0.14800  Biso   1.000  H
  C169     1.0000 0.75540  0.15040  0.15540  Biso   1.000  C
  H65      1.0000 0.70150  0.13730  0.14790  Biso   1.000  H
  N25      1.0000 0.78960  0.03180  0.11920  Biso   1.000  N
  N26      1.0000 0.96900  0.21220  0.11920  Biso   1.000  N
  O49      1.0000 0.88967  0.37155  0.99654  Biso   1.000  O
  O50      1.0000 0.03039  0.44183  0.95600  Biso   1.000  O
  O51      1.0000 0.03045  0.58868  0.95599  Biso   1.000  O
  O52      1.0000 0.88979  0.51816  0.99651  Biso   1.000  O
  Cu13     1.0000 0.95271  0.47638  0.97168  Biso   1.000  Cu
  C170     1.0000 0.57397  0.88083  0.36035  Biso   1.000  C
  C171     1.0000 0.51577  0.90183  0.37732  Biso   1.000  C
  C172     1.0000 0.53027  0.93173  0.41103  Biso   1.000  C
  H66      1.0000 0.58007  0.94273  0.42253  Biso   1.000  H
  C173     1.0000 0.57407  0.69293  0.36035  Biso   1.000  C
  C174     1.0000 0.51567  0.61363  0.37727  Biso   1.000  C
  C175     1.0000 0.44337  0.55633  0.36022  Biso   1.000  C
  H67      1.0000 0.43317  0.56643  0.33703  Biso   1.000  H
  C176     1.0000 0.53027  0.59853  0.41108  Biso   1.000  C
  H68      1.0000 0.57987  0.63753  0.42253  Biso   1.000  H
  C177     1.0000 0.47317  0.52713  0.42832  Biso   1.000  C
  C178     1.0000 0.48697  0.51313  0.46536  Biso   1.000  C
  C179     1.0000 0.56347  0.52653  0.47633  Biso   1.000  C
  C180     1.0000 0.47407  0.43603  0.47583  Biso   1.000  C
  C181     1.0000 0.51557  0.57733  0.48893  Biso   1.000  C
  H69      1.0000 0.52857  0.63113  0.48133  Biso   1.000  H
  C182     1.0000 0.42207  0.48373  0.48873  Biso   1.000  C
  H70      1.0000 0.36817  0.47063  0.48123  Biso   1.000  H
  N27      1.0000 0.45627  0.36513  0.45253  Biso   1.000  N
  N28      1.0000 0.63567  0.54553  0.45253  Biso   1.000  N
  O53      1.0000 0.55634  0.70488  0.32987  Biso   1.000  O
  O54      1.0000 0.69706  0.77516  0.28933  Biso   1.000  O
  O55      1.0000 0.69712  0.92201  0.28932  Biso   1.000  O
  O56      1.0000 0.55646  0.85149  0.32984  Biso   1.000  O
  Cu14     1.0000 0.61938  0.80971  0.30502  Biso   1.000  Cu
  C183     1.0000 0.24063  0.21417  0.69369  Biso   1.000  C
  C184     1.0000 0.18243  0.23517  0.71066  Biso   1.000  C
  C185     1.0000 0.19693  0.26507  0.74437  Biso   1.000  C
  H71      1.0000 0.24673  0.27607  0.75587  Biso   1.000  H
  C186     1.0000 0.24073  0.02627  0.69369  Biso   1.000  C
  C187     1.0000 0.18233  0.94697  0.71061  Biso   1.000  C
  C188     1.0000 0.11003  0.88967  0.69356  Biso   1.000  C
  H72      1.0000 0.09983  0.89977  0.67037  Biso   1.000  H
  C189     1.0000 0.19693  0.93187  0.74442  Biso   1.000  C
  H73      1.0000 0.24653  0.97087  0.75587  Biso   1.000  H
  C190     1.0000 0.13983  0.86047  0.76166  Biso   1.000  C
  C191     1.0000 0.15363  0.84647  0.79870  Biso   1.000  C
  C192     1.0000 0.23013  0.85987  0.80967  Biso   1.000  C
  C193     1.0000 0.14073  0.76937  0.80917  Biso   1.000  C
  C194     1.0000 0.18223  0.91067  0.82227  Biso   1.000  C
  H74      1.0000 0.19523  0.96447  0.81467  Biso   1.000  H
  C195     1.0000 0.08873  0.81707  0.82207  Biso   1.000  C
  H75      1.0000 0.03483  0.80397  0.81457  Biso   1.000  H
  N29      1.0000 0.12293  0.69847  0.78587  Biso   1.000  N
  N30      1.0000 0.30233  0.87887  0.78587  Biso   1.000  N
  O57      1.0000 0.22300  0.03822  0.66321  Biso   1.000  O
  O58      1.0000 0.36372  0.10850  0.62267  Biso   1.000  O
  O59      1.0000 0.36378  0.25535  0.62266  Biso   1.000  O
  O60      1.0000 0.22312  0.18483  0.66318  Biso   1.000  O
  Cu15     1.0000 0.28604  0.14305  0.63835  Biso   1.000  Cu
  C196     1.0000 0.45250  0.35980  0.02702  Biso   1.000  C
  C197     1.0000 0.43150  0.28060  0.04399  Biso   1.000  C
  C198     1.0000 0.40160  0.26520  0.07770  Biso   1.000  C
  H76      1.0000 0.39060  0.30400  0.08920  Biso   1.000  H
  C199     1.0000 0.64040  0.54780  0.02702  Biso   1.000  C
  C200     1.0000 0.71970  0.56870  0.04394  Biso   1.000  C
  C201     1.0000 0.77700  0.55370  0.02689  Biso   1.000  C
  H77      1.0000 0.76690  0.53340  0.00370  Biso   1.000  H
  C202     1.0000 0.73480  0.59840  0.07775  Biso   1.000  C
  H78      1.0000 0.69580  0.60900  0.08920  Biso   1.000  H
  C203     1.0000 0.80620  0.61270  0.09499  Biso   1.000  C
  C204     1.0000 0.82020  0.64050  0.13203  Biso   1.000  C
  C205     1.0000 0.80680  0.70360  0.14300  Biso   1.000  C
  C206     1.0000 0.89730  0.70470  0.14250  Biso   1.000  C
  C207     1.0000 0.75600  0.60490  0.15560  Biso   1.000  C
  H79      1.0000 0.70220  0.56410  0.14800  Biso   1.000  H
  C208     1.0000 0.84960  0.60500  0.15540  Biso   1.000  C
  H80      1.0000 0.86270  0.56420  0.14790  Biso   1.000  H
  N31      1.0000 0.96820  0.75780  0.11920  Biso   1.000  N
  N32      1.0000 0.78780  0.75680  0.11920  Biso   1.000  N
  O61      1.0000 0.62845  0.51812  0.99654  Biso   1.000  O
  O62      1.0000 0.55817  0.58856  0.95600  Biso   1.000  O
  O63      1.0000 0.41132  0.44177  0.95599  Biso   1.000  O
  O64      1.0000 0.48184  0.37163  0.99651  Biso   1.000  O
  Cu16     1.0000 0.52362  0.47633  0.97168  Biso   1.000  Cu
  C209     1.0000 0.11917  0.69313  0.36035  Biso   1.000  C
  C210     1.0000 0.09817  0.61393  0.37732  Biso   1.000  C
  C211     1.0000 0.06827  0.59853  0.41103  Biso   1.000  C
  H81      1.0000 0.05727  0.63733  0.42253  Biso   1.000  H
  C212     1.0000 0.30707  0.88113  0.36035  Biso   1.000  C
  C213     1.0000 0.38637  0.90203  0.37727  Biso   1.000  C
  C214     1.0000 0.44367  0.88703  0.36022  Biso   1.000  C
  H82      1.0000 0.43357  0.86673  0.33703  Biso   1.000  H
  C215     1.0000 0.40147  0.93173  0.41108  Biso   1.000  C
  H83      1.0000 0.36247  0.94233  0.42253  Biso   1.000  H
  C216     1.0000 0.47287  0.94603  0.42832  Biso   1.000  C
  C217     1.0000 0.48687  0.97383  0.46536  Biso   1.000  C
  C218     1.0000 0.47347  0.03693  0.47633  Biso   1.000  C
  C219     1.0000 0.56397  0.03803  0.47583  Biso   1.000  C
  C220     1.0000 0.42267  0.93823  0.48893  Biso   1.000  C
  H84      1.0000 0.36887  0.89743  0.48133  Biso   1.000  H
  C221     1.0000 0.51627  0.93833  0.48873  Biso   1.000  C
  H85      1.0000 0.52937  0.89753  0.48123  Biso   1.000  H
  N33      1.0000 0.63487  0.09113  0.45253  Biso   1.000  N
  N34      1.0000 0.45447  0.09013  0.45253  Biso   1.000  N
  O65      1.0000 0.29512  0.85145  0.32987  Biso   1.000  O
  O66      1.0000 0.22484  0.92189  0.28933  Biso   1.000  O
  O67      1.0000 0.07799  0.77510  0.28932  Biso   1.000  O
  O68      1.0000 0.14851  0.70496  0.32984  Biso   1.000  O
  Cu17     1.0000 0.19029  0.80966  0.30502  Biso   1.000  Cu
  C222     1.0000 0.78583  0.02647  0.69369  Biso   1.000  C
  C223     1.0000 0.76483  0.94727  0.71066  Biso   1.000  C
  C224     1.0000 0.73493  0.93187  0.74437  Biso   1.000  C
  H86      1.0000 0.72393  0.97067  0.75587  Biso   1.000  H
  C225     1.0000 0.97373  0.21447  0.69369  Biso   1.000  C
  C226     1.0000 0.05303  0.23537  0.71061  Biso   1.000  C
  C227     1.0000 0.11033  0.22037  0.69356  Biso   1.000  C
  H87      1.0000 0.10023  0.20007  0.67037  Biso   1.000  H
  C228     1.0000 0.06813  0.26507  0.74442  Biso   1.000  C
  H88      1.0000 0.02913  0.27567  0.75587  Biso   1.000  H
  C229     1.0000 0.13953  0.27937  0.76166  Biso   1.000  C
  C230     1.0000 0.15353  0.30717  0.79870  Biso   1.000  C
  C231     1.0000 0.14013  0.37027  0.80967  Biso   1.000  C
  C232     1.0000 0.23063  0.37137  0.80917  Biso   1.000  C
  C233     1.0000 0.08933  0.27157  0.82227  Biso   1.000  C
  H89      1.0000 0.03553  0.23077  0.81467  Biso   1.000  H
  C234     1.0000 0.18293  0.27167  0.82207  Biso   1.000  C
  H90      1.0000 0.19603  0.23087  0.81457  Biso   1.000  H
  N35      1.0000 0.30153  0.42447  0.78587  Biso   1.000  N
  N36      1.0000 0.12113  0.42347  0.78587  Biso   1.000  N
  O69      1.0000 0.96178  0.18479  0.66321  Biso   1.000  O
  O70      1.0000 0.89150  0.25523  0.62267  Biso   1.000  O
  O71      1.0000 0.74465  0.10844  0.62266  Biso   1.000  O
  O72      1.0000 0.81517  0.03830  0.66318  Biso   1.000  O
  Cu18     1.0000 0.85695  0.14300  0.63835  Biso   1.000  Cu
