data_image0
_cell_length_a       17.0192
_cell_length_b       27.796
_cell_length_c       9.3238
_cell_angle_alpha    90
_cell_angle_beta     90
_cell_angle_gamma    90

_symmetry_space_group_name_H-M    "P 1"
_symmetry_int_tables_number       1

loop_
  _symmetry_equiv_pos_as_xyz
  'x, y, z'

loop_
  _atom_site_label
  _atom_site_occupancy
  _atom_site_fract_x
  _atom_site_fract_y
  _atom_site_fract_z
  _atom_site_thermal_displace_type
  _atom_site_B_iso_or_equiv
  _atom_site_type_symbol
  O1       1.0000 0.51180  0.23014  0.13400  Biso   1.000  O
  O2       1.0000 0.90330  0.82450  0.13180  Biso   1.000  O
  C1       1.0000 0.70060  0.90900  0.12970  Biso   1.000  C
  H1       1.0000 0.68800  0.93070  0.05720  Biso   1.000  H
  C2       1.0000 0.77000  0.88340  0.12450  Biso   1.000  C
  H2       1.0000 0.80120  0.88380  0.04270  Biso   1.000  H
  C3       1.0000 0.74020  0.84750  0.15750  Biso   1.000  C
  H3       1.0000 0.74990  0.82370  0.08970  Biso   1.000  H
  C4       1.0000 0.67100  0.87080  0.15140  Biso   1.000  C
  H4       1.0000 0.63820  0.86480  0.07370  Biso   1.000  H
  O3       1.0000 0.01180  0.73014  0.13400  Biso   1.000  O
  O4       1.0000 0.40330  0.32450  0.13180  Biso   1.000  O
  C5       1.0000 0.20060  0.40900  0.12970  Biso   1.000  C
  H5       1.0000 0.18800  0.43070  0.05720  Biso   1.000  H
  C6       1.0000 0.27000  0.38340  0.12450  Biso   1.000  C
  H6       1.0000 0.30120  0.38380  0.04270  Biso   1.000  H
  C7       1.0000 0.24020  0.34750  0.15750  Biso   1.000  C
  H7       1.0000 0.24990  0.32370  0.08970  Biso   1.000  H
  C8       1.0000 0.17100  0.37080  0.15140  Biso   1.000  C
  H8       1.0000 0.13820  0.36480  0.07370  Biso   1.000  H
  O5       1.0000 0.48820  0.23014  0.36600  Biso   1.000  O
  O6       1.0000 0.09670  0.82450  0.36820  Biso   1.000  O
  C9       1.0000 0.29940  0.90900  0.37030  Biso   1.000  C
  H9       1.0000 0.31200  0.93070  0.44280  Biso   1.000  H
  C10      1.0000 0.23000  0.88340  0.37550  Biso   1.000  C
  H10      1.0000 0.19880  0.88380  0.45730  Biso   1.000  H
  C11      1.0000 0.25980  0.84750  0.34250  Biso   1.000  C
  H11      1.0000 0.25010  0.82370  0.41030  Biso   1.000  H
  C12      1.0000 0.32900  0.87080  0.34860  Biso   1.000  C
  H12      1.0000 0.36180  0.86480  0.42630  Biso   1.000  H
  O7       1.0000 0.98820  0.73014  0.36600  Biso   1.000  O
  O8       1.0000 0.59670  0.32450  0.36820  Biso   1.000  O
  C13      1.0000 0.79940  0.40900  0.37030  Biso   1.000  C
  H13      1.0000 0.81200  0.43070  0.44280  Biso   1.000  H
  C14      1.0000 0.73000  0.38340  0.37550  Biso   1.000  C
  H14      1.0000 0.69880  0.38380  0.45730  Biso   1.000  H
  C15      1.0000 0.75980  0.34750  0.34250  Biso   1.000  C
  H15      1.0000 0.75010  0.32370  0.41030  Biso   1.000  H
  C16      1.0000 0.82900  0.37080  0.34860  Biso   1.000  C
  H16      1.0000 0.86180  0.36480  0.42630  Biso   1.000  H
  O9       1.0000 0.51180  0.23014  0.36600  Biso   1.000  O
  O10      1.0000 0.90330  0.82450  0.36820  Biso   1.000  O
  C17      1.0000 0.70060  0.90900  0.37030  Biso   1.000  C
  H17      1.0000 0.68800  0.93070  0.44280  Biso   1.000  H
  C18      1.0000 0.77000  0.88340  0.37550  Biso   1.000  C
  H18      1.0000 0.80120  0.88380  0.45730  Biso   1.000  H
  C19      1.0000 0.74020  0.84750  0.34250  Biso   1.000  C
  H19      1.0000 0.74990  0.82370  0.41030  Biso   1.000  H
  C20      1.0000 0.67100  0.87080  0.34860  Biso   1.000  C
  H20      1.0000 0.63820  0.86480  0.42630  Biso   1.000  H
  O11      1.0000 0.01180  0.73014  0.36600  Biso   1.000  O
  O12      1.0000 0.40330  0.32450  0.36820  Biso   1.000  O
  C21      1.0000 0.20060  0.40900  0.37030  Biso   1.000  C
  H21      1.0000 0.18800  0.43070  0.44280  Biso   1.000  H
  C22      1.0000 0.27000  0.38340  0.37550  Biso   1.000  C
  H22      1.0000 0.30120  0.38380  0.45730  Biso   1.000  H
  C23      1.0000 0.24020  0.34750  0.34250  Biso   1.000  C
  H23      1.0000 0.24990  0.32370  0.41030  Biso   1.000  H
  C24      1.0000 0.17100  0.37080  0.34860  Biso   1.000  C
  H24      1.0000 0.13820  0.36480  0.42630  Biso   1.000  H
  O13      1.0000 0.48820  0.23014  0.13400  Biso   1.000  O
  O14      1.0000 0.09670  0.82450  0.13180  Biso   1.000  O
  C25      1.0000 0.29940  0.90900  0.12970  Biso   1.000  C
  H25      1.0000 0.31200  0.93070  0.05720  Biso   1.000  H
  C26      1.0000 0.23000  0.88340  0.12450  Biso   1.000  C
  H26      1.0000 0.19880  0.88380  0.04270  Biso   1.000  H
  C27      1.0000 0.25980  0.84750  0.15750  Biso   1.000  C
  H27      1.0000 0.25010  0.82370  0.08970  Biso   1.000  H
  C28      1.0000 0.32900  0.87080  0.15140  Biso   1.000  C
  H28      1.0000 0.36180  0.86480  0.07370  Biso   1.000  H
  O15      1.0000 0.98820  0.73014  0.13400  Biso   1.000  O
  O16      1.0000 0.59670  0.32450  0.13180  Biso   1.000  O
  C29      1.0000 0.79940  0.40900  0.12970  Biso   1.000  C
  H29      1.0000 0.81200  0.43070  0.05720  Biso   1.000  H
  C30      1.0000 0.73000  0.38340  0.12450  Biso   1.000  C
  H30      1.0000 0.69880  0.38380  0.04270  Biso   1.000  H
  C31      1.0000 0.75980  0.34750  0.15750  Biso   1.000  C
  H31      1.0000 0.75010  0.32370  0.08970  Biso   1.000  H
  C32      1.0000 0.82900  0.37080  0.15140  Biso   1.000  C
  H32      1.0000 0.86180  0.36480  0.07370  Biso   1.000  H
  Zn1      1.0000 0.00000  0.79807  0.07129  Biso   1.000  Zn
  N1       1.0000 0.00000  0.78850  0.87110  Biso   1.000  N
  Zn2      1.0000 0.50000  0.29807  0.07129  Biso   1.000  Zn
  N2       1.0000 0.50000  0.28850  0.87110  Biso   1.000  N
  Zn3      1.0000 0.00000  0.79807  0.42871  Biso   1.000  Zn
  N3       1.0000 0.00000  0.78850  0.62890  Biso   1.000  N
  Zn4      1.0000 0.50000  0.29807  0.42871  Biso   1.000  Zn
  N4       1.0000 0.50000  0.28850  0.62890  Biso   1.000  N
  C33      1.0000 0.00000  0.80190  0.75000  Biso   1.000  C
  C34      1.0000 0.50000  0.30190  0.75000  Biso   1.000  C
  C35      1.0000 0.50000  0.90270  0.25000  Biso   1.000  C
  C36      1.0000 0.50000  0.00250  0.25000  Biso   1.000  C
  C37      1.0000 0.50000  0.05570  0.25000  Biso   1.000  C
  C38      1.0000 0.50000  0.20980  0.25000  Biso   1.000  C
  C39      1.0000 0.50000  0.15610  0.25000  Biso   1.000  C
  N5       1.0000 0.50000  0.85850  0.25000  Biso   1.000  N
  C40      1.0000 0.00000  0.40270  0.25000  Biso   1.000  C
  C41      1.0000 0.00000  0.50250  0.25000  Biso   1.000  C
  C42      1.0000 0.00000  0.55570  0.25000  Biso   1.000  C
  C43      1.0000 0.00000  0.70980  0.25000  Biso   1.000  C
  C44      1.0000 0.00000  0.65610  0.25000  Biso   1.000  C
  N6       1.0000 0.00000  0.35850  0.25000  Biso   1.000  N
  C45      1.0000 0.50000  0.08060  0.12310  Biso   1.000  C
  H33      1.0000 0.50000  0.06400  0.03650  Biso   1.000  H
  C46      1.0000 0.50000  0.13030  0.12380  Biso   1.000  C
  H34      1.0000 0.50000  0.14680  0.03690  Biso   1.000  H
  C47      1.0000 0.00000  0.58060  0.12310  Biso   1.000  C
  H35      1.0000 0.00000  0.56400  0.03650  Biso   1.000  H
  C48      1.0000 0.00000  0.63030  0.12380  Biso   1.000  C
  H36      1.0000 0.00000  0.64680  0.03690  Biso   1.000  H
  C49      1.0000 0.50000  0.08060  0.37690  Biso   1.000  C
  H37      1.0000 0.50000  0.06400  0.46350  Biso   1.000  H
  C50      1.0000 0.50000  0.13030  0.37620  Biso   1.000  C
  H38      1.0000 0.50000  0.14680  0.46310  Biso   1.000  H
  C51      1.0000 0.00000  0.58060  0.37690  Biso   1.000  C
  H39      1.0000 0.00000  0.56400  0.46350  Biso   1.000  H
  C52      1.0000 0.00000  0.63030  0.37620  Biso   1.000  C
  H40      1.0000 0.00000  0.64680  0.46310  Biso   1.000  H
  C53      1.0000 0.57040  0.92730  0.25000  Biso   1.000  C
  C54      1.0000 0.57160  0.97730  0.25000  Biso   1.000  C
  C55      1.0000 0.64700  0.90180  0.25000  Biso   1.000  C
  C56      1.0000 0.79300  0.85600  0.25000  Biso   1.000  C
  C57      1.0000 0.87080  0.83210  0.25000  Biso   1.000  C
  N7       1.0000 0.64310  0.00410  0.25000  Biso   1.000  N
  C58      1.0000 0.07040  0.42730  0.25000  Biso   1.000  C
  C59      1.0000 0.07160  0.47730  0.25000  Biso   1.000  C
  C60      1.0000 0.14700  0.40180  0.25000  Biso   1.000  C
  C61      1.0000 0.29300  0.35600  0.25000  Biso   1.000  C
  C62      1.0000 0.37080  0.33210  0.25000  Biso   1.000  C
  N8       1.0000 0.14310  0.50410  0.25000  Biso   1.000  N
  C63      1.0000 0.42960  0.92730  0.25000  Biso   1.000  C
  C64      1.0000 0.42840  0.97730  0.25000  Biso   1.000  C
  C65      1.0000 0.35300  0.90180  0.25000  Biso   1.000  C
  C66      1.0000 0.20700  0.85600  0.25000  Biso   1.000  C
  C67      1.0000 0.12920  0.83210  0.25000  Biso   1.000  C
  N9       1.0000 0.35690  0.00410  0.25000  Biso   1.000  N
  C68      1.0000 0.92960  0.42730  0.25000  Biso   1.000  C
  C69      1.0000 0.92840  0.47730  0.25000  Biso   1.000  C
  C70      1.0000 0.85300  0.40180  0.25000  Biso   1.000  C
  C71      1.0000 0.70700  0.35600  0.25000  Biso   1.000  C
  C72      1.0000 0.62920  0.33210  0.25000  Biso   1.000  C
  N10      1.0000 0.85690  0.50410  0.25000  Biso   1.000  N
  O17      1.0000 0.48820  0.76986  0.63400  Biso   1.000  O
  O18      1.0000 0.09670  0.17550  0.63180  Biso   1.000  O
  C73      1.0000 0.29940  0.09100  0.62970  Biso   1.000  C
  H41      1.0000 0.31200  0.06930  0.55720  Biso   1.000  H
  C74      1.0000 0.23000  0.11660  0.62450  Biso   1.000  C
  H42      1.0000 0.19880  0.11620  0.54270  Biso   1.000  H
  C75      1.0000 0.25980  0.15250  0.65750  Biso   1.000  C
  H43      1.0000 0.25010  0.17630  0.58970  Biso   1.000  H
  C76      1.0000 0.32900  0.12920  0.65140  Biso   1.000  C
  H44      1.0000 0.36180  0.13520  0.57370  Biso   1.000  H
  O19      1.0000 0.98820  0.26986  0.63400  Biso   1.000  O
  O20      1.0000 0.59670  0.67550  0.63180  Biso   1.000  O
  C77      1.0000 0.79940  0.59100  0.62970  Biso   1.000  C
  H45      1.0000 0.81200  0.56930  0.55720  Biso   1.000  H
  C78      1.0000 0.73000  0.61660  0.62450  Biso   1.000  C
  H46      1.0000 0.69880  0.61620  0.54270  Biso   1.000  H
  C79      1.0000 0.75980  0.65250  0.65750  Biso   1.000  C
  H47      1.0000 0.75010  0.67630  0.58970  Biso   1.000  H
  C80      1.0000 0.82900  0.62920  0.65140  Biso   1.000  C
  H48      1.0000 0.86180  0.63520  0.57370  Biso   1.000  H
  O21      1.0000 0.51180  0.76986  0.86600  Biso   1.000  O
  O22      1.0000 0.90330  0.17550  0.86820  Biso   1.000  O
  C81      1.0000 0.70060  0.09100  0.87030  Biso   1.000  C
  H49      1.0000 0.68800  0.06930  0.94280  Biso   1.000  H
  C82      1.0000 0.77000  0.11660  0.87550  Biso   1.000  C
  H50      1.0000 0.80120  0.11620  0.95730  Biso   1.000  H
  C83      1.0000 0.74020  0.15250  0.84250  Biso   1.000  C
  H51      1.0000 0.74990  0.17630  0.91030  Biso   1.000  H
  C84      1.0000 0.67100  0.12920  0.84860  Biso   1.000  C
  H52      1.0000 0.63820  0.13520  0.92630  Biso   1.000  H
  O23      1.0000 0.01180  0.26986  0.86600  Biso   1.000  O
  O24      1.0000 0.40330  0.67550  0.86820  Biso   1.000  O
  C85      1.0000 0.20060  0.59100  0.87030  Biso   1.000  C
  H53      1.0000 0.18800  0.56930  0.94280  Biso   1.000  H
  C86      1.0000 0.27000  0.61660  0.87550  Biso   1.000  C
  H54      1.0000 0.30120  0.61620  0.95730  Biso   1.000  H
  C87      1.0000 0.24020  0.65250  0.84250  Biso   1.000  C
  H55      1.0000 0.24990  0.67630  0.91030  Biso   1.000  H
  C88      1.0000 0.17100  0.62920  0.84860  Biso   1.000  C
  H56      1.0000 0.13820  0.63520  0.92630  Biso   1.000  H
  O25      1.0000 0.48820  0.76986  0.86600  Biso   1.000  O
  O26      1.0000 0.09670  0.17550  0.86820  Biso   1.000  O
  C89      1.0000 0.29940  0.09100  0.87030  Biso   1.000  C
  H57      1.0000 0.31200  0.06930  0.94280  Biso   1.000  H
  C90      1.0000 0.23000  0.11660  0.87550  Biso   1.000  C
  H58      1.0000 0.19880  0.11620  0.95730  Biso   1.000  H
  C91      1.0000 0.25980  0.15250  0.84250  Biso   1.000  C
  H59      1.0000 0.25010  0.17630  0.91030  Biso   1.000  H
  C92      1.0000 0.32900  0.12920  0.84860  Biso   1.000  C
  H60      1.0000 0.36180  0.13520  0.92630  Biso   1.000  H
  O27      1.0000 0.98820  0.26986  0.86600  Biso   1.000  O
  O28      1.0000 0.59670  0.67550  0.86820  Biso   1.000  O
  C93      1.0000 0.79940  0.59100  0.87030  Biso   1.000  C
  H61      1.0000 0.81200  0.56930  0.94280  Biso   1.000  H
  C94      1.0000 0.73000  0.61660  0.87550  Biso   1.000  C
  H62      1.0000 0.69880  0.61620  0.95730  Biso   1.000  H
  C95      1.0000 0.75980  0.65250  0.84250  Biso   1.000  C
  H63      1.0000 0.75010  0.67630  0.91030  Biso   1.000  H
  C96      1.0000 0.82900  0.62920  0.84860  Biso   1.000  C
  H64      1.0000 0.86180  0.63520  0.92630  Biso   1.000  H
  O29      1.0000 0.51180  0.76986  0.63400  Biso   1.000  O
  O30      1.0000 0.90330  0.17550  0.63180  Biso   1.000  O
  C97      1.0000 0.70060  0.09100  0.62970  Biso   1.000  C
  H65      1.0000 0.68800  0.06930  0.55720  Biso   1.000  H
  C98      1.0000 0.77000  0.11660  0.62450  Biso   1.000  C
  H66      1.0000 0.80120  0.11620  0.54270  Biso   1.000  H
  C99      1.0000 0.74020  0.15250  0.65750  Biso   1.000  C
  H67      1.0000 0.74990  0.17630  0.58970  Biso   1.000  H
  C100     1.0000 0.67100  0.12920  0.65140  Biso   1.000  C
  H68      1.0000 0.63820  0.13520  0.57370  Biso   1.000  H
  O31      1.0000 0.01180  0.26986  0.63400  Biso   1.000  O
  O32      1.0000 0.40330  0.67550  0.63180  Biso   1.000  O
  C101     1.0000 0.20060  0.59100  0.62970  Biso   1.000  C
  H69      1.0000 0.18800  0.56930  0.55720  Biso   1.000  H
  C102     1.0000 0.27000  0.61660  0.62450  Biso   1.000  C
  H70      1.0000 0.30120  0.61620  0.54270  Biso   1.000  H
  C103     1.0000 0.24020  0.65250  0.65750  Biso   1.000  C
  H71      1.0000 0.24990  0.67630  0.58970  Biso   1.000  H
  C104     1.0000 0.17100  0.62920  0.65140  Biso   1.000  C
  H72      1.0000 0.13820  0.63520  0.57370  Biso   1.000  H
  Zn5      1.0000 0.00000  0.20193  0.57129  Biso   1.000  Zn
  N11      1.0000 0.00000  0.21150  0.37110  Biso   1.000  N
  Zn6      1.0000 0.50000  0.70193  0.57129  Biso   1.000  Zn
  N12      1.0000 0.50000  0.71150  0.37110  Biso   1.000  N
  Zn7      1.0000 0.00000  0.20193  0.92871  Biso   1.000  Zn
  N13      1.0000 0.00000  0.21150  0.12890  Biso   1.000  N
  Zn8      1.0000 0.50000  0.70193  0.92871  Biso   1.000  Zn
  N14      1.0000 0.50000  0.71150  0.12890  Biso   1.000  N
  C105     1.0000 0.00000  0.19810  0.25000  Biso   1.000  C
  C106     1.0000 0.50000  0.69810  0.25000  Biso   1.000  C
  C107     1.0000 0.50000  0.09730  0.75000  Biso   1.000  C
  C108     1.0000 0.50000  0.99750  0.75000  Biso   1.000  C
  C109     1.0000 0.50000  0.94430  0.75000  Biso   1.000  C
  C110     1.0000 0.50000  0.79020  0.75000  Biso   1.000  C
  C111     1.0000 0.50000  0.84390  0.75000  Biso   1.000  C
  N15      1.0000 0.50000  0.14150  0.75000  Biso   1.000  N
  C112     1.0000 0.00000  0.59730  0.75000  Biso   1.000  C
  C113     1.0000 0.00000  0.49750  0.75000  Biso   1.000  C
  C114     1.0000 0.00000  0.44430  0.75000  Biso   1.000  C
  C115     1.0000 0.00000  0.29020  0.75000  Biso   1.000  C
  C116     1.0000 0.00000  0.34390  0.75000  Biso   1.000  C
  N16      1.0000 0.00000  0.64150  0.75000  Biso   1.000  N
  C117     1.0000 0.50000  0.91940  0.62310  Biso   1.000  C
  H73      1.0000 0.50000  0.93600  0.53650  Biso   1.000  H
  C118     1.0000 0.50000  0.86970  0.62380  Biso   1.000  C
  H74      1.0000 0.50000  0.85320  0.53690  Biso   1.000  H
  C119     1.0000 0.00000  0.41940  0.62310  Biso   1.000  C
  H75      1.0000 0.00000  0.43600  0.53650  Biso   1.000  H
  C120     1.0000 0.00000  0.36970  0.62380  Biso   1.000  C
  H76      1.0000 0.00000  0.35320  0.53690  Biso   1.000  H
  C121     1.0000 0.50000  0.91940  0.87690  Biso   1.000  C
  H77      1.0000 0.50000  0.93600  0.96350  Biso   1.000  H
  C122     1.0000 0.50000  0.86970  0.87620  Biso   1.000  C
  H78      1.0000 0.50000  0.85320  0.96310  Biso   1.000  H
  C123     1.0000 0.00000  0.41940  0.87690  Biso   1.000  C
  H79      1.0000 0.00000  0.43600  0.96350  Biso   1.000  H
  C124     1.0000 0.00000  0.36970  0.87620  Biso   1.000  C
  H80      1.0000 0.00000  0.35320  0.96310  Biso   1.000  H
  C125     1.0000 0.42960  0.07270  0.75000  Biso   1.000  C
  C126     1.0000 0.42840  0.02270  0.75000  Biso   1.000  C
  C127     1.0000 0.35300  0.09820  0.75000  Biso   1.000  C
  C128     1.0000 0.20700  0.14400  0.75000  Biso   1.000  C
  C129     1.0000 0.12920  0.16790  0.75000  Biso   1.000  C
  N17      1.0000 0.35690  0.99590  0.75000  Biso   1.000  N
  C130     1.0000 0.92960  0.57270  0.75000  Biso   1.000  C
  C131     1.0000 0.92840  0.52270  0.75000  Biso   1.000  C
  C132     1.0000 0.85300  0.59820  0.75000  Biso   1.000  C
  C133     1.0000 0.70700  0.64400  0.75000  Biso   1.000  C
  C134     1.0000 0.62920  0.66790  0.75000  Biso   1.000  C
  N18      1.0000 0.85690  0.49590  0.75000  Biso   1.000  N
  C135     1.0000 0.57040  0.07270  0.75000  Biso   1.000  C
  C136     1.0000 0.57160  0.02270  0.75000  Biso   1.000  C
  C137     1.0000 0.64700  0.09820  0.75000  Biso   1.000  C
  C138     1.0000 0.79300  0.14400  0.75000  Biso   1.000  C
  C139     1.0000 0.87080  0.16790  0.75000  Biso   1.000  C
  N19      1.0000 0.64310  0.99590  0.75000  Biso   1.000  N
  C140     1.0000 0.07040  0.57270  0.75000  Biso   1.000  C
  C141     1.0000 0.07160  0.52270  0.75000  Biso   1.000  C
  C142     1.0000 0.14700  0.59820  0.75000  Biso   1.000  C
  C143     1.0000 0.29300  0.64400  0.75000  Biso   1.000  C
  C144     1.0000 0.37080  0.66790  0.75000  Biso   1.000  C
  N20      1.0000 0.14310  0.49590  0.75000  Biso   1.000  N
