data_image0
_cell_length_a       10.6546
_cell_length_b       10.6545
_cell_length_c       9.1303
_cell_angle_alpha    89.9957
_cell_angle_beta     89.9997
_cell_angle_gamma    84.4844

_symmetry_space_group_name_H-M    "P 1"
_symmetry_int_tables_number       1

loop_
  _symmetry_equiv_pos_as_xyz
  'x, y, z'

loop_
  _atom_site_label
  _atom_site_occupancy
  _atom_site_fract_x
  _atom_site_fract_y
  _atom_site_fract_z
  _atom_site_thermal_displace_type
  _atom_site_B_iso_or_equiv
  _atom_site_type_symbol
  O1       1.0000 0.66784  0.17640  0.87831  Biso   1.000  O
  O2       1.0000 0.30236  0.19320  0.87828  Biso   1.000  O
  O3       1.0000 0.49350  0.00206  0.87831  Biso   1.000  O
  O4       1.0000 0.47669  0.36754  0.87829  Biso   1.000  O
  O5       1.0000 0.49349  0.00206  0.12191  Biso   1.000  O
  O6       1.0000 0.30235  0.19320  0.12188  Biso   1.000  O
  O7       1.0000 0.66783  0.17639  0.12191  Biso   1.000  O
  Cu1      1.0000 0.48508  0.18480  0.14414  Biso   1.000  Cu
  Cu2      1.0000 0.48510  0.18480  0.85605  Biso   1.000  Cu
  O8       1.0000 0.47668  0.36754  0.12189  Biso   1.000  O
  C1       1.0000 0.25555  0.19197  0.00008  Biso   1.000  C
  C2       1.0000 0.11611  0.18828  0.00007  Biso   1.000  C
  C3       1.0000 0.03662  0.30082  0.00007  Biso   1.000  C
  C4       1.0000 0.90560  0.29734  0.00009  Biso   1.000  C
  C5       1.0000 0.93357  0.06877  0.00012  Biso   1.000  C
  C6       1.0000 0.06459  0.07225  0.00010  Biso   1.000  C
  C7       1.0000 0.49226  0.95526  0.00011  Biso   1.000  C
  C8       1.0000 0.48857  0.81582  0.00010  Biso   1.000  C
  C9       1.0000 0.71714  0.78785  0.00014  Biso   1.000  C
  C10      1.0000 0.82968  0.70835  0.00016  Biso   1.000  C
  C11      1.0000 0.82620  0.57734  0.00015  Biso   1.000  C
  C12      1.0000 0.71017  0.52581  0.00012  Biso   1.000  C
  C13      1.0000 0.59763  0.60530  0.00010  Biso   1.000  C
  C14      1.0000 0.60112  0.73632  0.00011  Biso   1.000  C
  C15      1.0000 0.36907  0.63328  0.00006  Biso   1.000  C
  C16      1.0000 0.37254  0.76429  0.00007  Biso   1.000  C
  C17      1.0000 0.25304  0.58175  0.00003  Biso   1.000  C
  C18      1.0000 0.14049  0.66124  0.00002  Biso   1.000  C
  C19      1.0000 0.14397  0.79227  0.00002  Biso   1.000  C
  C20      1.0000 0.26000  0.84379  0.00005  Biso   1.000  C
  C21      1.0000 0.71463  0.17763  0.00011  Biso   1.000  C
  C22      1.0000 0.85407  0.18132  0.00011  Biso   1.000  C
  C23      1.0000 0.47792  0.41434  0.00009  Biso   1.000  C
  C24      1.0000 0.48161  0.55378  0.00008  Biso   1.000  C
  N1       1.0000 0.48508  0.18479  0.34676  Biso   1.000  N
  N2       1.0000 0.48511  0.18480  0.65343  Biso   1.000  N
  C25      1.0000 0.56975  0.10019  0.42342  Biso   1.000  C
  C26      1.0000 0.56976  0.10019  0.57676  Biso   1.000  C
  C27      1.0000 0.40043  0.26940  0.57676  Biso   1.000  C
  C28      1.0000 0.40042  0.26940  0.42343  Biso   1.000  C
  H1       1.0000 0.12931  0.98060  0.00011  Biso   1.000  H
  Br1      1.0000 0.98714  0.77829  0.00018  Biso   1.000  Br
  Br2      1.0000 0.98304  0.59131  0.99995  Biso   1.000  Br
  H2       1.0000 0.33150  0.33829  0.63920  Biso   1.000  H
  H3       1.0000 0.33146  0.33829  0.36100  Biso   1.000  H
  Br3      1.0000 0.10655  0.45828  0.00003  Biso   1.000  Br
  H4       1.0000 0.84089  0.38899  0.00009  Biso   1.000  H
  Br4      1.0000 0.86364  0.91131  0.00015  Biso   1.000  Br
  Br5      1.0000 0.97894  0.46944  0.00016  Biso   1.000  Br
  Br6      1.0000 0.70546  0.34800  0.00000  Biso   1.000  Br
  Br7      1.0000 0.72186  0.96566  0.00019  Biso   1.000  Br
  H5       1.0000 0.25022  0.47507  0.00002  Biso   1.000  H
  Br8      1.0000 0.99123  0.90015  0.99998  Biso   1.000  Br
  Br9      1.0000 0.26473  0.02160  0.00008  Biso   1.000  Br
  H6       1.0000 0.63870  0.03130  0.63917  Biso   1.000  H
  H7       1.0000 0.63869  0.03129  0.36101  Biso   1.000  H
