data_image0
_cell_length_a       17.066
_cell_length_b       17.066
_cell_length_c       14.625
_cell_angle_alpha    90
_cell_angle_beta     90
_cell_angle_gamma    90

_symmetry_space_group_name_H-M    "P 1"
_symmetry_int_tables_number       1

loop_
  _symmetry_equiv_pos_as_xyz
  'x, y, z'

loop_
  _atom_site_label
  _atom_site_occupancy
  _atom_site_fract_x
  _atom_site_fract_y
  _atom_site_fract_z
  _atom_site_thermal_displace_type
  _atom_site_B_iso_or_equiv
  _atom_site_type_symbol
  V1       1.0000 0.38949  0.37923  0.62762  Biso   1.000  V
  V2       1.0000 0.46786  0.31311  0.41377  Biso   1.000  V
  V3       1.0000 0.57029  0.43535  0.73354  Biso   1.000  V
  V4       1.0000 0.55121  0.31810  0.58822  Biso   1.000  V
  C1       1.0000 0.30520  0.16290  0.57050  Biso   1.000  C
  H1       1.0000 0.31770  0.21340  0.55130  Biso   1.000  H
  C2       1.0000 0.30580  0.10530  0.50830  Biso   1.000  C
  H2       1.0000 0.31570  0.11770  0.44750  Biso   1.000  H
  C3       1.0000 0.29240  0.02920  0.53110  Biso   1.000  C
  C4       1.0000 0.27670  0.01340  0.62650  Biso   1.000  C
  H3       1.0000 0.26960  0.96240  0.64750  Biso   1.000  H
  C5       1.0000 0.27250  0.07740  0.68620  Biso   1.000  C
  H4       1.0000 0.25880  0.06860  0.74690  Biso   1.000  H
  C6       1.0000 0.30490  0.82840  0.42580  Biso   1.000  C
  H5       1.0000 0.31960  0.77810  0.44320  Biso   1.000  H
  C7       1.0000 0.31080  0.88750  0.49000  Biso   1.000  C
  H6       1.0000 0.32810  0.87680  0.54900  Biso   1.000  H
  C8       1.0000 0.29050  0.96320  0.46460  Biso   1.000  C
  C9       1.0000 0.26370  0.97470  0.37800  Biso   1.000  C
  H7       1.0000 0.24770  0.02410  0.35860  Biso   1.000  H
  C10      1.0000 0.26100  0.91200  0.32030  Biso   1.000  C
  H8       1.0000 0.24440  0.92170  0.26080  Biso   1.000  H
  N1       1.0000 0.28780  0.15210  0.65870  Biso   1.000  N
  N2       1.0000 0.16100  0.27950  0.65960  Biso   1.000  N
  O1       1.0000 0.33230  0.31940  0.68240  Biso   1.000  O
  O2       1.0000 0.44290  0.31450  0.53820  Biso   1.000  O
  O3       1.0000 0.49430  0.37530  0.67760  Biso   1.000  O
  O4       1.0000 0.32220  0.42460  0.53760  Biso   1.000  O
  O5       1.0000 0.37490  0.48130  0.67910  Biso   1.000  O
  O6       1.0000 0.37920  0.36450  0.37710  Biso   1.000  O
  V5       1.0000 0.61051  0.62077  0.62762  Biso   1.000  V
  V6       1.0000 0.53214  0.68689  0.41377  Biso   1.000  V
  V7       1.0000 0.42971  0.56465  0.73354  Biso   1.000  V
  V8       1.0000 0.44879  0.68190  0.58822  Biso   1.000  V
  C11      1.0000 0.69480  0.83710  0.57050  Biso   1.000  C
  H9       1.0000 0.68230  0.78660  0.55130  Biso   1.000  H
  C12      1.0000 0.69420  0.89470  0.50830  Biso   1.000  C
  H10      1.0000 0.68430  0.88230  0.44750  Biso   1.000  H
  C13      1.0000 0.70760  0.97080  0.53110  Biso   1.000  C
  C14      1.0000 0.72330  0.98660  0.62650  Biso   1.000  C
  H11      1.0000 0.73040  0.03760  0.64750  Biso   1.000  H
  C15      1.0000 0.72750  0.92260  0.68620  Biso   1.000  C
  H12      1.0000 0.74120  0.93140  0.74690  Biso   1.000  H
  C16      1.0000 0.69510  0.17160  0.42580  Biso   1.000  C
  H13      1.0000 0.68040  0.22190  0.44320  Biso   1.000  H
  C17      1.0000 0.68920  0.11250  0.49000  Biso   1.000  C
  H14      1.0000 0.67190  0.12320  0.54900  Biso   1.000  H
  C18      1.0000 0.70950  0.03680  0.46460  Biso   1.000  C
  C19      1.0000 0.73630  0.02530  0.37800  Biso   1.000  C
  H15      1.0000 0.75230  0.97590  0.35860  Biso   1.000  H
  C20      1.0000 0.73900  0.08800  0.32030  Biso   1.000  C
  H16      1.0000 0.75560  0.07830  0.26080  Biso   1.000  H
  N3       1.0000 0.71220  0.84790  0.65870  Biso   1.000  N
  N4       1.0000 0.83900  0.72050  0.65960  Biso   1.000  N
  O7       1.0000 0.66770  0.68060  0.68240  Biso   1.000  O
  O8       1.0000 0.55710  0.68550  0.53820  Biso   1.000  O
  O9       1.0000 0.50570  0.62470  0.67760  Biso   1.000  O
  O10      1.0000 0.67780  0.57540  0.53760  Biso   1.000  O
  O11      1.0000 0.62510  0.51870  0.67910  Biso   1.000  O
  O12      1.0000 0.62080  0.63550  0.37710  Biso   1.000  O
  V9       1.0000 0.37923  0.61051  0.37238  Biso   1.000  V
  V10      1.0000 0.31311  0.53214  0.58623  Biso   1.000  V
  V11      1.0000 0.43535  0.42971  0.26646  Biso   1.000  V
  V12      1.0000 0.31810  0.44879  0.41178  Biso   1.000  V
  C21      1.0000 0.16290  0.69480  0.42950  Biso   1.000  C
  H17      1.0000 0.21340  0.68230  0.44870  Biso   1.000  H
  C22      1.0000 0.10530  0.69420  0.49170  Biso   1.000  C
  H18      1.0000 0.11770  0.68430  0.55250  Biso   1.000  H
  C23      1.0000 0.02920  0.70760  0.46890  Biso   1.000  C
  C24      1.0000 0.01340  0.72330  0.37350  Biso   1.000  C
  H19      1.0000 0.96240  0.73040  0.35250  Biso   1.000  H
  C25      1.0000 0.07740  0.72750  0.31380  Biso   1.000  C
  H20      1.0000 0.06860  0.74120  0.25310  Biso   1.000  H
  C26      1.0000 0.82840  0.69510  0.57420  Biso   1.000  C
  H21      1.0000 0.77810  0.68040  0.55680  Biso   1.000  H
  C27      1.0000 0.88750  0.68920  0.51000  Biso   1.000  C
  H22      1.0000 0.87680  0.67190  0.45100  Biso   1.000  H
  C28      1.0000 0.96320  0.70950  0.53540  Biso   1.000  C
  C29      1.0000 0.97470  0.73630  0.62200  Biso   1.000  C
  H23      1.0000 0.02410  0.75230  0.64140  Biso   1.000  H
  C30      1.0000 0.91200  0.73900  0.67970  Biso   1.000  C
  H24      1.0000 0.92170  0.75560  0.73920  Biso   1.000  H
  N5       1.0000 0.15210  0.71220  0.34130  Biso   1.000  N
  N6       1.0000 0.27950  0.83900  0.34040  Biso   1.000  N
  O13      1.0000 0.31940  0.66770  0.31760  Biso   1.000  O
  O14      1.0000 0.31450  0.55710  0.46180  Biso   1.000  O
  O15      1.0000 0.37530  0.50570  0.32240  Biso   1.000  O
  O16      1.0000 0.42460  0.67780  0.46240  Biso   1.000  O
  O17      1.0000 0.48130  0.62510  0.32090  Biso   1.000  O
  O18      1.0000 0.36450  0.62080  0.62290  Biso   1.000  O
  V13      1.0000 0.62077  0.38949  0.37238  Biso   1.000  V
  V14      1.0000 0.68689  0.46786  0.58623  Biso   1.000  V
  V15      1.0000 0.56465  0.57029  0.26646  Biso   1.000  V
  V16      1.0000 0.68190  0.55121  0.41178  Biso   1.000  V
  C31      1.0000 0.83710  0.30520  0.42950  Biso   1.000  C
  H25      1.0000 0.78660  0.31770  0.44870  Biso   1.000  H
  C32      1.0000 0.89470  0.30580  0.49170  Biso   1.000  C
  H26      1.0000 0.88230  0.31570  0.55250  Biso   1.000  H
  C33      1.0000 0.97080  0.29240  0.46890  Biso   1.000  C
  C34      1.0000 0.98660  0.27670  0.37350  Biso   1.000  C
  H27      1.0000 0.03760  0.26960  0.35250  Biso   1.000  H
  C35      1.0000 0.92260  0.27250  0.31380  Biso   1.000  C
  H28      1.0000 0.93140  0.25880  0.25310  Biso   1.000  H
  C36      1.0000 0.17160  0.30490  0.57420  Biso   1.000  C
  H29      1.0000 0.22190  0.31960  0.55680  Biso   1.000  H
  C37      1.0000 0.11250  0.31080  0.51000  Biso   1.000  C
  H30      1.0000 0.12320  0.32810  0.45100  Biso   1.000  H
  C38      1.0000 0.03680  0.29050  0.53540  Biso   1.000  C
  C39      1.0000 0.02530  0.26370  0.62200  Biso   1.000  C
  H31      1.0000 0.97590  0.24770  0.64140  Biso   1.000  H
  C40      1.0000 0.08800  0.26100  0.67970  Biso   1.000  C
  H32      1.0000 0.07830  0.24440  0.73920  Biso   1.000  H
  N7       1.0000 0.84790  0.28780  0.34130  Biso   1.000  N
  N8       1.0000 0.72050  0.16100  0.34040  Biso   1.000  N
  O19      1.0000 0.68060  0.33230  0.31760  Biso   1.000  O
  O20      1.0000 0.68550  0.44290  0.46180  Biso   1.000  O
  O21      1.0000 0.62470  0.49430  0.32240  Biso   1.000  O
  O22      1.0000 0.57540  0.32220  0.46240  Biso   1.000  O
  O23      1.0000 0.51870  0.37490  0.32090  Biso   1.000  O
  O24      1.0000 0.63550  0.37920  0.62290  Biso   1.000  O
  V17      1.0000 0.88949  0.12077  0.12762  Biso   1.000  V
  V18      1.0000 0.96786  0.18689  0.91377  Biso   1.000  V
  V19      1.0000 0.07029  0.06465  0.23354  Biso   1.000  V
  V20      1.0000 0.05121  0.18190  0.08822  Biso   1.000  V
  C41      1.0000 0.80520  0.33710  0.07050  Biso   1.000  C
  H33      1.0000 0.81770  0.28660  0.05130  Biso   1.000  H
  C42      1.0000 0.80580  0.39470  0.00830  Biso   1.000  C
  H34      1.0000 0.81570  0.38230  0.94750  Biso   1.000  H
  C43      1.0000 0.79240  0.47080  0.03110  Biso   1.000  C
  C44      1.0000 0.77670  0.48660  0.12650  Biso   1.000  C
  H35      1.0000 0.76960  0.53760  0.14750  Biso   1.000  H
  C45      1.0000 0.77250  0.42260  0.18620  Biso   1.000  C
  H36      1.0000 0.75880  0.43140  0.24690  Biso   1.000  H
  C46      1.0000 0.80490  0.67160  0.92580  Biso   1.000  C
  H37      1.0000 0.81960  0.72190  0.94320  Biso   1.000  H
  C47      1.0000 0.81080  0.61250  0.99000  Biso   1.000  C
  H38      1.0000 0.82810  0.62320  0.04900  Biso   1.000  H
  C48      1.0000 0.79050  0.53680  0.96460  Biso   1.000  C
  C49      1.0000 0.76370  0.52530  0.87800  Biso   1.000  C
  H39      1.0000 0.74770  0.47590  0.85860  Biso   1.000  H
  C50      1.0000 0.76100  0.58800  0.82030  Biso   1.000  C
  H40      1.0000 0.74440  0.57830  0.76080  Biso   1.000  H
  N9       1.0000 0.78780  0.34790  0.15870  Biso   1.000  N
  N10      1.0000 0.66100  0.22050  0.15960  Biso   1.000  N
  O25      1.0000 0.83230  0.18060  0.18240  Biso   1.000  O
  O26      1.0000 0.94290  0.18550  0.03820  Biso   1.000  O
  O27      1.0000 0.99430  0.12470  0.17760  Biso   1.000  O
  O28      1.0000 0.82220  0.07540  0.03760  Biso   1.000  O
  O29      1.0000 0.87490  0.01870  0.17910  Biso   1.000  O
  O30      1.0000 0.87920  0.13550  0.87710  Biso   1.000  O
  V21      1.0000 0.11051  0.87923  0.12762  Biso   1.000  V
  V22      1.0000 0.03214  0.81311  0.91377  Biso   1.000  V
  V23      1.0000 0.92971  0.93535  0.23354  Biso   1.000  V
  V24      1.0000 0.94879  0.81810  0.08822  Biso   1.000  V
  C51      1.0000 0.19480  0.66290  0.07050  Biso   1.000  C
  H41      1.0000 0.18230  0.71340  0.05130  Biso   1.000  H
  C52      1.0000 0.19420  0.60530  0.00830  Biso   1.000  C
  H42      1.0000 0.18430  0.61770  0.94750  Biso   1.000  H
  C53      1.0000 0.20760  0.52920  0.03110  Biso   1.000  C
  C54      1.0000 0.22330  0.51340  0.12650  Biso   1.000  C
  H43      1.0000 0.23040  0.46240  0.14750  Biso   1.000  H
  C55      1.0000 0.22750  0.57740  0.18620  Biso   1.000  C
  H44      1.0000 0.24120  0.56860  0.24690  Biso   1.000  H
  C56      1.0000 0.19510  0.32840  0.92580  Biso   1.000  C
  H45      1.0000 0.18040  0.27810  0.94320  Biso   1.000  H
  C57      1.0000 0.18920  0.38750  0.99000  Biso   1.000  C
  H46      1.0000 0.17190  0.37680  0.04900  Biso   1.000  H
  C58      1.0000 0.20950  0.46320  0.96460  Biso   1.000  C
  C59      1.0000 0.23630  0.47470  0.87800  Biso   1.000  C
  H47      1.0000 0.25230  0.52410  0.85860  Biso   1.000  H
  C60      1.0000 0.23900  0.41200  0.82030  Biso   1.000  C
  H48      1.0000 0.25560  0.42170  0.76080  Biso   1.000  H
  N11      1.0000 0.21220  0.65210  0.15870  Biso   1.000  N
  N12      1.0000 0.33900  0.77950  0.15960  Biso   1.000  N
  O31      1.0000 0.16770  0.81940  0.18240  Biso   1.000  O
  O32      1.0000 0.05710  0.81450  0.03820  Biso   1.000  O
  O33      1.0000 0.00570  0.87530  0.17760  Biso   1.000  O
  O34      1.0000 0.17780  0.92460  0.03760  Biso   1.000  O
  O35      1.0000 0.12510  0.98130  0.17910  Biso   1.000  O
  O36      1.0000 0.12080  0.86450  0.87710  Biso   1.000  O
  V25      1.0000 0.87923  0.88949  0.87238  Biso   1.000  V
  V26      1.0000 0.81311  0.96786  0.08623  Biso   1.000  V
  V27      1.0000 0.93535  0.07029  0.76646  Biso   1.000  V
  V28      1.0000 0.81810  0.05121  0.91178  Biso   1.000  V
  C61      1.0000 0.66290  0.80520  0.92950  Biso   1.000  C
  H49      1.0000 0.71340  0.81770  0.94870  Biso   1.000  H
  C62      1.0000 0.60530  0.80580  0.99170  Biso   1.000  C
  H50      1.0000 0.61770  0.81570  0.05250  Biso   1.000  H
  C63      1.0000 0.52920  0.79240  0.96890  Biso   1.000  C
  C64      1.0000 0.51340  0.77670  0.87350  Biso   1.000  C
  H51      1.0000 0.46240  0.76960  0.85250  Biso   1.000  H
  C65      1.0000 0.57740  0.77250  0.81380  Biso   1.000  C
  H52      1.0000 0.56860  0.75880  0.75310  Biso   1.000  H
  C66      1.0000 0.32840  0.80490  0.07420  Biso   1.000  C
  H53      1.0000 0.27810  0.81960  0.05680  Biso   1.000  H
  C67      1.0000 0.38750  0.81080  0.01000  Biso   1.000  C
  H54      1.0000 0.37680  0.82810  0.95100  Biso   1.000  H
  C68      1.0000 0.46320  0.79050  0.03540  Biso   1.000  C
  C69      1.0000 0.47470  0.76370  0.12200  Biso   1.000  C
  H55      1.0000 0.52410  0.74770  0.14140  Biso   1.000  H
  C70      1.0000 0.41200  0.76100  0.17970  Biso   1.000  C
  H56      1.0000 0.42170  0.74440  0.23920  Biso   1.000  H
  N13      1.0000 0.65210  0.78780  0.84130  Biso   1.000  N
  N14      1.0000 0.77950  0.66100  0.84040  Biso   1.000  N
  O37      1.0000 0.81940  0.83230  0.81760  Biso   1.000  O
  O38      1.0000 0.81450  0.94290  0.96180  Biso   1.000  O
  O39      1.0000 0.87530  0.99430  0.82240  Biso   1.000  O
  O40      1.0000 0.92460  0.82220  0.96240  Biso   1.000  O
  O41      1.0000 0.98130  0.87490  0.82090  Biso   1.000  O
  O42      1.0000 0.86450  0.87920  0.12290  Biso   1.000  O
  V29      1.0000 0.12077  0.11051  0.87238  Biso   1.000  V
  V30      1.0000 0.18689  0.03214  0.08623  Biso   1.000  V
  V31      1.0000 0.06465  0.92971  0.76646  Biso   1.000  V
  V32      1.0000 0.18190  0.94879  0.91178  Biso   1.000  V
  C71      1.0000 0.33710  0.19480  0.92950  Biso   1.000  C
  H57      1.0000 0.28660  0.18230  0.94870  Biso   1.000  H
  C72      1.0000 0.39470  0.19420  0.99170  Biso   1.000  C
  H58      1.0000 0.38230  0.18430  0.05250  Biso   1.000  H
  C73      1.0000 0.47080  0.20760  0.96890  Biso   1.000  C
  C74      1.0000 0.48660  0.22330  0.87350  Biso   1.000  C
  H59      1.0000 0.53760  0.23040  0.85250  Biso   1.000  H
  C75      1.0000 0.42260  0.22750  0.81380  Biso   1.000  C
  H60      1.0000 0.43140  0.24120  0.75310  Biso   1.000  H
  C76      1.0000 0.67160  0.19510  0.07420  Biso   1.000  C
  H61      1.0000 0.72190  0.18040  0.05680  Biso   1.000  H
  C77      1.0000 0.61250  0.18920  0.01000  Biso   1.000  C
  H62      1.0000 0.62320  0.17190  0.95100  Biso   1.000  H
  C78      1.0000 0.53680  0.20950  0.03540  Biso   1.000  C
  C79      1.0000 0.52530  0.23630  0.12200  Biso   1.000  C
  H63      1.0000 0.47590  0.25230  0.14140  Biso   1.000  H
  C80      1.0000 0.58800  0.23900  0.17970  Biso   1.000  C
  H64      1.0000 0.57830  0.25560  0.23920  Biso   1.000  H
  N15      1.0000 0.34790  0.21220  0.84130  Biso   1.000  N
  N16      1.0000 0.22050  0.33900  0.84040  Biso   1.000  N
  O43      1.0000 0.18060  0.16770  0.81760  Biso   1.000  O
  O44      1.0000 0.18550  0.05710  0.96180  Biso   1.000  O
  O45      1.0000 0.12470  0.00570  0.82240  Biso   1.000  O
  O46      1.0000 0.07540  0.17780  0.96240  Biso   1.000  O
  O47      1.0000 0.01870  0.12510  0.82090  Biso   1.000  O
  O48      1.0000 0.13550  0.12080  0.12290  Biso   1.000  O
  Co1      1.0000 0.25480  0.24520  0.75000  Biso   1.000  Co
  Co2      1.0000 0.74520  0.75480  0.75000  Biso   1.000  Co
  Co3      1.0000 0.24520  0.74520  0.25000  Biso   1.000  Co
  Co4      1.0000 0.75480  0.25480  0.25000  Biso   1.000  Co
  O49      1.0000 0.50000  0.50000  0.79800  Biso   1.000  O
  O50      1.0000 0.50000  0.50000  0.70460  Biso   1.000  O
  O51      1.0000 0.50000  0.50000  0.77200  Biso   1.000  O
  O52      1.0000 0.50000  0.50000  0.20200  Biso   1.000  O
  O53      1.0000 0.50000  0.50000  0.29540  Biso   1.000  O
  O54      1.0000 0.50000  0.50000  0.22800  Biso   1.000  O
  O55      1.0000 0.00000  0.00000  0.29800  Biso   1.000  O
  O56      1.0000 0.00000  0.00000  0.20460  Biso   1.000  O
  O57      1.0000 0.00000  0.00000  0.27200  Biso   1.000  O
  O58      1.0000 0.00000  0.00000  0.70200  Biso   1.000  O
  O59      1.0000 0.00000  0.00000  0.79540  Biso   1.000  O
  O60      1.0000 0.00000  0.00000  0.72800  Biso   1.000  O
