data_image0
_cell_length_a       11.0449
_cell_length_b       11.0449
_cell_length_c       8.055
_cell_angle_alpha    90
_cell_angle_beta     90
_cell_angle_gamma    90

_symmetry_space_group_name_H-M    "P 1"
_symmetry_int_tables_number       1

loop_
  _symmetry_equiv_pos_as_xyz
  'x, y, z'

loop_
  _atom_site_label
  _atom_site_occupancy
  _atom_site_fract_x
  _atom_site_fract_y
  _atom_site_fract_z
  _atom_site_thermal_displace_type
  _atom_site_B_iso_or_equiv
  _atom_site_type_symbol
  C1       1.0000 0.45300  0.25800  0.12300  Biso   1.000  C
  C2       1.0000 0.45000  0.13600  0.13400  Biso   1.000  C
  H1       1.0000 0.41870  0.30220  0.21290  Biso   1.000  H
  H2       1.0000 0.41350  0.09770  0.22600  Biso   1.000  H
  C3       1.0000 0.54700  0.74200  0.12300  Biso   1.000  C
  C4       1.0000 0.55000  0.86400  0.13400  Biso   1.000  C
  H3       1.0000 0.58130  0.69780  0.21290  Biso   1.000  H
  H4       1.0000 0.58650  0.90230  0.22600  Biso   1.000  H
  C5       1.0000 0.74200  0.45300  0.12300  Biso   1.000  C
  C6       1.0000 0.86400  0.45000  0.13400  Biso   1.000  C
  H5       1.0000 0.69780  0.41870  0.21290  Biso   1.000  H
  H6       1.0000 0.90230  0.41350  0.22600  Biso   1.000  H
  C7       1.0000 0.25800  0.54700  0.12300  Biso   1.000  C
  C8       1.0000 0.13600  0.55000  0.13400  Biso   1.000  C
  H7       1.0000 0.30220  0.58130  0.21290  Biso   1.000  H
  H8       1.0000 0.09770  0.58650  0.22600  Biso   1.000  H
  C9       1.0000 0.54700  0.25800  0.87700  Biso   1.000  C
  C10      1.0000 0.55000  0.13600  0.86600  Biso   1.000  C
  H9       1.0000 0.58130  0.30220  0.78710  Biso   1.000  H
  H10      1.0000 0.58650  0.09770  0.77400  Biso   1.000  H
  C11      1.0000 0.45300  0.74200  0.87700  Biso   1.000  C
  C12      1.0000 0.45000  0.86400  0.86600  Biso   1.000  C
  H11      1.0000 0.41870  0.69780  0.78710  Biso   1.000  H
  H12      1.0000 0.41350  0.90230  0.77400  Biso   1.000  H
  C13      1.0000 0.25800  0.45300  0.87700  Biso   1.000  C
  C14      1.0000 0.13600  0.45000  0.86600  Biso   1.000  C
  H13      1.0000 0.30220  0.41870  0.78710  Biso   1.000  H
  H14      1.0000 0.09770  0.41350  0.77400  Biso   1.000  H
  C15      1.0000 0.74200  0.54700  0.87700  Biso   1.000  C
  C16      1.0000 0.86400  0.55000  0.86600  Biso   1.000  C
  H15      1.0000 0.69780  0.58130  0.78710  Biso   1.000  H
  H16      1.0000 0.90230  0.58650  0.77400  Biso   1.000  H
  C17      1.0000 0.54700  0.74200  0.87700  Biso   1.000  C
  C18      1.0000 0.55000  0.86400  0.86600  Biso   1.000  C
  H17      1.0000 0.58130  0.69780  0.78710  Biso   1.000  H
  H18      1.0000 0.58650  0.90230  0.77400  Biso   1.000  H
  C19      1.0000 0.45300  0.25800  0.87700  Biso   1.000  C
  C20      1.0000 0.45000  0.13600  0.86600  Biso   1.000  C
  H19      1.0000 0.41870  0.30220  0.78710  Biso   1.000  H
  H20      1.0000 0.41350  0.09770  0.77400  Biso   1.000  H
  C21      1.0000 0.25800  0.54700  0.87700  Biso   1.000  C
  C22      1.0000 0.13600  0.55000  0.86600  Biso   1.000  C
  H21      1.0000 0.30220  0.58130  0.78710  Biso   1.000  H
  H22      1.0000 0.09770  0.58650  0.77400  Biso   1.000  H
  C23      1.0000 0.74200  0.45300  0.87700  Biso   1.000  C
  C24      1.0000 0.86400  0.45000  0.86600  Biso   1.000  C
  H23      1.0000 0.69780  0.41870  0.78710  Biso   1.000  H
  H24      1.0000 0.90230  0.41350  0.77400  Biso   1.000  H
  C25      1.0000 0.45300  0.74200  0.12300  Biso   1.000  C
  C26      1.0000 0.45000  0.86400  0.13400  Biso   1.000  C
  H25      1.0000 0.41870  0.69780  0.21290  Biso   1.000  H
  H26      1.0000 0.41350  0.90230  0.22600  Biso   1.000  H
  C27      1.0000 0.54700  0.25800  0.12300  Biso   1.000  C
  C28      1.0000 0.55000  0.13600  0.13400  Biso   1.000  C
  H27      1.0000 0.58130  0.30220  0.21290  Biso   1.000  H
  H28      1.0000 0.58650  0.09770  0.22600  Biso   1.000  H
  C29      1.0000 0.74200  0.54700  0.12300  Biso   1.000  C
  C30      1.0000 0.86400  0.55000  0.13400  Biso   1.000  C
  H29      1.0000 0.69780  0.58130  0.21290  Biso   1.000  H
  H30      1.0000 0.90230  0.58650  0.22600  Biso   1.000  H
  C31      1.0000 0.25800  0.45300  0.12300  Biso   1.000  C
  C32      1.0000 0.13600  0.45000  0.13400  Biso   1.000  C
  H31      1.0000 0.30220  0.41870  0.21290  Biso   1.000  H
  H32      1.0000 0.09770  0.41350  0.22600  Biso   1.000  H
  Cu1      1.0000 0.50000  0.50000  0.00000  Biso   1.000  Cu
  N1       1.0000 0.50000  0.32200  0.00000  Biso   1.000  N
  C33      1.0000 0.50000  0.07200  0.00000  Biso   1.000  C
  N2       1.0000 0.50000  0.67800  0.00000  Biso   1.000  N
  C34      1.0000 0.50000  0.92800  0.00000  Biso   1.000  C
  N3       1.0000 0.67800  0.50000  0.00000  Biso   1.000  N
  C35      1.0000 0.92800  0.50000  0.00000  Biso   1.000  C
  N4       1.0000 0.32200  0.50000  0.00000  Biso   1.000  N
  C36      1.0000 0.07200  0.50000  0.00000  Biso   1.000  C
