data_image0
_cell_length_a       10.677
_cell_length_b       18.781
_cell_length_c       21.052
_cell_angle_alpha    90
_cell_angle_beta     102.16
_cell_angle_gamma    90

_symmetry_space_group_name_H-M    "P 1"
_symmetry_int_tables_number       1

loop_
  _symmetry_equiv_pos_as_xyz
  'x, y, z'

loop_
  _atom_site_label
  _atom_site_occupancy
  _atom_site_fract_x
  _atom_site_fract_y
  _atom_site_fract_z
  _atom_site_thermal_displace_type
  _atom_site_B_iso_or_equiv
  _atom_site_type_symbol
  Cu1      1.0000 0.65392  0.21683  0.51886  Biso   1.000  Cu
  Br1      1.0000 0.86160  0.02930  0.62620  Biso   1.000  Br
  Br2      1.0000 0.09710  0.12220  0.40030  Biso   1.000  Br
  Br3      1.0000 0.74410  0.36935  0.71024  Biso   1.000  Br
  O1       1.0000 0.75370  0.23530  0.60700  Biso   1.000  O
  O2       1.0000 0.91620  0.29180  0.57480  Biso   1.000  O
  O3       1.0000 0.76120  0.13270  0.51490  Biso   1.000  O
  O4       1.0000 0.92320  0.18980  0.48220  Biso   1.000  O
  C1       1.0000 0.88500  0.23240  0.73580  Biso   1.000  C
  C2       1.0000 0.95200  0.23040  0.79880  Biso   1.000  C
  C3       1.0000 0.89290  0.31030  0.73060  Biso   1.000  C
  C4       1.0000 0.04140  0.31040  0.70330  Biso   1.000  C
  C5       1.0000 0.93100  0.27120  0.68530  Biso   1.000  C
  C6       1.0000 0.86100  0.26570  0.61720  Biso   1.000  C
  C7       1.0000 0.91890  0.01160  0.54090  Biso   1.000  C
  C8       1.0000 0.94070  0.06500  0.50100  Biso   1.000  C
  C9       1.0000 0.98190  0.94500  0.54110  Biso   1.000  C
  C10      1.0000 0.87080  0.13650  0.49870  Biso   1.000  C
  O5       1.0000 0.25500  0.09500  0.37950  Biso   1.000  O
  N1       1.0000 0.21300  0.21900  0.39100  Biso   1.000  N
  C11      1.0000 0.22300  0.16300  0.37100  Biso   1.000  C
  C12      1.0000 0.09500  0.22360  0.34880  Biso   1.000  C
  C13      1.0000 0.24200  0.27700  0.43200  Biso   1.000  C
  O6       1.0000 0.26700  0.31300  0.40700  Biso   1.000  O
  N2       1.0000 0.21000  0.34700  0.31500  Biso   1.000  N
  C14      1.0000 0.18000  0.28900  0.35800  Biso   1.000  C
  C15      1.0000 0.24200  0.40800  0.28600  Biso   1.000  C
  C16      1.0000 0.09500  0.31700  0.28600  Biso   1.000  C
  C17      1.0000 0.74400  0.98610  0.58300  Biso   1.000  C
  C18      1.0000 0.77700  0.06800  0.74400  Biso   1.000  C
  C19      1.0000 0.68300  0.32300  0.75000  Biso   1.000  C
  C20      1.0000 0.84400  0.04500  0.69500  Biso   1.000  C
  Cu2      1.0000 0.15392  0.71683  0.51886  Biso   1.000  Cu
  Br4      1.0000 0.36160  0.52930  0.62620  Biso   1.000  Br
  Br5      1.0000 0.59710  0.62220  0.40030  Biso   1.000  Br
  Br6      1.0000 0.24410  0.86935  0.71024  Biso   1.000  Br
  O7       1.0000 0.25370  0.73530  0.60700  Biso   1.000  O
  O8       1.0000 0.41620  0.79180  0.57480  Biso   1.000  O
  O9       1.0000 0.26120  0.63270  0.51490  Biso   1.000  O
  O10      1.0000 0.42320  0.68980  0.48220  Biso   1.000  O
  C21      1.0000 0.38500  0.73240  0.73580  Biso   1.000  C
  C22      1.0000 0.45200  0.73040  0.79880  Biso   1.000  C
  C23      1.0000 0.39290  0.81030  0.73060  Biso   1.000  C
  C24      1.0000 0.54140  0.81040  0.70330  Biso   1.000  C
  C25      1.0000 0.43100  0.77120  0.68530  Biso   1.000  C
  C26      1.0000 0.36100  0.76570  0.61720  Biso   1.000  C
  C27      1.0000 0.41890  0.51160  0.54090  Biso   1.000  C
  C28      1.0000 0.44070  0.56500  0.50100  Biso   1.000  C
  C29      1.0000 0.48190  0.44500  0.54110  Biso   1.000  C
  C30      1.0000 0.37080  0.63650  0.49870  Biso   1.000  C
  O11      1.0000 0.75500  0.59500  0.37950  Biso   1.000  O
  N3       1.0000 0.71300  0.71900  0.39100  Biso   1.000  N
  C31      1.0000 0.72300  0.66300  0.37100  Biso   1.000  C
  C32      1.0000 0.59500  0.72360  0.34880  Biso   1.000  C
  C33      1.0000 0.74200  0.77700  0.43200  Biso   1.000  C
  O12      1.0000 0.76700  0.81300  0.40700  Biso   1.000  O
  N4       1.0000 0.71000  0.84700  0.31500  Biso   1.000  N
  C34      1.0000 0.68000  0.78900  0.35800  Biso   1.000  C
  C35      1.0000 0.74200  0.90800  0.28600  Biso   1.000  C
  C36      1.0000 0.59500  0.81700  0.28600  Biso   1.000  C
  C37      1.0000 0.24400  0.48610  0.58300  Biso   1.000  C
  C38      1.0000 0.27700  0.56800  0.74400  Biso   1.000  C
  C39      1.0000 0.18300  0.82300  0.75000  Biso   1.000  C
  C40      1.0000 0.34400  0.54500  0.69500  Biso   1.000  C
  Cu3      1.0000 0.34608  0.21683  0.98114  Biso   1.000  Cu
  Br7      1.0000 0.13840  0.02930  0.87380  Biso   1.000  Br
  Br8      1.0000 0.90290  0.12220  0.09970  Biso   1.000  Br
  Br9      1.0000 0.25590  0.36935  0.78976  Biso   1.000  Br
  O13      1.0000 0.24630  0.23530  0.89300  Biso   1.000  O
  O14      1.0000 0.08380  0.29180  0.92520  Biso   1.000  O
  O15      1.0000 0.23880  0.13270  0.98510  Biso   1.000  O
  O16      1.0000 0.07680  0.18980  0.01780  Biso   1.000  O
  C41      1.0000 0.11500  0.23240  0.76420  Biso   1.000  C
  C42      1.0000 0.04800  0.23040  0.70120  Biso   1.000  C
  C43      1.0000 0.10710  0.31030  0.76940  Biso   1.000  C
  C44      1.0000 0.95860  0.31040  0.79670  Biso   1.000  C
  C45      1.0000 0.06900  0.27120  0.81470  Biso   1.000  C
  C46      1.0000 0.13900  0.26570  0.88280  Biso   1.000  C
  C47      1.0000 0.08110  0.01160  0.95910  Biso   1.000  C
  C48      1.0000 0.05930  0.06500  0.99900  Biso   1.000  C
  C49      1.0000 0.01810  0.94500  0.95890  Biso   1.000  C
  C50      1.0000 0.12920  0.13650  0.00130  Biso   1.000  C
  O17      1.0000 0.74500  0.09500  0.12050  Biso   1.000  O
  N5       1.0000 0.78700  0.21900  0.10900  Biso   1.000  N
  C51      1.0000 0.77700  0.16300  0.12900  Biso   1.000  C
  C52      1.0000 0.90500  0.22360  0.15120  Biso   1.000  C
  C53      1.0000 0.75800  0.27700  0.06800  Biso   1.000  C
  O18      1.0000 0.73300  0.31300  0.09300  Biso   1.000  O
  N6       1.0000 0.79000  0.34700  0.18500  Biso   1.000  N
  C54      1.0000 0.82000  0.28900  0.14200  Biso   1.000  C
  C55      1.0000 0.75800  0.40800  0.21400  Biso   1.000  C
  C56      1.0000 0.90500  0.31700  0.21400  Biso   1.000  C
  C57      1.0000 0.25600  0.98610  0.91700  Biso   1.000  C
  C58      1.0000 0.22300  0.06800  0.75600  Biso   1.000  C
  C59      1.0000 0.31700  0.32300  0.75000  Biso   1.000  C
  C60      1.0000 0.15600  0.04500  0.80500  Biso   1.000  C
  Cu4      1.0000 0.84608  0.71683  0.98114  Biso   1.000  Cu
  Br10     1.0000 0.63840  0.52930  0.87380  Biso   1.000  Br
  Br11     1.0000 0.40290  0.62220  0.09970  Biso   1.000  Br
  Br12     1.0000 0.75590  0.86935  0.78976  Biso   1.000  Br
  O19      1.0000 0.74630  0.73530  0.89300  Biso   1.000  O
  O20      1.0000 0.58380  0.79180  0.92520  Biso   1.000  O
  O21      1.0000 0.73880  0.63270  0.98510  Biso   1.000  O
  O22      1.0000 0.57680  0.68980  0.01780  Biso   1.000  O
  C61      1.0000 0.61500  0.73240  0.76420  Biso   1.000  C
  C62      1.0000 0.54800  0.73040  0.70120  Biso   1.000  C
  C63      1.0000 0.60710  0.81030  0.76940  Biso   1.000  C
  C64      1.0000 0.45860  0.81040  0.79670  Biso   1.000  C
  C65      1.0000 0.56900  0.77120  0.81470  Biso   1.000  C
  C66      1.0000 0.63900  0.76570  0.88280  Biso   1.000  C
  C67      1.0000 0.58110  0.51160  0.95910  Biso   1.000  C
  C68      1.0000 0.55930  0.56500  0.99900  Biso   1.000  C
  C69      1.0000 0.51810  0.44500  0.95890  Biso   1.000  C
  C70      1.0000 0.62920  0.63650  0.00130  Biso   1.000  C
  O23      1.0000 0.24500  0.59500  0.12050  Biso   1.000  O
  N7       1.0000 0.28700  0.71900  0.10900  Biso   1.000  N
  C71      1.0000 0.27700  0.66300  0.12900  Biso   1.000  C
  C72      1.0000 0.40500  0.72360  0.15120  Biso   1.000  C
  C73      1.0000 0.25800  0.77700  0.06800  Biso   1.000  C
  O24      1.0000 0.23300  0.81300  0.09300  Biso   1.000  O
  N8       1.0000 0.29000  0.84700  0.18500  Biso   1.000  N
  C74      1.0000 0.32000  0.78900  0.14200  Biso   1.000  C
  C75      1.0000 0.25800  0.90800  0.21400  Biso   1.000  C
  C76      1.0000 0.40500  0.81700  0.21400  Biso   1.000  C
  C77      1.0000 0.75600  0.48610  0.91700  Biso   1.000  C
  C78      1.0000 0.72300  0.56800  0.75600  Biso   1.000  C
  C79      1.0000 0.81700  0.82300  0.75000  Biso   1.000  C
  C80      1.0000 0.65600  0.54500  0.80500  Biso   1.000  C
  Cu5      1.0000 0.34608  0.78317  0.48114  Biso   1.000  Cu
  Br13     1.0000 0.13840  0.97070  0.37380  Biso   1.000  Br
  Br14     1.0000 0.90290  0.87780  0.59970  Biso   1.000  Br
  Br15     1.0000 0.25590  0.63065  0.28976  Biso   1.000  Br
  O25      1.0000 0.24630  0.76470  0.39300  Biso   1.000  O
  O26      1.0000 0.08380  0.70820  0.42520  Biso   1.000  O
  O27      1.0000 0.23880  0.86730  0.48510  Biso   1.000  O
  O28      1.0000 0.07680  0.81020  0.51780  Biso   1.000  O
  C81      1.0000 0.11500  0.76760  0.26420  Biso   1.000  C
  C82      1.0000 0.04800  0.76960  0.20120  Biso   1.000  C
  C83      1.0000 0.10710  0.68970  0.26940  Biso   1.000  C
  C84      1.0000 0.95860  0.68960  0.29670  Biso   1.000  C
  C85      1.0000 0.06900  0.72880  0.31470  Biso   1.000  C
  C86      1.0000 0.13900  0.73430  0.38280  Biso   1.000  C
  C87      1.0000 0.08110  0.98840  0.45910  Biso   1.000  C
  C88      1.0000 0.05930  0.93500  0.49900  Biso   1.000  C
  C89      1.0000 0.01810  0.05500  0.45890  Biso   1.000  C
  C90      1.0000 0.12920  0.86350  0.50130  Biso   1.000  C
  O29      1.0000 0.74500  0.90500  0.62050  Biso   1.000  O
  N9       1.0000 0.78700  0.78100  0.60900  Biso   1.000  N
  C91      1.0000 0.77700  0.83700  0.62900  Biso   1.000  C
  C92      1.0000 0.90500  0.77640  0.65120  Biso   1.000  C
  C93      1.0000 0.75800  0.72300  0.56800  Biso   1.000  C
  O30      1.0000 0.73300  0.68700  0.59300  Biso   1.000  O
  N10      1.0000 0.79000  0.65300  0.68500  Biso   1.000  N
  C94      1.0000 0.82000  0.71100  0.64200  Biso   1.000  C
  C95      1.0000 0.75800  0.59200  0.71400  Biso   1.000  C
  C96      1.0000 0.90500  0.68300  0.71400  Biso   1.000  C
  C97      1.0000 0.25600  0.01390  0.41700  Biso   1.000  C
  C98      1.0000 0.22300  0.93200  0.25600  Biso   1.000  C
  C99      1.0000 0.31700  0.67700  0.25000  Biso   1.000  C
  C100     1.0000 0.15600  0.95500  0.30500  Biso   1.000  C
  Cu6      1.0000 0.84608  0.28317  0.48114  Biso   1.000  Cu
  Br16     1.0000 0.63840  0.47070  0.37380  Biso   1.000  Br
  Br17     1.0000 0.40290  0.37780  0.59970  Biso   1.000  Br
  Br18     1.0000 0.75590  0.13065  0.28976  Biso   1.000  Br
  O31      1.0000 0.74630  0.26470  0.39300  Biso   1.000  O
  O32      1.0000 0.58380  0.20820  0.42520  Biso   1.000  O
  O33      1.0000 0.73880  0.36730  0.48510  Biso   1.000  O
  O34      1.0000 0.57680  0.31020  0.51780  Biso   1.000  O
  C101     1.0000 0.61500  0.26760  0.26420  Biso   1.000  C
  C102     1.0000 0.54800  0.26960  0.20120  Biso   1.000  C
  C103     1.0000 0.60710  0.18970  0.26940  Biso   1.000  C
  C104     1.0000 0.45860  0.18960  0.29670  Biso   1.000  C
  C105     1.0000 0.56900  0.22880  0.31470  Biso   1.000  C
  C106     1.0000 0.63900  0.23430  0.38280  Biso   1.000  C
  C107     1.0000 0.58110  0.48840  0.45910  Biso   1.000  C
  C108     1.0000 0.55930  0.43500  0.49900  Biso   1.000  C
  C109     1.0000 0.51810  0.55500  0.45890  Biso   1.000  C
  C110     1.0000 0.62920  0.36350  0.50130  Biso   1.000  C
  O35      1.0000 0.24500  0.40500  0.62050  Biso   1.000  O
  N11      1.0000 0.28700  0.28100  0.60900  Biso   1.000  N
  C111     1.0000 0.27700  0.33700  0.62900  Biso   1.000  C
  C112     1.0000 0.40500  0.27640  0.65120  Biso   1.000  C
  C113     1.0000 0.25800  0.22300  0.56800  Biso   1.000  C
  O36      1.0000 0.23300  0.18700  0.59300  Biso   1.000  O
  N12      1.0000 0.29000  0.15300  0.68500  Biso   1.000  N
  C114     1.0000 0.32000  0.21100  0.64200  Biso   1.000  C
  C115     1.0000 0.25800  0.09200  0.71400  Biso   1.000  C
  C116     1.0000 0.40500  0.18300  0.71400  Biso   1.000  C
  C117     1.0000 0.75600  0.51390  0.41700  Biso   1.000  C
  C118     1.0000 0.72300  0.43200  0.25600  Biso   1.000  C
  C119     1.0000 0.81700  0.17700  0.25000  Biso   1.000  C
  C120     1.0000 0.65600  0.45500  0.30500  Biso   1.000  C
  Cu7      1.0000 0.65392  0.78317  0.01886  Biso   1.000  Cu
  Br19     1.0000 0.86160  0.97070  0.12620  Biso   1.000  Br
  Br20     1.0000 0.09710  0.87780  0.90030  Biso   1.000  Br
  Br21     1.0000 0.74410  0.63065  0.21024  Biso   1.000  Br
  O37      1.0000 0.75370  0.76470  0.10700  Biso   1.000  O
  O38      1.0000 0.91620  0.70820  0.07480  Biso   1.000  O
  O39      1.0000 0.76120  0.86730  0.01490  Biso   1.000  O
  O40      1.0000 0.92320  0.81020  0.98220  Biso   1.000  O
  C121     1.0000 0.88500  0.76760  0.23580  Biso   1.000  C
  C122     1.0000 0.95200  0.76960  0.29880  Biso   1.000  C
  C123     1.0000 0.89290  0.68970  0.23060  Biso   1.000  C
  C124     1.0000 0.04140  0.68960  0.20330  Biso   1.000  C
  C125     1.0000 0.93100  0.72880  0.18530  Biso   1.000  C
  C126     1.0000 0.86100  0.73430  0.11720  Biso   1.000  C
  C127     1.0000 0.91890  0.98840  0.04090  Biso   1.000  C
  C128     1.0000 0.94070  0.93500  0.00100  Biso   1.000  C
  C129     1.0000 0.98190  0.05500  0.04110  Biso   1.000  C
  C130     1.0000 0.87080  0.86350  0.99870  Biso   1.000  C
  O41      1.0000 0.25500  0.90500  0.87950  Biso   1.000  O
  N13      1.0000 0.21300  0.78100  0.89100  Biso   1.000  N
  C131     1.0000 0.22300  0.83700  0.87100  Biso   1.000  C
  C132     1.0000 0.09500  0.77640  0.84880  Biso   1.000  C
  C133     1.0000 0.24200  0.72300  0.93200  Biso   1.000  C
  O42      1.0000 0.26700  0.68700  0.90700  Biso   1.000  O
  N14      1.0000 0.21000  0.65300  0.81500  Biso   1.000  N
  C134     1.0000 0.18000  0.71100  0.85800  Biso   1.000  C
  C135     1.0000 0.24200  0.59200  0.78600  Biso   1.000  C
  C136     1.0000 0.09500  0.68300  0.78600  Biso   1.000  C
  C137     1.0000 0.74400  0.01390  0.08300  Biso   1.000  C
  C138     1.0000 0.77700  0.93200  0.24400  Biso   1.000  C
  C139     1.0000 0.68300  0.67700  0.25000  Biso   1.000  C
  C140     1.0000 0.84400  0.95500  0.19500  Biso   1.000  C
  Cu8      1.0000 0.15392  0.28317  0.01886  Biso   1.000  Cu
  Br22     1.0000 0.36160  0.47070  0.12620  Biso   1.000  Br
  Br23     1.0000 0.59710  0.37780  0.90030  Biso   1.000  Br
  Br24     1.0000 0.24410  0.13065  0.21024  Biso   1.000  Br
  O43      1.0000 0.25370  0.26470  0.10700  Biso   1.000  O
  O44      1.0000 0.41620  0.20820  0.07480  Biso   1.000  O
  O45      1.0000 0.26120  0.36730  0.01490  Biso   1.000  O
  O46      1.0000 0.42320  0.31020  0.98220  Biso   1.000  O
  C141     1.0000 0.38500  0.26760  0.23580  Biso   1.000  C
  C142     1.0000 0.45200  0.26960  0.29880  Biso   1.000  C
  C143     1.0000 0.39290  0.18970  0.23060  Biso   1.000  C
  C144     1.0000 0.54140  0.18960  0.20330  Biso   1.000  C
  C145     1.0000 0.43100  0.22880  0.18530  Biso   1.000  C
  C146     1.0000 0.36100  0.23430  0.11720  Biso   1.000  C
  C147     1.0000 0.41890  0.48840  0.04090  Biso   1.000  C
  C148     1.0000 0.44070  0.43500  0.00100  Biso   1.000  C
  C149     1.0000 0.48190  0.55500  0.04110  Biso   1.000  C
  C150     1.0000 0.37080  0.36350  0.99870  Biso   1.000  C
  O47      1.0000 0.75500  0.40500  0.87950  Biso   1.000  O
  N15      1.0000 0.71300  0.28100  0.89100  Biso   1.000  N
  C151     1.0000 0.72300  0.33700  0.87100  Biso   1.000  C
  C152     1.0000 0.59500  0.27640  0.84880  Biso   1.000  C
  C153     1.0000 0.74200  0.22300  0.93200  Biso   1.000  C
  O48      1.0000 0.76700  0.18700  0.90700  Biso   1.000  O
  N16      1.0000 0.71000  0.15300  0.81500  Biso   1.000  N
  C154     1.0000 0.68000  0.21100  0.85800  Biso   1.000  C
  C155     1.0000 0.74200  0.09200  0.78600  Biso   1.000  C
  C156     1.0000 0.59500  0.18300  0.78600  Biso   1.000  C
  C157     1.0000 0.24400  0.51390  0.08300  Biso   1.000  C
  C158     1.0000 0.27700  0.43200  0.24400  Biso   1.000  C
  C159     1.0000 0.18300  0.17700  0.25000  Biso   1.000  C
  C160     1.0000 0.34400  0.45500  0.19500  Biso   1.000  C
