data_image0
_cell_length_a       10.089
_cell_length_b       14.789
_cell_length_c       13.988
_cell_angle_alpha    90
_cell_angle_beta     90
_cell_angle_gamma    90

_symmetry_space_group_name_H-M    "P 1"
_symmetry_int_tables_number       1

loop_
  _symmetry_equiv_pos_as_xyz
  'x, y, z'

loop_
  _atom_site_label
  _atom_site_occupancy
  _atom_site_fract_x
  _atom_site_fract_y
  _atom_site_fract_z
  _atom_site_thermal_displace_type
  _atom_site_B_iso_or_equiv
  _atom_site_type_symbol
  Zn1      1.0000 0.04048  0.41273  0.10600  Biso   1.000  Zn
  P1       1.0000 0.01889  0.37686  0.88962  Biso   1.000  P
  H1       1.0000 0.11700  0.39300  0.83300  Biso   1.000  H
  P2       1.0000 0.26875  0.10697  0.78128  Biso   1.000  P
  O1       1.0000 0.08620  0.35680  0.98460  Biso   1.000  O
  O2       1.0000 0.94100  0.29560  0.85370  Biso   1.000  O
  O3       1.0000 0.93110  0.45910  0.89450  Biso   1.000  O
  O4       1.0000 0.33700  0.14510  0.69180  Biso   1.000  O
  O5       1.0000 0.14220  0.15020  0.80300  Biso   1.000  O
  O6       1.0000 0.35550  0.11370  0.87000  Biso   1.000  O
  P3       1.0000 0.20500  0.33250  0.28610  Biso   1.000  P
  Zn2      1.0000 0.45952  0.08727  0.60600  Biso   1.000  Zn
  P4       1.0000 0.48111  0.12314  0.38962  Biso   1.000  P
  H2       1.0000 0.38300  0.10700  0.33300  Biso   1.000  H
  P5       1.0000 0.23125  0.39303  0.28128  Biso   1.000  P
  O7       1.0000 0.41380  0.14320  0.48460  Biso   1.000  O
  O8       1.0000 0.55900  0.20440  0.35370  Biso   1.000  O
  O9       1.0000 0.56890  0.04090  0.39450  Biso   1.000  O
  O10      1.0000 0.16300  0.35490  0.19180  Biso   1.000  O
  O11      1.0000 0.35780  0.34980  0.30300  Biso   1.000  O
  O12      1.0000 0.14450  0.38630  0.37000  Biso   1.000  O
  P6       1.0000 0.29500  0.16750  0.78610  Biso   1.000  P
  Zn3      1.0000 0.95952  0.41273  0.39400  Biso   1.000  Zn
  P7       1.0000 0.98111  0.37686  0.61038  Biso   1.000  P
  H3       1.0000 0.88300  0.39300  0.66700  Biso   1.000  H
  P8       1.0000 0.73125  0.10697  0.71872  Biso   1.000  P
  O13      1.0000 0.91380  0.35680  0.51540  Biso   1.000  O
  O14      1.0000 0.05900  0.29560  0.64630  Biso   1.000  O
  O15      1.0000 0.06890  0.45910  0.60550  Biso   1.000  O
  O16      1.0000 0.66300  0.14510  0.80820  Biso   1.000  O
  O17      1.0000 0.85780  0.15020  0.69700  Biso   1.000  O
  O18      1.0000 0.64450  0.11370  0.63000  Biso   1.000  O
  P9       1.0000 0.79500  0.33250  0.21390  Biso   1.000  P
  Zn4      1.0000 0.54048  0.08727  0.89400  Biso   1.000  Zn
  P10      1.0000 0.51889  0.12314  0.11038  Biso   1.000  P
  H4       1.0000 0.61700  0.10700  0.16700  Biso   1.000  H
  P11      1.0000 0.76875  0.39303  0.21872  Biso   1.000  P
  O19      1.0000 0.58620  0.14320  0.01540  Biso   1.000  O
  O20      1.0000 0.44100  0.20440  0.14630  Biso   1.000  O
  O21      1.0000 0.43110  0.04090  0.10550  Biso   1.000  O
  O22      1.0000 0.83700  0.35490  0.30820  Biso   1.000  O
  O23      1.0000 0.64220  0.34980  0.19700  Biso   1.000  O
  O24      1.0000 0.85550  0.38630  0.13000  Biso   1.000  O
  P12      1.0000 0.70500  0.16750  0.71390  Biso   1.000  P
  Zn5      1.0000 0.95952  0.58727  0.89400  Biso   1.000  Zn
  P13      1.0000 0.98111  0.62314  0.11038  Biso   1.000  P
  H5       1.0000 0.88300  0.60700  0.16700  Biso   1.000  H
  P14      1.0000 0.73125  0.89303  0.21872  Biso   1.000  P
  O25      1.0000 0.91380  0.64320  0.01540  Biso   1.000  O
  O26      1.0000 0.05900  0.70440  0.14630  Biso   1.000  O
  O27      1.0000 0.06890  0.54090  0.10550  Biso   1.000  O
  O28      1.0000 0.66300  0.85490  0.30820  Biso   1.000  O
  O29      1.0000 0.85780  0.84980  0.19700  Biso   1.000  O
  O30      1.0000 0.64450  0.88630  0.13000  Biso   1.000  O
  P15      1.0000 0.79500  0.66750  0.71390  Biso   1.000  P
  Zn6      1.0000 0.54048  0.91273  0.39400  Biso   1.000  Zn
  P16      1.0000 0.51889  0.87686  0.61038  Biso   1.000  P
  H6       1.0000 0.61700  0.89300  0.66700  Biso   1.000  H
  P17      1.0000 0.76875  0.60697  0.71872  Biso   1.000  P
  O31      1.0000 0.58620  0.85680  0.51540  Biso   1.000  O
  O32      1.0000 0.44100  0.79560  0.64630  Biso   1.000  O
  O33      1.0000 0.43110  0.95910  0.60550  Biso   1.000  O
  O34      1.0000 0.83700  0.64510  0.80820  Biso   1.000  O
  O35      1.0000 0.64220  0.65020  0.69700  Biso   1.000  O
  O36      1.0000 0.85550  0.61370  0.63000  Biso   1.000  O
  P18      1.0000 0.70500  0.83250  0.21390  Biso   1.000  P
  Zn7      1.0000 0.04048  0.58727  0.60600  Biso   1.000  Zn
  P19      1.0000 0.01889  0.62314  0.38962  Biso   1.000  P
  H7       1.0000 0.11700  0.60700  0.33300  Biso   1.000  H
  P20      1.0000 0.26875  0.89303  0.28128  Biso   1.000  P
  O37      1.0000 0.08620  0.64320  0.48460  Biso   1.000  O
  O38      1.0000 0.94100  0.70440  0.35370  Biso   1.000  O
  O39      1.0000 0.93110  0.54090  0.39450  Biso   1.000  O
  O40      1.0000 0.33700  0.85490  0.19180  Biso   1.000  O
  O41      1.0000 0.14220  0.84980  0.30300  Biso   1.000  O
  O42      1.0000 0.35550  0.88630  0.37000  Biso   1.000  O
  P21      1.0000 0.20500  0.66750  0.78610  Biso   1.000  P
  Zn8      1.0000 0.45952  0.91273  0.10600  Biso   1.000  Zn
  P22      1.0000 0.48111  0.87686  0.88962  Biso   1.000  P
  H8       1.0000 0.38300  0.89300  0.83300  Biso   1.000  H
  P23      1.0000 0.23125  0.60697  0.78128  Biso   1.000  P
  O43      1.0000 0.41380  0.85680  0.98460  Biso   1.000  O
  O44      1.0000 0.55900  0.79560  0.85370  Biso   1.000  O
  O45      1.0000 0.56890  0.95910  0.89450  Biso   1.000  O
  O46      1.0000 0.16300  0.64510  0.69180  Biso   1.000  O
  O47      1.0000 0.35780  0.65020  0.80300  Biso   1.000  O
  O48      1.0000 0.14450  0.61370  0.87000  Biso   1.000  O
  P24      1.0000 0.29500  0.83250  0.28610  Biso   1.000  P
  Zn9      1.0000 0.00000  0.21703  0.75000  Biso   1.000  Zn
  Zn10     1.0000 0.50000  0.28297  0.25000  Biso   1.000  Zn
  Zn11     1.0000 0.00000  0.78297  0.25000  Biso   1.000  Zn
  Zn12     1.0000 0.50000  0.71703  0.75000  Biso   1.000  Zn
