data_image0
_cell_length_a       19.719
_cell_length_b       15.6642
_cell_length_c       27.118
_cell_angle_alpha    90
_cell_angle_beta     90
_cell_angle_gamma    90

_symmetry_space_group_name_H-M    "P 1"
_symmetry_int_tables_number       1

loop_
  _symmetry_equiv_pos_as_xyz
  'x, y, z'

loop_
  _atom_site_label
  _atom_site_occupancy
  _atom_site_fract_x
  _atom_site_fract_y
  _atom_site_fract_z
  _atom_site_thermal_displace_type
  _atom_site_B_iso_or_equiv
  _atom_site_type_symbol
  Co1      1.0000 0.01765  0.22862  0.52252  Biso   1.000  Co
  Co2      1.0000 0.03824  0.12752  0.42047  Biso   1.000  Co
  Co3      1.0000 0.96101  0.94923  0.37638  Biso   1.000  Co
  O1       1.0000 0.95201  0.21084  0.42076  Biso   1.000  O
  O2       1.0000 0.93020  0.26255  0.49571  Biso   1.000  O
  O3       1.0000 0.62153  0.38070  0.38335  Biso   1.000  O
  O4       1.0000 0.66060  0.49550  0.36810  Biso   1.000  O
  C1       1.0000 0.91736  0.25293  0.45050  Biso   1.000  C
  C2       1.0000 0.66890  0.42400  0.38821  Biso   1.000  C
  C3       1.0000 0.85492  0.29750  0.43240  Biso   1.000  C
  C4       1.0000 0.79827  0.25270  0.42032  Biso   1.000  C
  H1       1.0000 0.79870  0.19340  0.42130  Biso   1.000  H
  C5       1.0000 0.73879  0.29680  0.40628  Biso   1.000  C
  H2       1.0000 0.69990  0.26570  0.39890  Biso   1.000  H
  C6       1.0000 0.73672  0.38360  0.40321  Biso   1.000  C
  C7       1.0000 0.79468  0.43200  0.41393  Biso   1.000  C
  C8       1.0000 0.79880  0.52430  0.41208  Biso   1.000  C
  H3       1.0000 0.76110  0.55560  0.40230  Biso   1.000  H
  C9       1.0000 0.85710  0.56630  0.42440  Biso   1.000  C
  H4       1.0000 0.85820  0.62560  0.42280  Biso   1.000  H
  C10      1.0000 0.91340  0.52340  0.43884  Biso   1.000  C
  H5       1.0000 0.95260  0.55330  0.44710  Biso   1.000  H
  C11      1.0000 0.91272  0.43730  0.44127  Biso   1.000  C
  H6       1.0000 0.95190  0.40890  0.45100  Biso   1.000  H
  C12      1.0000 0.85403  0.38865  0.42952  Biso   1.000  C
  O5       1.0000 0.91006  0.05141  0.52634  Biso   1.000  O
  O6       1.0000 0.88219  0.95981  0.58598  Biso   1.000  O
  O7       1.0000 0.58481  0.19777  0.51087  Biso   1.000  O
  O8       1.0000 0.60680  0.27181  0.57964  Biso   1.000  O
  C13      1.0000 0.87035  0.02193  0.55815  Biso   1.000  C
  C14      1.0000 0.61868  0.21391  0.54916  Biso   1.000  C
  C15      1.0000 0.80244  0.06665  0.56121  Biso   1.000  C
  C16      1.0000 0.80276  0.15240  0.55256  Biso   1.000  C
  H7       1.0000 0.84380  0.18030  0.54730  Biso   1.000  H
  C17      1.0000 0.74208  0.19931  0.55142  Biso   1.000  C
  H8       1.0000 0.74380  0.25810  0.54690  Biso   1.000  H
  C18      1.0000 0.68110  0.16066  0.55671  Biso   1.000  C
  C19      1.0000 0.67776  0.07064  0.56557  Biso   1.000  C
  C20      1.0000 0.61504  0.02840  0.57155  Biso   1.000  C
  H9       1.0000 0.57490  0.05940  0.56940  Biso   1.000  H
  C21      1.0000 0.61260  0.94260  0.58040  Biso   1.000  C
  H10      1.0000 0.57110  0.91530  0.58430  Biso   1.000  H
  C22      1.0000 0.67290  0.89630  0.58360  Biso   1.000  C
  H11      1.0000 0.67110  0.83800  0.59010  Biso   1.000  H
  C23      1.0000 0.73427  0.93430  0.57762  Biso   1.000  C
  H12      1.0000 0.77340  0.90140  0.57930  Biso   1.000  H
  C24      1.0000 0.73986  0.02370  0.56876  Biso   1.000  C
  O9       1.0000 0.02166  0.84857  0.37621  Biso   1.000  O
  O10      1.0000 0.99212  0.72673  0.41106  Biso   1.000  O
  O11      1.0000 0.97275  0.63261  0.15533  Biso   1.000  O
  O12      1.0000 0.02203  0.51383  0.18491  Biso   1.000  O
  C25      1.0000 0.01018  0.77022  0.37446  Biso   1.000  C
  C26      1.0000 0.00185  0.59060  0.18802  Biso   1.000  C
  C27      1.0000 0.01681  0.72299  0.32654  Biso   1.000  C
  C28      1.0000 0.98053  0.64980  0.32183  Biso   1.000  C
  H13      1.0000 0.95670  0.62910  0.34890  Biso   1.000  H
  C29      1.0000 0.97791  0.60450  0.27713  Biso   1.000  C
  H14      1.0000 0.95320  0.55410  0.27510  Biso   1.000  H
  C30      1.0000 0.01147  0.63420  0.23668  Biso   1.000  C
  C31      1.0000 0.05315  0.70850  0.24021  Biso   1.000  C
  C32      1.0000 0.09203  0.73770  0.19991  Biso   1.000  C
  H15      1.0000 0.08980  0.70880  0.17000  Biso   1.000  H
  C33      1.0000 0.13290  0.80750  0.20413  Biso   1.000  C
  H16      1.0000 0.15800  0.82620  0.17720  Biso   1.000  H
  C34      1.0000 0.13680  0.85090  0.24892  Biso   1.000  C
  H17      1.0000 0.16520  0.89810  0.25160  Biso   1.000  H
  C35      1.0000 0.10012  0.82550  0.28864  Biso   1.000  C
  H18      1.0000 0.10370  0.85570  0.31800  Biso   1.000  H
  C36      1.0000 0.05666  0.75400  0.28622  Biso   1.000  C
  O13      1.0000 0.04774  0.11848  0.49910  Biso   1.000  O
  H19      1.0000 0.09570  0.11100  0.50760  Biso   1.000  H
  O14      1.0000 0.96724  0.03204  0.43015  Biso   1.000  O
  H20      1.0000 0.92280  0.05940  0.43350  Biso   1.000  H
  O15      1.0000 0.66440  0.50790  0.39400  Biso   1.000  O
  Co4      1.0000 0.48235  0.77138  0.02252  Biso   1.000  Co
  Co5      1.0000 0.46176  0.87248  0.92047  Biso   1.000  Co
  Co6      1.0000 0.53899  0.05077  0.87638  Biso   1.000  Co
  O16      1.0000 0.54799  0.78916  0.92076  Biso   1.000  O
  O17      1.0000 0.56980  0.73745  0.99571  Biso   1.000  O
  O18      1.0000 0.87847  0.61930  0.88335  Biso   1.000  O
  O19      1.0000 0.83940  0.50450  0.86810  Biso   1.000  O
  C37      1.0000 0.58264  0.74707  0.95050  Biso   1.000  C
  C38      1.0000 0.83110  0.57600  0.88821  Biso   1.000  C
  C39      1.0000 0.64508  0.70250  0.93240  Biso   1.000  C
  C40      1.0000 0.70173  0.74730  0.92032  Biso   1.000  C
  H21      1.0000 0.70130  0.80660  0.92130  Biso   1.000  H
  C41      1.0000 0.76121  0.70320  0.90628  Biso   1.000  C
  H22      1.0000 0.80010  0.73430  0.89890  Biso   1.000  H
  C42      1.0000 0.76328  0.61640  0.90321  Biso   1.000  C
  C43      1.0000 0.70532  0.56800  0.91393  Biso   1.000  C
  C44      1.0000 0.70120  0.47570  0.91208  Biso   1.000  C
  H23      1.0000 0.73890  0.44440  0.90230  Biso   1.000  H
  C45      1.0000 0.64290  0.43370  0.92440  Biso   1.000  C
  H24      1.0000 0.64180  0.37440  0.92280  Biso   1.000  H
  C46      1.0000 0.58660  0.47660  0.93884  Biso   1.000  C
  H25      1.0000 0.54740  0.44670  0.94710  Biso   1.000  H
  C47      1.0000 0.58728  0.56270  0.94127  Biso   1.000  C
  H26      1.0000 0.54810  0.59110  0.95100  Biso   1.000  H
  C48      1.0000 0.64597  0.61135  0.92952  Biso   1.000  C
  O20      1.0000 0.58994  0.94859  0.02634  Biso   1.000  O
  O21      1.0000 0.61781  0.04019  0.08598  Biso   1.000  O
  O22      1.0000 0.91519  0.80223  0.01087  Biso   1.000  O
  O23      1.0000 0.89320  0.72819  0.07964  Biso   1.000  O
  C49      1.0000 0.62965  0.97807  0.05815  Biso   1.000  C
  C50      1.0000 0.88132  0.78609  0.04916  Biso   1.000  C
  C51      1.0000 0.69756  0.93335  0.06121  Biso   1.000  C
  C52      1.0000 0.69724  0.84760  0.05256  Biso   1.000  C
  H27      1.0000 0.65620  0.81970  0.04730  Biso   1.000  H
  C53      1.0000 0.75792  0.80069  0.05142  Biso   1.000  C
  H28      1.0000 0.75620  0.74190  0.04690  Biso   1.000  H
  C54      1.0000 0.81890  0.83934  0.05671  Biso   1.000  C
  C55      1.0000 0.82224  0.92936  0.06557  Biso   1.000  C
  C56      1.0000 0.88496  0.97160  0.07155  Biso   1.000  C
  H29      1.0000 0.92510  0.94060  0.06940  Biso   1.000  H
  C57      1.0000 0.88740  0.05740  0.08040  Biso   1.000  C
  H30      1.0000 0.92890  0.08470  0.08430  Biso   1.000  H
  C58      1.0000 0.82710  0.10370  0.08360  Biso   1.000  C
  H31      1.0000 0.82890  0.16200  0.09010  Biso   1.000  H
  C59      1.0000 0.76573  0.06570  0.07762  Biso   1.000  C
  H32      1.0000 0.72660  0.09860  0.07930  Biso   1.000  H
  C60      1.0000 0.76014  0.97630  0.06876  Biso   1.000  C
  O24      1.0000 0.47834  0.15143  0.87621  Biso   1.000  O
  O25      1.0000 0.50788  0.27327  0.91106  Biso   1.000  O
  O26      1.0000 0.52725  0.36739  0.65533  Biso   1.000  O
  O27      1.0000 0.47797  0.48617  0.68491  Biso   1.000  O
  C61      1.0000 0.48982  0.22978  0.87446  Biso   1.000  C
  C62      1.0000 0.49815  0.40940  0.68802  Biso   1.000  C
  C63      1.0000 0.48319  0.27701  0.82654  Biso   1.000  C
  C64      1.0000 0.51947  0.35020  0.82183  Biso   1.000  C
  H33      1.0000 0.54330  0.37090  0.84890  Biso   1.000  H
  C65      1.0000 0.52209  0.39550  0.77713  Biso   1.000  C
  H34      1.0000 0.54680  0.44590  0.77510  Biso   1.000  H
  C66      1.0000 0.48853  0.36580  0.73668  Biso   1.000  C
  C67      1.0000 0.44685  0.29150  0.74021  Biso   1.000  C
  C68      1.0000 0.40797  0.26230  0.69991  Biso   1.000  C
  H35      1.0000 0.41020  0.29120  0.67000  Biso   1.000  H
  C69      1.0000 0.36710  0.19250  0.70413  Biso   1.000  C
  H36      1.0000 0.34200  0.17380  0.67720  Biso   1.000  H
  C70      1.0000 0.36320  0.14910  0.74892  Biso   1.000  C
  H37      1.0000 0.33480  0.10190  0.75160  Biso   1.000  H
  C71      1.0000 0.39988  0.17450  0.78864  Biso   1.000  C
  H38      1.0000 0.39630  0.14430  0.81800  Biso   1.000  H
  C72      1.0000 0.44334  0.24600  0.78622  Biso   1.000  C
  O28      1.0000 0.45226  0.88152  0.99910  Biso   1.000  O
  H39      1.0000 0.40430  0.88900  0.00760  Biso   1.000  H
  O29      1.0000 0.53276  0.96796  0.93015  Biso   1.000  O
  H40      1.0000 0.57720  0.94060  0.93350  Biso   1.000  H
  O30      1.0000 0.83560  0.49210  0.89400  Biso   1.000  O
  Co7      1.0000 0.98235  0.72862  0.97748  Biso   1.000  Co
  Co8      1.0000 0.96176  0.62752  0.07953  Biso   1.000  Co
  Co9      1.0000 0.03899  0.44923  0.12362  Biso   1.000  Co
  O31      1.0000 0.04799  0.71084  0.07924  Biso   1.000  O
  O32      1.0000 0.06980  0.76255  0.00429  Biso   1.000  O
  O33      1.0000 0.37847  0.88070  0.11665  Biso   1.000  O
  O34      1.0000 0.33940  0.99550  0.13190  Biso   1.000  O
  C73      1.0000 0.08264  0.75293  0.04950  Biso   1.000  C
  C74      1.0000 0.33110  0.92400  0.11179  Biso   1.000  C
  C75      1.0000 0.14508  0.79750  0.06760  Biso   1.000  C
  C76      1.0000 0.20173  0.75270  0.07968  Biso   1.000  C
  H41      1.0000 0.20130  0.69340  0.07870  Biso   1.000  H
  C77      1.0000 0.26121  0.79680  0.09372  Biso   1.000  C
  H42      1.0000 0.30010  0.76570  0.10110  Biso   1.000  H
  C78      1.0000 0.26328  0.88360  0.09679  Biso   1.000  C
  C79      1.0000 0.20532  0.93200  0.08607  Biso   1.000  C
  C80      1.0000 0.20120  0.02430  0.08792  Biso   1.000  C
  H43      1.0000 0.23890  0.05560  0.09770  Biso   1.000  H
  C81      1.0000 0.14290  0.06630  0.07560  Biso   1.000  C
  H44      1.0000 0.14180  0.12560  0.07720  Biso   1.000  H
  C82      1.0000 0.08660  0.02340  0.06116  Biso   1.000  C
  H45      1.0000 0.04740  0.05330  0.05290  Biso   1.000  H
  C83      1.0000 0.08728  0.93730  0.05873  Biso   1.000  C
  H46      1.0000 0.04810  0.90890  0.04900  Biso   1.000  H
  C84      1.0000 0.14597  0.88865  0.07048  Biso   1.000  C
  O35      1.0000 0.08994  0.55141  0.97366  Biso   1.000  O
  O36      1.0000 0.11781  0.45981  0.91402  Biso   1.000  O
  O37      1.0000 0.41519  0.69777  0.98913  Biso   1.000  O
  O38      1.0000 0.39320  0.77181  0.92036  Biso   1.000  O
  C85      1.0000 0.12965  0.52193  0.94185  Biso   1.000  C
  C86      1.0000 0.38132  0.71391  0.95084  Biso   1.000  C
  C87      1.0000 0.19756  0.56665  0.93879  Biso   1.000  C
  C88      1.0000 0.19724  0.65240  0.94744  Biso   1.000  C
  H47      1.0000 0.15620  0.68030  0.95270  Biso   1.000  H
  C89      1.0000 0.25792  0.69931  0.94858  Biso   1.000  C
  H48      1.0000 0.25620  0.75810  0.95310  Biso   1.000  H
  C90      1.0000 0.31890  0.66066  0.94329  Biso   1.000  C
  C91      1.0000 0.32224  0.57064  0.93443  Biso   1.000  C
  C92      1.0000 0.38496  0.52840  0.92845  Biso   1.000  C
  H49      1.0000 0.42510  0.55940  0.93060  Biso   1.000  H
  C93      1.0000 0.38740  0.44260  0.91960  Biso   1.000  C
  H50      1.0000 0.42890  0.41530  0.91570  Biso   1.000  H
  C94      1.0000 0.32710  0.39630  0.91640  Biso   1.000  C
  H51      1.0000 0.32890  0.33800  0.90990  Biso   1.000  H
  C95      1.0000 0.26573  0.43430  0.92238  Biso   1.000  C
  H52      1.0000 0.22660  0.40140  0.92070  Biso   1.000  H
  C96      1.0000 0.26014  0.52370  0.93124  Biso   1.000  C
  O39      1.0000 0.97834  0.34857  0.12379  Biso   1.000  O
  O40      1.0000 0.00788  0.22673  0.08894  Biso   1.000  O
  O41      1.0000 0.02725  0.13261  0.34467  Biso   1.000  O
  O42      1.0000 0.97797  0.01383  0.31509  Biso   1.000  O
  C97      1.0000 0.98982  0.27022  0.12554  Biso   1.000  C
  C98      1.0000 0.99815  0.09060  0.31198  Biso   1.000  C
  C99      1.0000 0.98319  0.22299  0.17346  Biso   1.000  C
  C100     1.0000 0.01947  0.14980  0.17817  Biso   1.000  C
  H53      1.0000 0.04330  0.12910  0.15110  Biso   1.000  H
  C101     1.0000 0.02209  0.10450  0.22287  Biso   1.000  C
  H54      1.0000 0.04680  0.05410  0.22490  Biso   1.000  H
  C102     1.0000 0.98853  0.13420  0.26332  Biso   1.000  C
  C103     1.0000 0.94685  0.20850  0.25979  Biso   1.000  C
  C104     1.0000 0.90797  0.23770  0.30009  Biso   1.000  C
  H55      1.0000 0.91020  0.20880  0.33000  Biso   1.000  H
  C105     1.0000 0.86710  0.30750  0.29587  Biso   1.000  C
  H56      1.0000 0.84200  0.32620  0.32280  Biso   1.000  H
  C106     1.0000 0.86320  0.35090  0.25108  Biso   1.000  C
  H57      1.0000 0.83480  0.39810  0.24840  Biso   1.000  H
  C107     1.0000 0.89988  0.32550  0.21136  Biso   1.000  C
  H58      1.0000 0.89630  0.35570  0.18200  Biso   1.000  H
  C108     1.0000 0.94334  0.25400  0.21378  Biso   1.000  C
  O43      1.0000 0.95226  0.61848  0.00090  Biso   1.000  O
  H59      1.0000 0.90430  0.61100  0.99240  Biso   1.000  H
  O44      1.0000 0.03276  0.53204  0.06985  Biso   1.000  O
  H60      1.0000 0.07720  0.55940  0.06650  Biso   1.000  H
  O45      1.0000 0.33560  0.00790  0.10600  Biso   1.000  O
  Co10     1.0000 0.51765  0.27138  0.47748  Biso   1.000  Co
  Co11     1.0000 0.53824  0.37248  0.57953  Biso   1.000  Co
  Co12     1.0000 0.46101  0.55077  0.62362  Biso   1.000  Co
  O46      1.0000 0.45201  0.28916  0.57924  Biso   1.000  O
  O47      1.0000 0.43020  0.23745  0.50429  Biso   1.000  O
  O48      1.0000 0.12153  0.11930  0.61665  Biso   1.000  O
  O49      1.0000 0.16060  0.00450  0.63190  Biso   1.000  O
  C109     1.0000 0.41736  0.24707  0.54950  Biso   1.000  C
  C110     1.0000 0.16890  0.07600  0.61179  Biso   1.000  C
  C111     1.0000 0.35492  0.20250  0.56760  Biso   1.000  C
  C112     1.0000 0.29827  0.24730  0.57968  Biso   1.000  C
  H61      1.0000 0.29870  0.30660  0.57870  Biso   1.000  H
  C113     1.0000 0.23879  0.20320  0.59372  Biso   1.000  C
  H62      1.0000 0.19990  0.23430  0.60110  Biso   1.000  H
  C114     1.0000 0.23672  0.11640  0.59679  Biso   1.000  C
  C115     1.0000 0.29468  0.06800  0.58607  Biso   1.000  C
  C116     1.0000 0.29880  0.97570  0.58792  Biso   1.000  C
  H63      1.0000 0.26110  0.94440  0.59770  Biso   1.000  H
  C117     1.0000 0.35710  0.93370  0.57560  Biso   1.000  C
  H64      1.0000 0.35820  0.87440  0.57720  Biso   1.000  H
  C118     1.0000 0.41340  0.97660  0.56116  Biso   1.000  C
  H65      1.0000 0.45260  0.94670  0.55290  Biso   1.000  H
  C119     1.0000 0.41272  0.06270  0.55873  Biso   1.000  C
  H66      1.0000 0.45190  0.09110  0.54900  Biso   1.000  H
  C120     1.0000 0.35403  0.11135  0.57048  Biso   1.000  C
  O50      1.0000 0.41006  0.44859  0.47366  Biso   1.000  O
  O51      1.0000 0.38219  0.54019  0.41402  Biso   1.000  O
  O52      1.0000 0.08481  0.30223  0.48913  Biso   1.000  O
  O53      1.0000 0.10680  0.22819  0.42036  Biso   1.000  O
  C121     1.0000 0.37035  0.47807  0.44185  Biso   1.000  C
  C122     1.0000 0.11868  0.28609  0.45084  Biso   1.000  C
  C123     1.0000 0.30244  0.43335  0.43879  Biso   1.000  C
  C124     1.0000 0.30276  0.34760  0.44744  Biso   1.000  C
  H67      1.0000 0.34380  0.31970  0.45270  Biso   1.000  H
  C125     1.0000 0.24208  0.30069  0.44858  Biso   1.000  C
  H68      1.0000 0.24380  0.24190  0.45310  Biso   1.000  H
  C126     1.0000 0.18110  0.33934  0.44329  Biso   1.000  C
  C127     1.0000 0.17776  0.42936  0.43443  Biso   1.000  C
  C128     1.0000 0.11504  0.47160  0.42845  Biso   1.000  C
  H69      1.0000 0.07490  0.44060  0.43060  Biso   1.000  H
  C129     1.0000 0.11260  0.55740  0.41960  Biso   1.000  C
  H70      1.0000 0.07110  0.58470  0.41570  Biso   1.000  H
  C130     1.0000 0.17290  0.60370  0.41640  Biso   1.000  C
  H71      1.0000 0.17110  0.66200  0.40990  Biso   1.000  H
  C131     1.0000 0.23427  0.56570  0.42238  Biso   1.000  C
  H72      1.0000 0.27340  0.59860  0.42070  Biso   1.000  H
  C132     1.0000 0.23986  0.47630  0.43124  Biso   1.000  C
  O54      1.0000 0.52166  0.65143  0.62379  Biso   1.000  O
  O55      1.0000 0.49212  0.77327  0.58894  Biso   1.000  O
  O56      1.0000 0.47275  0.86739  0.84467  Biso   1.000  O
  O57      1.0000 0.52203  0.98617  0.81509  Biso   1.000  O
  C133     1.0000 0.51018  0.72978  0.62554  Biso   1.000  C
  C134     1.0000 0.50185  0.90940  0.81198  Biso   1.000  C
  C135     1.0000 0.51681  0.77701  0.67346  Biso   1.000  C
  C136     1.0000 0.48053  0.85020  0.67817  Biso   1.000  C
  H73      1.0000 0.45670  0.87090  0.65110  Biso   1.000  H
  C137     1.0000 0.47791  0.89550  0.72287  Biso   1.000  C
  H74      1.0000 0.45320  0.94590  0.72490  Biso   1.000  H
  C138     1.0000 0.51147  0.86580  0.76332  Biso   1.000  C
  C139     1.0000 0.55315  0.79150  0.75979  Biso   1.000  C
  C140     1.0000 0.59203  0.76230  0.80009  Biso   1.000  C
  H75      1.0000 0.58980  0.79120  0.83000  Biso   1.000  H
  C141     1.0000 0.63290  0.69250  0.79587  Biso   1.000  C
  H76      1.0000 0.65800  0.67380  0.82280  Biso   1.000  H
  C142     1.0000 0.63680  0.64910  0.75108  Biso   1.000  C
  H77      1.0000 0.66520  0.60190  0.74840  Biso   1.000  H
  C143     1.0000 0.60012  0.67450  0.71136  Biso   1.000  C
  H78      1.0000 0.60370  0.64430  0.68200  Biso   1.000  H
  C144     1.0000 0.55666  0.74600  0.71378  Biso   1.000  C
  O58      1.0000 0.54774  0.38152  0.50090  Biso   1.000  O
  H79      1.0000 0.59570  0.38900  0.49240  Biso   1.000  H
  O59      1.0000 0.46724  0.46796  0.56985  Biso   1.000  O
  H80      1.0000 0.42280  0.44060  0.56650  Biso   1.000  H
  O60      1.0000 0.16440  0.99210  0.60600  Biso   1.000  O
  Co13     1.0000 0.98235  0.77138  0.47748  Biso   1.000  Co
  Co14     1.0000 0.96176  0.87248  0.57953  Biso   1.000  Co
  Co15     1.0000 0.03899  0.05077  0.62362  Biso   1.000  Co
  O61      1.0000 0.04799  0.78916  0.57924  Biso   1.000  O
  O62      1.0000 0.06980  0.73745  0.50429  Biso   1.000  O
  O63      1.0000 0.37847  0.61930  0.61665  Biso   1.000  O
  O64      1.0000 0.33940  0.50450  0.63190  Biso   1.000  O
  C145     1.0000 0.08264  0.74707  0.54950  Biso   1.000  C
  C146     1.0000 0.33110  0.57600  0.61179  Biso   1.000  C
  C147     1.0000 0.14508  0.70250  0.56760  Biso   1.000  C
  C148     1.0000 0.20173  0.74730  0.57968  Biso   1.000  C
  H81      1.0000 0.20130  0.80660  0.57870  Biso   1.000  H
  C149     1.0000 0.26121  0.70320  0.59372  Biso   1.000  C
  H82      1.0000 0.30010  0.73430  0.60110  Biso   1.000  H
  C150     1.0000 0.26328  0.61640  0.59679  Biso   1.000  C
  C151     1.0000 0.20532  0.56800  0.58607  Biso   1.000  C
  C152     1.0000 0.20120  0.47570  0.58792  Biso   1.000  C
  H83      1.0000 0.23890  0.44440  0.59770  Biso   1.000  H
  C153     1.0000 0.14290  0.43370  0.57560  Biso   1.000  C
  H84      1.0000 0.14180  0.37440  0.57720  Biso   1.000  H
  C154     1.0000 0.08660  0.47660  0.56116  Biso   1.000  C
  H85      1.0000 0.04740  0.44670  0.55290  Biso   1.000  H
  C155     1.0000 0.08728  0.56270  0.55873  Biso   1.000  C
  H86      1.0000 0.04810  0.59110  0.54900  Biso   1.000  H
  C156     1.0000 0.14597  0.61135  0.57048  Biso   1.000  C
  O65      1.0000 0.08994  0.94859  0.47366  Biso   1.000  O
  O66      1.0000 0.11781  0.04019  0.41402  Biso   1.000  O
  O67      1.0000 0.41519  0.80223  0.48913  Biso   1.000  O
  O68      1.0000 0.39320  0.72819  0.42036  Biso   1.000  O
  C157     1.0000 0.12965  0.97807  0.44185  Biso   1.000  C
  C158     1.0000 0.38132  0.78609  0.45084  Biso   1.000  C
  C159     1.0000 0.19756  0.93335  0.43879  Biso   1.000  C
  C160     1.0000 0.19724  0.84760  0.44744  Biso   1.000  C
  H87      1.0000 0.15620  0.81970  0.45270  Biso   1.000  H
  C161     1.0000 0.25792  0.80069  0.44858  Biso   1.000  C
  H88      1.0000 0.25620  0.74190  0.45310  Biso   1.000  H
  C162     1.0000 0.31890  0.83934  0.44329  Biso   1.000  C
  C163     1.0000 0.32224  0.92936  0.43443  Biso   1.000  C
  C164     1.0000 0.38496  0.97160  0.42845  Biso   1.000  C
  H89      1.0000 0.42510  0.94060  0.43060  Biso   1.000  H
  C165     1.0000 0.38740  0.05740  0.41960  Biso   1.000  C
  H90      1.0000 0.42890  0.08470  0.41570  Biso   1.000  H
  C166     1.0000 0.32710  0.10370  0.41640  Biso   1.000  C
  H91      1.0000 0.32890  0.16200  0.40990  Biso   1.000  H
  C167     1.0000 0.26573  0.06570  0.42238  Biso   1.000  C
  H92      1.0000 0.22660  0.09860  0.42070  Biso   1.000  H
  C168     1.0000 0.26014  0.97630  0.43124  Biso   1.000  C
  O69      1.0000 0.97834  0.15143  0.62379  Biso   1.000  O
  O70      1.0000 0.00788  0.27327  0.58894  Biso   1.000  O
  O71      1.0000 0.02725  0.36739  0.84467  Biso   1.000  O
  O72      1.0000 0.97797  0.48617  0.81509  Biso   1.000  O
  C169     1.0000 0.98982  0.22978  0.62554  Biso   1.000  C
  C170     1.0000 0.99815  0.40940  0.81198  Biso   1.000  C
  C171     1.0000 0.98319  0.27701  0.67346  Biso   1.000  C
  C172     1.0000 0.01947  0.35020  0.67817  Biso   1.000  C
  H93      1.0000 0.04330  0.37090  0.65110  Biso   1.000  H
  C173     1.0000 0.02209  0.39550  0.72287  Biso   1.000  C
  H94      1.0000 0.04680  0.44590  0.72490  Biso   1.000  H
  C174     1.0000 0.98853  0.36580  0.76332  Biso   1.000  C
  C175     1.0000 0.94685  0.29150  0.75979  Biso   1.000  C
  C176     1.0000 0.90797  0.26230  0.80009  Biso   1.000  C
  H95      1.0000 0.91020  0.29120  0.83000  Biso   1.000  H
  C177     1.0000 0.86710  0.19250  0.79587  Biso   1.000  C
  H96      1.0000 0.84200  0.17380  0.82280  Biso   1.000  H
  C178     1.0000 0.86320  0.14910  0.75108  Biso   1.000  C
  H97      1.0000 0.83480  0.10190  0.74840  Biso   1.000  H
  C179     1.0000 0.89988  0.17450  0.71136  Biso   1.000  C
  H98      1.0000 0.89630  0.14430  0.68200  Biso   1.000  H
  C180     1.0000 0.94334  0.24600  0.71378  Biso   1.000  C
  O73      1.0000 0.95226  0.88152  0.50090  Biso   1.000  O
  H99      1.0000 0.90430  0.88900  0.49240  Biso   1.000  H
  O74      1.0000 0.03276  0.96796  0.56985  Biso   1.000  O
  H100     1.0000 0.07720  0.94060  0.56650  Biso   1.000  H
  O75      1.0000 0.33560  0.49210  0.60600  Biso   1.000  O
  Co16     1.0000 0.51765  0.22862  0.97748  Biso   1.000  Co
  Co17     1.0000 0.53824  0.12752  0.07953  Biso   1.000  Co
  Co18     1.0000 0.46101  0.94923  0.12362  Biso   1.000  Co
  O76      1.0000 0.45201  0.21084  0.07924  Biso   1.000  O
  O77      1.0000 0.43020  0.26255  0.00429  Biso   1.000  O
  O78      1.0000 0.12153  0.38070  0.11665  Biso   1.000  O
  O79      1.0000 0.16060  0.49550  0.13190  Biso   1.000  O
  C181     1.0000 0.41736  0.25293  0.04950  Biso   1.000  C
  C182     1.0000 0.16890  0.42400  0.11179  Biso   1.000  C
  C183     1.0000 0.35492  0.29750  0.06760  Biso   1.000  C
  C184     1.0000 0.29827  0.25270  0.07968  Biso   1.000  C
  H101     1.0000 0.29870  0.19340  0.07870  Biso   1.000  H
  C185     1.0000 0.23879  0.29680  0.09372  Biso   1.000  C
  H102     1.0000 0.19990  0.26570  0.10110  Biso   1.000  H
  C186     1.0000 0.23672  0.38360  0.09679  Biso   1.000  C
  C187     1.0000 0.29468  0.43200  0.08607  Biso   1.000  C
  C188     1.0000 0.29880  0.52430  0.08792  Biso   1.000  C
  H103     1.0000 0.26110  0.55560  0.09770  Biso   1.000  H
  C189     1.0000 0.35710  0.56630  0.07560  Biso   1.000  C
  H104     1.0000 0.35820  0.62560  0.07720  Biso   1.000  H
  C190     1.0000 0.41340  0.52340  0.06116  Biso   1.000  C
  H105     1.0000 0.45260  0.55330  0.05290  Biso   1.000  H
  C191     1.0000 0.41272  0.43730  0.05873  Biso   1.000  C
  H106     1.0000 0.45190  0.40890  0.04900  Biso   1.000  H
  C192     1.0000 0.35403  0.38865  0.07048  Biso   1.000  C
  O80      1.0000 0.41006  0.05141  0.97366  Biso   1.000  O
  O81      1.0000 0.38219  0.95981  0.91402  Biso   1.000  O
  O82      1.0000 0.08481  0.19777  0.98913  Biso   1.000  O
  O83      1.0000 0.10680  0.27181  0.92036  Biso   1.000  O
  C193     1.0000 0.37035  0.02193  0.94185  Biso   1.000  C
  C194     1.0000 0.11868  0.21391  0.95084  Biso   1.000  C
  C195     1.0000 0.30244  0.06665  0.93879  Biso   1.000  C
  C196     1.0000 0.30276  0.15240  0.94744  Biso   1.000  C
  H107     1.0000 0.34380  0.18030  0.95270  Biso   1.000  H
  C197     1.0000 0.24208  0.19931  0.94858  Biso   1.000  C
  H108     1.0000 0.24380  0.25810  0.95310  Biso   1.000  H
  C198     1.0000 0.18110  0.16066  0.94329  Biso   1.000  C
  C199     1.0000 0.17776  0.07064  0.93443  Biso   1.000  C
  C200     1.0000 0.11504  0.02840  0.92845  Biso   1.000  C
  H109     1.0000 0.07490  0.05940  0.93060  Biso   1.000  H
  C201     1.0000 0.11260  0.94260  0.91960  Biso   1.000  C
  H110     1.0000 0.07110  0.91530  0.91570  Biso   1.000  H
  C202     1.0000 0.17290  0.89630  0.91640  Biso   1.000  C
  H111     1.0000 0.17110  0.83800  0.90990  Biso   1.000  H
  C203     1.0000 0.23427  0.93430  0.92238  Biso   1.000  C
  H112     1.0000 0.27340  0.90140  0.92070  Biso   1.000  H
  C204     1.0000 0.23986  0.02370  0.93124  Biso   1.000  C
  O84      1.0000 0.52166  0.84857  0.12379  Biso   1.000  O
  O85      1.0000 0.49212  0.72673  0.08894  Biso   1.000  O
  O86      1.0000 0.47275  0.63261  0.34467  Biso   1.000  O
  O87      1.0000 0.52203  0.51383  0.31509  Biso   1.000  O
  C205     1.0000 0.51018  0.77022  0.12554  Biso   1.000  C
  C206     1.0000 0.50185  0.59060  0.31198  Biso   1.000  C
  C207     1.0000 0.51681  0.72299  0.17346  Biso   1.000  C
  C208     1.0000 0.48053  0.64980  0.17817  Biso   1.000  C
  H113     1.0000 0.45670  0.62910  0.15110  Biso   1.000  H
  C209     1.0000 0.47791  0.60450  0.22287  Biso   1.000  C
  H114     1.0000 0.45320  0.55410  0.22490  Biso   1.000  H
  C210     1.0000 0.51147  0.63420  0.26332  Biso   1.000  C
  C211     1.0000 0.55315  0.70850  0.25979  Biso   1.000  C
  C212     1.0000 0.59203  0.73770  0.30009  Biso   1.000  C
  H115     1.0000 0.58980  0.70880  0.33000  Biso   1.000  H
  C213     1.0000 0.63290  0.80750  0.29587  Biso   1.000  C
  H116     1.0000 0.65800  0.82620  0.32280  Biso   1.000  H
  C214     1.0000 0.63680  0.85090  0.25108  Biso   1.000  C
  H117     1.0000 0.66520  0.89810  0.24840  Biso   1.000  H
  C215     1.0000 0.60012  0.82550  0.21136  Biso   1.000  C
  H118     1.0000 0.60370  0.85570  0.18200  Biso   1.000  H
  C216     1.0000 0.55666  0.75400  0.21378  Biso   1.000  C
  O88      1.0000 0.54774  0.11848  0.00090  Biso   1.000  O
  H119     1.0000 0.59570  0.11100  0.99240  Biso   1.000  H
  O89      1.0000 0.46724  0.03204  0.06985  Biso   1.000  O
  H120     1.0000 0.42280  0.05940  0.06650  Biso   1.000  H
  O90      1.0000 0.16440  0.50790  0.10600  Biso   1.000  O
  Co19     1.0000 0.01765  0.27138  0.02252  Biso   1.000  Co
  Co20     1.0000 0.03824  0.37248  0.92047  Biso   1.000  Co
  Co21     1.0000 0.96101  0.55077  0.87638  Biso   1.000  Co
  O91      1.0000 0.95201  0.28916  0.92076  Biso   1.000  O
  O92      1.0000 0.93020  0.23745  0.99571  Biso   1.000  O
  O93      1.0000 0.62153  0.11930  0.88335  Biso   1.000  O
  O94      1.0000 0.66060  0.00450  0.86810  Biso   1.000  O
  C217     1.0000 0.91736  0.24707  0.95050  Biso   1.000  C
  C218     1.0000 0.66890  0.07600  0.88821  Biso   1.000  C
  C219     1.0000 0.85492  0.20250  0.93240  Biso   1.000  C
  C220     1.0000 0.79827  0.24730  0.92032  Biso   1.000  C
  H121     1.0000 0.79870  0.30660  0.92130  Biso   1.000  H
  C221     1.0000 0.73879  0.20320  0.90628  Biso   1.000  C
  H122     1.0000 0.69990  0.23430  0.89890  Biso   1.000  H
  C222     1.0000 0.73672  0.11640  0.90321  Biso   1.000  C
  C223     1.0000 0.79468  0.06800  0.91393  Biso   1.000  C
  C224     1.0000 0.79880  0.97570  0.91208  Biso   1.000  C
  H123     1.0000 0.76110  0.94440  0.90230  Biso   1.000  H
  C225     1.0000 0.85710  0.93370  0.92440  Biso   1.000  C
  H124     1.0000 0.85820  0.87440  0.92280  Biso   1.000  H
  C226     1.0000 0.91340  0.97660  0.93884  Biso   1.000  C
  H125     1.0000 0.95260  0.94670  0.94710  Biso   1.000  H
  C227     1.0000 0.91272  0.06270  0.94127  Biso   1.000  C
  H126     1.0000 0.95190  0.09110  0.95100  Biso   1.000  H
  C228     1.0000 0.85403  0.11135  0.92952  Biso   1.000  C
  O95      1.0000 0.91006  0.44859  0.02634  Biso   1.000  O
  O96      1.0000 0.88219  0.54019  0.08598  Biso   1.000  O
  O97      1.0000 0.58481  0.30223  0.01087  Biso   1.000  O
  O98      1.0000 0.60680  0.22819  0.07964  Biso   1.000  O
  C229     1.0000 0.87035  0.47807  0.05815  Biso   1.000  C
  C230     1.0000 0.61868  0.28609  0.04916  Biso   1.000  C
  C231     1.0000 0.80244  0.43335  0.06121  Biso   1.000  C
  C232     1.0000 0.80276  0.34760  0.05256  Biso   1.000  C
  H127     1.0000 0.84380  0.31970  0.04730  Biso   1.000  H
  C233     1.0000 0.74208  0.30069  0.05142  Biso   1.000  C
  H128     1.0000 0.74380  0.24190  0.04690  Biso   1.000  H
  C234     1.0000 0.68110  0.33934  0.05671  Biso   1.000  C
  C235     1.0000 0.67776  0.42936  0.06557  Biso   1.000  C
  C236     1.0000 0.61504  0.47160  0.07155  Biso   1.000  C
  H129     1.0000 0.57490  0.44060  0.06940  Biso   1.000  H
  C237     1.0000 0.61260  0.55740  0.08040  Biso   1.000  C
  H130     1.0000 0.57110  0.58470  0.08430  Biso   1.000  H
  C238     1.0000 0.67290  0.60370  0.08360  Biso   1.000  C
  H131     1.0000 0.67110  0.66200  0.09010  Biso   1.000  H
  C239     1.0000 0.73427  0.56570  0.07762  Biso   1.000  C
  H132     1.0000 0.77340  0.59860  0.07930  Biso   1.000  H
  C240     1.0000 0.73986  0.47630  0.06876  Biso   1.000  C
  O99      1.0000 0.02166  0.65143  0.87621  Biso   1.000  O
  O100     1.0000 0.99212  0.77327  0.91106  Biso   1.000  O
  O101     1.0000 0.97275  0.86739  0.65533  Biso   1.000  O
  O102     1.0000 0.02203  0.98617  0.68491  Biso   1.000  O
  C241     1.0000 0.01018  0.72978  0.87446  Biso   1.000  C
  C242     1.0000 0.00185  0.90940  0.68802  Biso   1.000  C
  C243     1.0000 0.01681  0.77701  0.82654  Biso   1.000  C
  C244     1.0000 0.98053  0.85020  0.82183  Biso   1.000  C
  H133     1.0000 0.95670  0.87090  0.84890  Biso   1.000  H
  C245     1.0000 0.97791  0.89550  0.77713  Biso   1.000  C
  H134     1.0000 0.95320  0.94590  0.77510  Biso   1.000  H
  C246     1.0000 0.01147  0.86580  0.73668  Biso   1.000  C
  C247     1.0000 0.05315  0.79150  0.74021  Biso   1.000  C
  C248     1.0000 0.09203  0.76230  0.69991  Biso   1.000  C
  H135     1.0000 0.08980  0.79120  0.67000  Biso   1.000  H
  C249     1.0000 0.13290  0.69250  0.70413  Biso   1.000  C
  H136     1.0000 0.15800  0.67380  0.67720  Biso   1.000  H
  C250     1.0000 0.13680  0.64910  0.74892  Biso   1.000  C
  H137     1.0000 0.16520  0.60190  0.75160  Biso   1.000  H
  C251     1.0000 0.10012  0.67450  0.78864  Biso   1.000  C
  H138     1.0000 0.10370  0.64430  0.81800  Biso   1.000  H
  C252     1.0000 0.05666  0.74600  0.78622  Biso   1.000  C
  O103     1.0000 0.04774  0.38152  0.99910  Biso   1.000  O
  H139     1.0000 0.09570  0.38900  0.00760  Biso   1.000  H
  O104     1.0000 0.96724  0.46796  0.93015  Biso   1.000  O
  H140     1.0000 0.92280  0.44060  0.93350  Biso   1.000  H
  O105     1.0000 0.66440  0.99210  0.89400  Biso   1.000  O
  Co22     1.0000 0.48235  0.72862  0.52252  Biso   1.000  Co
  Co23     1.0000 0.46176  0.62752  0.42047  Biso   1.000  Co
  Co24     1.0000 0.53899  0.44923  0.37638  Biso   1.000  Co
  O106     1.0000 0.54799  0.71084  0.42076  Biso   1.000  O
  O107     1.0000 0.56980  0.76255  0.49571  Biso   1.000  O
  O108     1.0000 0.87847  0.88070  0.38335  Biso   1.000  O
  O109     1.0000 0.83940  0.99550  0.36810  Biso   1.000  O
  C253     1.0000 0.58264  0.75293  0.45050  Biso   1.000  C
  C254     1.0000 0.83110  0.92400  0.38821  Biso   1.000  C
  C255     1.0000 0.64508  0.79750  0.43240  Biso   1.000  C
  C256     1.0000 0.70173  0.75270  0.42032  Biso   1.000  C
  H141     1.0000 0.70130  0.69340  0.42130  Biso   1.000  H
  C257     1.0000 0.76121  0.79680  0.40628  Biso   1.000  C
  H142     1.0000 0.80010  0.76570  0.39890  Biso   1.000  H
  C258     1.0000 0.76328  0.88360  0.40321  Biso   1.000  C
  C259     1.0000 0.70532  0.93200  0.41393  Biso   1.000  C
  C260     1.0000 0.70120  0.02430  0.41208  Biso   1.000  C
  H143     1.0000 0.73890  0.05560  0.40230  Biso   1.000  H
  C261     1.0000 0.64290  0.06630  0.42440  Biso   1.000  C
  H144     1.0000 0.64180  0.12560  0.42280  Biso   1.000  H
  C262     1.0000 0.58660  0.02340  0.43884  Biso   1.000  C
  H145     1.0000 0.54740  0.05330  0.44710  Biso   1.000  H
  C263     1.0000 0.58728  0.93730  0.44127  Biso   1.000  C
  H146     1.0000 0.54810  0.90890  0.45100  Biso   1.000  H
  C264     1.0000 0.64597  0.88865  0.42952  Biso   1.000  C
  O110     1.0000 0.58994  0.55141  0.52634  Biso   1.000  O
  O111     1.0000 0.61781  0.45981  0.58598  Biso   1.000  O
  O112     1.0000 0.91519  0.69777  0.51087  Biso   1.000  O
  O113     1.0000 0.89320  0.77181  0.57964  Biso   1.000  O
  C265     1.0000 0.62965  0.52193  0.55815  Biso   1.000  C
  C266     1.0000 0.88132  0.71391  0.54916  Biso   1.000  C
  C267     1.0000 0.69756  0.56665  0.56121  Biso   1.000  C
  C268     1.0000 0.69724  0.65240  0.55256  Biso   1.000  C
  H147     1.0000 0.65620  0.68030  0.54730  Biso   1.000  H
  C269     1.0000 0.75792  0.69931  0.55142  Biso   1.000  C
  H148     1.0000 0.75620  0.75810  0.54690  Biso   1.000  H
  C270     1.0000 0.81890  0.66066  0.55671  Biso   1.000  C
  C271     1.0000 0.82224  0.57064  0.56557  Biso   1.000  C
  C272     1.0000 0.88496  0.52840  0.57155  Biso   1.000  C
  H149     1.0000 0.92510  0.55940  0.56940  Biso   1.000  H
  C273     1.0000 0.88740  0.44260  0.58040  Biso   1.000  C
  H150     1.0000 0.92890  0.41530  0.58430  Biso   1.000  H
  C274     1.0000 0.82710  0.39630  0.58360  Biso   1.000  C
  H151     1.0000 0.82890  0.33800  0.59010  Biso   1.000  H
  C275     1.0000 0.76573  0.43430  0.57762  Biso   1.000  C
  H152     1.0000 0.72660  0.40140  0.57930  Biso   1.000  H
  C276     1.0000 0.76014  0.52370  0.56876  Biso   1.000  C
  O114     1.0000 0.47834  0.34857  0.37621  Biso   1.000  O
  O115     1.0000 0.50788  0.22673  0.41106  Biso   1.000  O
  O116     1.0000 0.52725  0.13261  0.15533  Biso   1.000  O
  O117     1.0000 0.47797  0.01383  0.18491  Biso   1.000  O
  C277     1.0000 0.48982  0.27022  0.37446  Biso   1.000  C
  C278     1.0000 0.49815  0.09060  0.18802  Biso   1.000  C
  C279     1.0000 0.48319  0.22299  0.32654  Biso   1.000  C
  C280     1.0000 0.51947  0.14980  0.32183  Biso   1.000  C
  H153     1.0000 0.54330  0.12910  0.34890  Biso   1.000  H
  C281     1.0000 0.52209  0.10450  0.27713  Biso   1.000  C
  H154     1.0000 0.54680  0.05410  0.27510  Biso   1.000  H
  C282     1.0000 0.48853  0.13420  0.23668  Biso   1.000  C
  C283     1.0000 0.44685  0.20850  0.24021  Biso   1.000  C
  C284     1.0000 0.40797  0.23770  0.19991  Biso   1.000  C
  H155     1.0000 0.41020  0.20880  0.17000  Biso   1.000  H
  C285     1.0000 0.36710  0.30750  0.20413  Biso   1.000  C
  H156     1.0000 0.34200  0.32620  0.17720  Biso   1.000  H
  C286     1.0000 0.36320  0.35090  0.24892  Biso   1.000  C
  H157     1.0000 0.33480  0.39810  0.25160  Biso   1.000  H
  C287     1.0000 0.39988  0.32550  0.28864  Biso   1.000  C
  H158     1.0000 0.39630  0.35570  0.31800  Biso   1.000  H
  C288     1.0000 0.44334  0.25400  0.28622  Biso   1.000  C
  O118     1.0000 0.45226  0.61848  0.49910  Biso   1.000  O
  H159     1.0000 0.40430  0.61100  0.50760  Biso   1.000  H
  O119     1.0000 0.53276  0.53204  0.43015  Biso   1.000  O
  H160     1.0000 0.57720  0.55940  0.43350  Biso   1.000  H
  O120     1.0000 0.83560  0.00790  0.39400  Biso   1.000  O
  Co25     1.0000 0.00000  0.00000  0.50000  Biso   1.000  Co
  Co26     1.0000 0.50000  0.00000  0.00000  Biso   1.000  Co
  Co27     1.0000 0.00000  0.50000  0.00000  Biso   1.000  Co
  Co28     1.0000 0.50000  0.50000  0.50000  Biso   1.000  Co
