data_image0
_cell_length_a       21.9718
_cell_length_b       17.3189
_cell_length_c       17.7104
_cell_angle_alpha    90
_cell_angle_beta     90
_cell_angle_gamma    90

_symmetry_space_group_name_H-M    "P 1"
_symmetry_int_tables_number       1

loop_
  _symmetry_equiv_pos_as_xyz
  'x, y, z'

loop_
  _atom_site_label
  _atom_site_occupancy
  _atom_site_fract_x
  _atom_site_fract_y
  _atom_site_fract_z
  _atom_site_thermal_displace_type
  _atom_site_B_iso_or_equiv
  _atom_site_type_symbol
  Cd1      1.0000 0.37679  0.53771  0.06949  Biso   1.000  Cd
  Cd2      1.0000 0.24217  0.59084  0.96765  Biso   1.000  Cd
  O1       1.0000 0.26750  0.51660  0.08600  Biso   1.000  O
  O2       1.0000 0.20990  0.46330  0.99810  Biso   1.000  O
  O3       1.0000 0.19710  0.42400  0.34700  Biso   1.000  O
  O4       1.0000 0.25070  0.31720  0.36490  Biso   1.000  O
  O5       1.0000 0.13750  0.14610  0.13130  Biso   1.000  O
  O6       1.0000 0.19360  0.17320  0.03120  Biso   1.000  O
  O7       1.0000 0.10830  0.05900  0.48610  Biso   1.000  O
  O8       1.0000 0.16760  0.97280  0.43570  Biso   1.000  O
  N1       1.0000 0.39560  0.45840  0.16880  Biso   1.000  N
  N2       1.0000 0.65730  0.14010  0.47180  Biso   1.000  N
  C1       1.0000 0.22240  0.39540  0.11320  Biso   1.000  C
  C2       1.0000 0.20790  0.32370  0.08530  Biso   1.000  C
  H1       1.0000 0.20660  0.31640  0.03330  Biso   1.000  H
  C3       1.0000 0.19520  0.26170  0.13260  Biso   1.000  C
  C4       1.0000 0.19800  0.27160  0.21160  Biso   1.000  C
  C5       1.0000 0.21430  0.34560  0.24000  Biso   1.000  C
  C6       1.0000 0.22600  0.40510  0.19050  Biso   1.000  C
  H2       1.0000 0.23660  0.45330  0.20960  Biso   1.000  H
  C7       1.0000 0.23480  0.46230  0.06130  Biso   1.000  C
  C8       1.0000 0.22150  0.36150  0.32350  Biso   1.000  C
  C9       1.0000 0.17490  0.18800  0.09540  Biso   1.000  C
  C10      1.0000 0.14360  0.03800  0.43510  Biso   1.000  C
  C11      1.0000 0.15760  0.09540  0.37270  Biso   1.000  C
  C12      1.0000 0.20590  0.08600  0.32410  Biso   1.000  C
  H3       1.0000 0.22950  0.04160  0.32730  Biso   1.000  H
  C13      1.0000 0.21980  0.14160  0.27050  Biso   1.000  C
  H4       1.0000 0.25280  0.13460  0.23820  Biso   1.000  H
  C14      1.0000 0.18440  0.20760  0.26520  Biso   1.000  C
  C15      1.0000 0.13490  0.21570  0.31340  Biso   1.000  C
  H5       1.0000 0.11010  0.25900  0.30950  Biso   1.000  H
  C16      1.0000 0.12220  0.16050  0.36660  Biso   1.000  C
  H6       1.0000 0.08920  0.16710  0.39890  Biso   1.000  H
  C17      1.0000 0.37640  0.38380  0.16510  Biso   1.000  C
  H7       1.0000 0.36110  0.36510  0.11970  Biso   1.000  H
  C18      1.0000 0.37900  0.33410  0.22790  Biso   1.000  C
  H8       1.0000 0.36500  0.28350  0.22430  Biso   1.000  H
  C19      1.0000 0.40340  0.36250  0.29670  Biso   1.000  C
  C20      1.0000 0.42420  0.43600  0.29700  Biso   1.000  C
  H9       1.0000 0.44210  0.45570  0.34060  Biso   1.000  H
  C21      1.0000 0.41920  0.48250  0.23360  Biso   1.000  C
  H10      1.0000 0.43320  0.53310  0.23670  Biso   1.000  H
  C22      1.0000 0.40780  0.32340  0.37340  Biso   1.000  C
  H11      1.0000 0.38900  0.35780  0.40980  Biso   1.000  H
  H12      1.0000 0.38260  0.27740  0.37120  Biso   1.000  H
  C23      1.0000 0.46870  0.29920  0.40580  Biso   1.000  C
  H13      1.0000 0.46340  0.28360  0.45790  Biso   1.000  H
  H14      1.0000 0.49630  0.34290  0.40480  Biso   1.000  H
  C24      1.0000 0.49640  0.23300  0.36140  Biso   1.000  C
  H15      1.0000 0.50570  0.25000  0.31060  Biso   1.000  H
  H16      1.0000 0.46730  0.19100  0.35810  Biso   1.000  H
  C25      1.0000 0.64040  0.12540  0.40060  Biso   1.000  C
  H17      1.0000 0.66570  0.09290  0.37300  Biso   1.000  H
  C26      1.0000 0.59040  0.15280  0.36420  Biso   1.000  C
  H18      1.0000 0.58130  0.13620  0.31560  Biso   1.000  H
  C27      1.0000 0.55420  0.20470  0.39960  Biso   1.000  C
  C28      1.0000 0.63500  0.20780  0.49340  Biso   1.000  C
  H19      1.0000 0.65530  0.23770  0.52900  Biso   1.000  H
  C29      1.0000 0.58200  0.23270  0.46240  Biso   1.000  C
  H20      1.0000 0.56250  0.27330  0.48680  Biso   1.000  H
  C30      1.0000 0.40110  0.29320  0.34940  Biso   1.000  C
  H21      1.0000 0.38150  0.30680  0.39660  Biso   1.000  H
  H22      1.0000 0.37880  0.25110  0.32640  Biso   1.000  H
  C31      1.0000 0.46700  0.27020  0.36310  Biso   1.000  C
  H23      1.0000 0.48430  0.25080  0.31640  Biso   1.000  H
  H24      1.0000 0.49010  0.31530  0.37820  Biso   1.000  H
  C32      1.0000 0.47230  0.20860  0.42380  Biso   1.000  C
  H25      1.0000 0.45720  0.22970  0.47090  Biso   1.000  H
  H26      1.0000 0.44630  0.16560  0.41020  Biso   1.000  H
  C33      1.0000 0.62610  0.09980  0.42030  Biso   1.000  C
  H27      1.0000 0.64240  0.05490  0.39960  Biso   1.000  H
  C34      1.0000 0.57020  0.12550  0.39850  Biso   1.000  C
  H28      1.0000 0.55390  0.10530  0.35430  Biso   1.000  H
  C35      1.0000 0.53630  0.17850  0.43660  Biso   1.000  C
  C36      1.0000 0.61890  0.17820  0.51710  Biso   1.000  C
  H29      1.0000 0.63360  0.18970  0.56510  Biso   1.000  H
  C37      1.0000 0.56120  0.20220  0.50240  Biso   1.000  C
  H30      1.0000 0.53990  0.23350  0.53590  Biso   1.000  H
  Cd3      1.0000 0.12321  0.96229  0.56949  Biso   1.000  Cd
  Cd4      1.0000 0.25783  0.90916  0.46765  Biso   1.000  Cd
  O9       1.0000 0.23250  0.98340  0.58600  Biso   1.000  O
  O10      1.0000 0.29010  0.03670  0.49810  Biso   1.000  O
  O11      1.0000 0.30290  0.07600  0.84700  Biso   1.000  O
  O12      1.0000 0.24930  0.18280  0.86490  Biso   1.000  O
  O13      1.0000 0.36250  0.35390  0.63130  Biso   1.000  O
  O14      1.0000 0.30640  0.32680  0.53120  Biso   1.000  O
  O15      1.0000 0.39170  0.44100  0.98610  Biso   1.000  O
  O16      1.0000 0.33240  0.52720  0.93570  Biso   1.000  O
  N3       1.0000 0.10440  0.04160  0.66880  Biso   1.000  N
  N4       1.0000 0.84270  0.35990  0.97180  Biso   1.000  N
  C38      1.0000 0.27760  0.10460  0.61320  Biso   1.000  C
  C39      1.0000 0.29210  0.17630  0.58530  Biso   1.000  C
  H31      1.0000 0.29340  0.18360  0.53330  Biso   1.000  H
  C40      1.0000 0.30480  0.23830  0.63260  Biso   1.000  C
  C41      1.0000 0.30200  0.22840  0.71160  Biso   1.000  C
  C42      1.0000 0.28570  0.15440  0.74000  Biso   1.000  C
  C43      1.0000 0.27400  0.09490  0.69050  Biso   1.000  C
  H32      1.0000 0.26340  0.04670  0.70960  Biso   1.000  H
  C44      1.0000 0.26520  0.03770  0.56130  Biso   1.000  C
  C45      1.0000 0.27850  0.13850  0.82350  Biso   1.000  C
  C46      1.0000 0.32510  0.31200  0.59540  Biso   1.000  C
  C47      1.0000 0.35640  0.46200  0.93510  Biso   1.000  C
  C48      1.0000 0.34240  0.40460  0.87270  Biso   1.000  C
  C49      1.0000 0.29410  0.41400  0.82410  Biso   1.000  C
  H33      1.0000 0.27050  0.45840  0.82730  Biso   1.000  H
  C50      1.0000 0.28020  0.35840  0.77050  Biso   1.000  C
  H34      1.0000 0.24720  0.36540  0.73820  Biso   1.000  H
  C51      1.0000 0.31560  0.29240  0.76520  Biso   1.000  C
  C52      1.0000 0.36510  0.28430  0.81340  Biso   1.000  C
  H35      1.0000 0.38990  0.24100  0.80950  Biso   1.000  H
  C53      1.0000 0.37780  0.33950  0.86660  Biso   1.000  C
  H36      1.0000 0.41080  0.33290  0.89890  Biso   1.000  H
  C54      1.0000 0.12360  0.11620  0.66510  Biso   1.000  C
  H37      1.0000 0.13890  0.13490  0.61970  Biso   1.000  H
  C55      1.0000 0.12100  0.16590  0.72790  Biso   1.000  C
  H38      1.0000 0.13500  0.21650  0.72430  Biso   1.000  H
  C56      1.0000 0.09660  0.13750  0.79670  Biso   1.000  C
  C57      1.0000 0.07580  0.06400  0.79700  Biso   1.000  C
  H39      1.0000 0.05790  0.04430  0.84060  Biso   1.000  H
  C58      1.0000 0.08080  0.01750  0.73360  Biso   1.000  C
  H40      1.0000 0.06680  0.96690  0.73670  Biso   1.000  H
  C59      1.0000 0.09220  0.17660  0.87340  Biso   1.000  C
  H41      1.0000 0.11100  0.14220  0.90980  Biso   1.000  H
  H42      1.0000 0.11740  0.22260  0.87120  Biso   1.000  H
  C60      1.0000 0.03130  0.20080  0.90580  Biso   1.000  C
  H43      1.0000 0.03660  0.21640  0.95790  Biso   1.000  H
  H44      1.0000 0.00370  0.15710  0.90480  Biso   1.000  H
  C61      1.0000 0.00360  0.26700  0.86140  Biso   1.000  C
  H45      1.0000 0.99430  0.25000  0.81060  Biso   1.000  H
  H46      1.0000 0.03270  0.30900  0.85810  Biso   1.000  H
  C62      1.0000 0.85960  0.37460  0.90060  Biso   1.000  C
  H47      1.0000 0.83430  0.40710  0.87300  Biso   1.000  H
  C63      1.0000 0.90960  0.34720  0.86420  Biso   1.000  C
  H48      1.0000 0.91870  0.36380  0.81560  Biso   1.000  H
  C64      1.0000 0.94580  0.29530  0.89960  Biso   1.000  C
  C65      1.0000 0.86500  0.29220  0.99340  Biso   1.000  C
  H49      1.0000 0.84470  0.26230  0.02900  Biso   1.000  H
  C66      1.0000 0.91800  0.26730  0.96240  Biso   1.000  C
  H50      1.0000 0.93750  0.22670  0.98680  Biso   1.000  H
  C67      1.0000 0.09890  0.20680  0.84940  Biso   1.000  C
  H51      1.0000 0.11850  0.19320  0.89660  Biso   1.000  H
  H52      1.0000 0.12120  0.24890  0.82640  Biso   1.000  H
  C68      1.0000 0.03300  0.22980  0.86310  Biso   1.000  C
  H53      1.0000 0.01570  0.24920  0.81640  Biso   1.000  H
  H54      1.0000 0.00990  0.18470  0.87820  Biso   1.000  H
  C69      1.0000 0.02770  0.29140  0.92380  Biso   1.000  C
  H55      1.0000 0.04280  0.27030  0.97090  Biso   1.000  H
  H56      1.0000 0.05370  0.33440  0.91020  Biso   1.000  H
  C70      1.0000 0.87390  0.40020  0.92030  Biso   1.000  C
  H57      1.0000 0.85760  0.44510  0.89960  Biso   1.000  H
  C71      1.0000 0.92980  0.37450  0.89850  Biso   1.000  C
  H58      1.0000 0.94610  0.39470  0.85430  Biso   1.000  H
  C72      1.0000 0.96370  0.32150  0.93660  Biso   1.000  C
  C73      1.0000 0.88110  0.32180  0.01710  Biso   1.000  C
  H59      1.0000 0.86640  0.31030  0.06510  Biso   1.000  H
  C74      1.0000 0.93880  0.29780  0.00240  Biso   1.000  C
  H60      1.0000 0.96010  0.26650  0.03590  Biso   1.000  H
  Cd5      1.0000 0.62321  0.53771  0.43051  Biso   1.000  Cd
  Cd6      1.0000 0.75783  0.59084  0.53235  Biso   1.000  Cd
  O17      1.0000 0.73250  0.51660  0.41400  Biso   1.000  O
  O18      1.0000 0.79010  0.46330  0.50190  Biso   1.000  O
  O19      1.0000 0.80290  0.42400  0.15300  Biso   1.000  O
  O20      1.0000 0.74930  0.31720  0.13510  Biso   1.000  O
  O21      1.0000 0.86250  0.14610  0.36870  Biso   1.000  O
  O22      1.0000 0.80640  0.17320  0.46880  Biso   1.000  O
  O23      1.0000 0.89170  0.05900  0.01390  Biso   1.000  O
  O24      1.0000 0.83240  0.97280  0.06430  Biso   1.000  O
  N5       1.0000 0.60440  0.45840  0.33120  Biso   1.000  N
  N6       1.0000 0.34270  0.14010  0.02820  Biso   1.000  N
  C75      1.0000 0.77760  0.39540  0.38680  Biso   1.000  C
  C76      1.0000 0.79210  0.32370  0.41470  Biso   1.000  C
  H61      1.0000 0.79340  0.31640  0.46670  Biso   1.000  H
  C77      1.0000 0.80480  0.26170  0.36740  Biso   1.000  C
  C78      1.0000 0.80200  0.27160  0.28840  Biso   1.000  C
  C79      1.0000 0.78570  0.34560  0.26000  Biso   1.000  C
  C80      1.0000 0.77400  0.40510  0.30950  Biso   1.000  C
  H62      1.0000 0.76340  0.45330  0.29040  Biso   1.000  H
  C81      1.0000 0.76520  0.46230  0.43870  Biso   1.000  C
  C82      1.0000 0.77850  0.36150  0.17650  Biso   1.000  C
  C83      1.0000 0.82510  0.18800  0.40460  Biso   1.000  C
  C84      1.0000 0.85640  0.03800  0.06490  Biso   1.000  C
  C85      1.0000 0.84240  0.09540  0.12730  Biso   1.000  C
  C86      1.0000 0.79410  0.08600  0.17590  Biso   1.000  C
  H63      1.0000 0.77050  0.04160  0.17270  Biso   1.000  H
  C87      1.0000 0.78020  0.14160  0.22950  Biso   1.000  C
  H64      1.0000 0.74720  0.13460  0.26180  Biso   1.000  H
  C88      1.0000 0.81560  0.20760  0.23480  Biso   1.000  C
  C89      1.0000 0.86510  0.21570  0.18660  Biso   1.000  C
  H65      1.0000 0.88990  0.25900  0.19050  Biso   1.000  H
  C90      1.0000 0.87780  0.16050  0.13340  Biso   1.000  C
  H66      1.0000 0.91080  0.16710  0.10110  Biso   1.000  H
  C91      1.0000 0.62360  0.38380  0.33490  Biso   1.000  C
  H67      1.0000 0.63890  0.36510  0.38030  Biso   1.000  H
  C92      1.0000 0.62100  0.33410  0.27210  Biso   1.000  C
  H68      1.0000 0.63500  0.28350  0.27570  Biso   1.000  H
  C93      1.0000 0.59660  0.36250  0.20330  Biso   1.000  C
  C94      1.0000 0.57580  0.43600  0.20300  Biso   1.000  C
  H69      1.0000 0.55790  0.45570  0.15940  Biso   1.000  H
  C95      1.0000 0.58080  0.48250  0.26640  Biso   1.000  C
  H70      1.0000 0.56680  0.53310  0.26330  Biso   1.000  H
  C96      1.0000 0.59220  0.32340  0.12660  Biso   1.000  C
  H71      1.0000 0.61100  0.35780  0.09020  Biso   1.000  H
  H72      1.0000 0.61740  0.27740  0.12880  Biso   1.000  H
  C97      1.0000 0.53130  0.29920  0.09420  Biso   1.000  C
  H73      1.0000 0.53660  0.28360  0.04210  Biso   1.000  H
  H74      1.0000 0.50370  0.34290  0.09520  Biso   1.000  H
  C98      1.0000 0.50360  0.23300  0.13860  Biso   1.000  C
  H75      1.0000 0.49430  0.25000  0.18940  Biso   1.000  H
  H76      1.0000 0.53270  0.19100  0.14190  Biso   1.000  H
  C99      1.0000 0.35960  0.12540  0.09940  Biso   1.000  C
  H77      1.0000 0.33430  0.09290  0.12700  Biso   1.000  H
  C100     1.0000 0.40960  0.15280  0.13580  Biso   1.000  C
  H78      1.0000 0.41870  0.13620  0.18440  Biso   1.000  H
  C101     1.0000 0.44580  0.20470  0.10040  Biso   1.000  C
  C102     1.0000 0.36500  0.20780  0.00660  Biso   1.000  C
  H79      1.0000 0.34470  0.23770  0.97100  Biso   1.000  H
  C103     1.0000 0.41800  0.23270  0.03760  Biso   1.000  C
  H80      1.0000 0.43750  0.27330  0.01320  Biso   1.000  H
  C104     1.0000 0.59890  0.29320  0.15060  Biso   1.000  C
  H81      1.0000 0.61850  0.30680  0.10340  Biso   1.000  H
  H82      1.0000 0.62120  0.25110  0.17360  Biso   1.000  H
  C105     1.0000 0.53300  0.27020  0.13690  Biso   1.000  C
  H83      1.0000 0.51570  0.25080  0.18360  Biso   1.000  H
  H84      1.0000 0.50990  0.31530  0.12180  Biso   1.000  H
  C106     1.0000 0.52770  0.20860  0.07620  Biso   1.000  C
  H85      1.0000 0.54280  0.22970  0.02910  Biso   1.000  H
  H86      1.0000 0.55370  0.16560  0.08980  Biso   1.000  H
  C107     1.0000 0.37390  0.09980  0.07970  Biso   1.000  C
  H87      1.0000 0.35760  0.05490  0.10040  Biso   1.000  H
  C108     1.0000 0.42980  0.12550  0.10150  Biso   1.000  C
  H88      1.0000 0.44610  0.10530  0.14570  Biso   1.000  H
  C109     1.0000 0.46370  0.17850  0.06340  Biso   1.000  C
  C110     1.0000 0.38110  0.17820  0.98290  Biso   1.000  C
  H89      1.0000 0.36640  0.18970  0.93490  Biso   1.000  H
  C111     1.0000 0.43880  0.20220  0.99760  Biso   1.000  C
  H90      1.0000 0.46010  0.23350  0.96410  Biso   1.000  H
  Cd7      1.0000 0.87679  0.96229  0.93051  Biso   1.000  Cd
  Cd8      1.0000 0.74217  0.90916  0.03235  Biso   1.000  Cd
  O25      1.0000 0.76750  0.98340  0.91400  Biso   1.000  O
  O26      1.0000 0.70990  0.03670  0.00190  Biso   1.000  O
  O27      1.0000 0.69710  0.07600  0.65300  Biso   1.000  O
  O28      1.0000 0.75070  0.18280  0.63510  Biso   1.000  O
  O29      1.0000 0.63750  0.35390  0.86870  Biso   1.000  O
  O30      1.0000 0.69360  0.32680  0.96880  Biso   1.000  O
  O31      1.0000 0.60830  0.44100  0.51390  Biso   1.000  O
  O32      1.0000 0.66760  0.52720  0.56430  Biso   1.000  O
  N7       1.0000 0.89560  0.04160  0.83120  Biso   1.000  N
  N8       1.0000 0.15730  0.35990  0.52820  Biso   1.000  N
  C112     1.0000 0.72240  0.10460  0.88680  Biso   1.000  C
  C113     1.0000 0.70790  0.17630  0.91470  Biso   1.000  C
  H91      1.0000 0.70660  0.18360  0.96670  Biso   1.000  H
  C114     1.0000 0.69520  0.23830  0.86740  Biso   1.000  C
  C115     1.0000 0.69800  0.22840  0.78840  Biso   1.000  C
  C116     1.0000 0.71430  0.15440  0.76000  Biso   1.000  C
  C117     1.0000 0.72600  0.09490  0.80950  Biso   1.000  C
  H92      1.0000 0.73660  0.04670  0.79040  Biso   1.000  H
  C118     1.0000 0.73480  0.03770  0.93870  Biso   1.000  C
  C119     1.0000 0.72150  0.13850  0.67650  Biso   1.000  C
  C120     1.0000 0.67490  0.31200  0.90460  Biso   1.000  C
  C121     1.0000 0.64360  0.46200  0.56490  Biso   1.000  C
  C122     1.0000 0.65760  0.40460  0.62730  Biso   1.000  C
  C123     1.0000 0.70590  0.41400  0.67590  Biso   1.000  C
  H93      1.0000 0.72950  0.45840  0.67270  Biso   1.000  H
  C124     1.0000 0.71980  0.35840  0.72950  Biso   1.000  C
  H94      1.0000 0.75280  0.36540  0.76180  Biso   1.000  H
  C125     1.0000 0.68440  0.29240  0.73480  Biso   1.000  C
  C126     1.0000 0.63490  0.28430  0.68660  Biso   1.000  C
  H95      1.0000 0.61010  0.24100  0.69050  Biso   1.000  H
  C127     1.0000 0.62220  0.33950  0.63340  Biso   1.000  C
  H96      1.0000 0.58920  0.33290  0.60110  Biso   1.000  H
  C128     1.0000 0.87640  0.11620  0.83490  Biso   1.000  C
  H97      1.0000 0.86110  0.13490  0.88030  Biso   1.000  H
  C129     1.0000 0.87900  0.16590  0.77210  Biso   1.000  C
  H98      1.0000 0.86500  0.21650  0.77570  Biso   1.000  H
  C130     1.0000 0.90340  0.13750  0.70330  Biso   1.000  C
  C131     1.0000 0.92420  0.06400  0.70300  Biso   1.000  C
  H99      1.0000 0.94210  0.04430  0.65940  Biso   1.000  H
  C132     1.0000 0.91920  0.01750  0.76640  Biso   1.000  C
  H100     1.0000 0.93320  0.96690  0.76330  Biso   1.000  H
  C133     1.0000 0.90780  0.17660  0.62660  Biso   1.000  C
  H101     1.0000 0.88900  0.14220  0.59020  Biso   1.000  H
  H102     1.0000 0.88260  0.22260  0.62880  Biso   1.000  H
  C134     1.0000 0.96870  0.20080  0.59420  Biso   1.000  C
  H103     1.0000 0.96340  0.21640  0.54210  Biso   1.000  H
  H104     1.0000 0.99630  0.15710  0.59520  Biso   1.000  H
  C135     1.0000 0.99640  0.26700  0.63860  Biso   1.000  C
  H105     1.0000 0.00570  0.25000  0.68940  Biso   1.000  H
  H106     1.0000 0.96730  0.30900  0.64190  Biso   1.000  H
  C136     1.0000 0.14040  0.37460  0.59940  Biso   1.000  C
  H107     1.0000 0.16570  0.40710  0.62700  Biso   1.000  H
  C137     1.0000 0.09040  0.34720  0.63580  Biso   1.000  C
  H108     1.0000 0.08130  0.36380  0.68440  Biso   1.000  H
  C138     1.0000 0.05420  0.29530  0.60040  Biso   1.000  C
  C139     1.0000 0.13500  0.29220  0.50660  Biso   1.000  C
  H109     1.0000 0.15530  0.26230  0.47100  Biso   1.000  H
  C140     1.0000 0.08200  0.26730  0.53760  Biso   1.000  C
  H110     1.0000 0.06250  0.22670  0.51320  Biso   1.000  H
  C141     1.0000 0.90110  0.20680  0.65060  Biso   1.000  C
  H111     1.0000 0.88150  0.19320  0.60340  Biso   1.000  H
  H112     1.0000 0.87880  0.24890  0.67360  Biso   1.000  H
  C142     1.0000 0.96700  0.22980  0.63690  Biso   1.000  C
  H113     1.0000 0.98430  0.24920  0.68360  Biso   1.000  H
  H114     1.0000 0.99010  0.18470  0.62180  Biso   1.000  H
  C143     1.0000 0.97230  0.29140  0.57620  Biso   1.000  C
  H115     1.0000 0.95720  0.27030  0.52910  Biso   1.000  H
  H116     1.0000 0.94630  0.33440  0.58980  Biso   1.000  H
  C144     1.0000 0.12610  0.40020  0.57970  Biso   1.000  C
  H117     1.0000 0.14240  0.44510  0.60040  Biso   1.000  H
  C145     1.0000 0.07020  0.37450  0.60150  Biso   1.000  C
  H118     1.0000 0.05390  0.39470  0.64570  Biso   1.000  H
  C146     1.0000 0.03630  0.32150  0.56340  Biso   1.000  C
  C147     1.0000 0.11890  0.32180  0.48290  Biso   1.000  C
  H119     1.0000 0.13360  0.31030  0.43490  Biso   1.000  H
  C148     1.0000 0.06120  0.29780  0.49760  Biso   1.000  C
  H120     1.0000 0.03990  0.26650  0.46410  Biso   1.000  H
  Cd9      1.0000 0.62321  0.46229  0.93051  Biso   1.000  Cd
  Cd10     1.0000 0.75783  0.40916  0.03235  Biso   1.000  Cd
  O33      1.0000 0.73250  0.48340  0.91400  Biso   1.000  O
  O34      1.0000 0.79010  0.53670  0.00190  Biso   1.000  O
  O35      1.0000 0.80290  0.57600  0.65300  Biso   1.000  O
  O36      1.0000 0.74930  0.68280  0.63510  Biso   1.000  O
  O37      1.0000 0.86250  0.85390  0.86870  Biso   1.000  O
  O38      1.0000 0.80640  0.82680  0.96880  Biso   1.000  O
  O39      1.0000 0.89170  0.94100  0.51390  Biso   1.000  O
  O40      1.0000 0.83240  0.02720  0.56430  Biso   1.000  O
  N9       1.0000 0.60440  0.54160  0.83120  Biso   1.000  N
  N10      1.0000 0.34270  0.85990  0.52820  Biso   1.000  N
  C149     1.0000 0.77760  0.60460  0.88680  Biso   1.000  C
  C150     1.0000 0.79210  0.67630  0.91470  Biso   1.000  C
  H121     1.0000 0.79340  0.68360  0.96670  Biso   1.000  H
  C151     1.0000 0.80480  0.73830  0.86740  Biso   1.000  C
  C152     1.0000 0.80200  0.72840  0.78840  Biso   1.000  C
  C153     1.0000 0.78570  0.65440  0.76000  Biso   1.000  C
  C154     1.0000 0.77400  0.59490  0.80950  Biso   1.000  C
  H122     1.0000 0.76340  0.54670  0.79040  Biso   1.000  H
  C155     1.0000 0.76520  0.53770  0.93870  Biso   1.000  C
  C156     1.0000 0.77850  0.63850  0.67650  Biso   1.000  C
  C157     1.0000 0.82510  0.81200  0.90460  Biso   1.000  C
  C158     1.0000 0.85640  0.96200  0.56490  Biso   1.000  C
  C159     1.0000 0.84240  0.90460  0.62730  Biso   1.000  C
  C160     1.0000 0.79410  0.91400  0.67590  Biso   1.000  C
  H123     1.0000 0.77050  0.95840  0.67270  Biso   1.000  H
  C161     1.0000 0.78020  0.85840  0.72950  Biso   1.000  C
  H124     1.0000 0.74720  0.86540  0.76180  Biso   1.000  H
  C162     1.0000 0.81560  0.79240  0.73480  Biso   1.000  C
  C163     1.0000 0.86510  0.78430  0.68660  Biso   1.000  C
  H125     1.0000 0.88990  0.74100  0.69050  Biso   1.000  H
  C164     1.0000 0.87780  0.83950  0.63340  Biso   1.000  C
  H126     1.0000 0.91080  0.83290  0.60110  Biso   1.000  H
  C165     1.0000 0.62360  0.61620  0.83490  Biso   1.000  C
  H127     1.0000 0.63890  0.63490  0.88030  Biso   1.000  H
  C166     1.0000 0.62100  0.66590  0.77210  Biso   1.000  C
  H128     1.0000 0.63500  0.71650  0.77570  Biso   1.000  H
  C167     1.0000 0.59660  0.63750  0.70330  Biso   1.000  C
  C168     1.0000 0.57580  0.56400  0.70300  Biso   1.000  C
  H129     1.0000 0.55790  0.54430  0.65940  Biso   1.000  H
  C169     1.0000 0.58080  0.51750  0.76640  Biso   1.000  C
  H130     1.0000 0.56680  0.46690  0.76330  Biso   1.000  H
  C170     1.0000 0.59220  0.67660  0.62660  Biso   1.000  C
  H131     1.0000 0.61100  0.64220  0.59020  Biso   1.000  H
  H132     1.0000 0.61740  0.72260  0.62880  Biso   1.000  H
  C171     1.0000 0.53130  0.70080  0.59420  Biso   1.000  C
  H133     1.0000 0.53660  0.71640  0.54210  Biso   1.000  H
  H134     1.0000 0.50370  0.65710  0.59520  Biso   1.000  H
  C172     1.0000 0.50360  0.76700  0.63860  Biso   1.000  C
  H135     1.0000 0.49430  0.75000  0.68940  Biso   1.000  H
  H136     1.0000 0.53270  0.80900  0.64190  Biso   1.000  H
  C173     1.0000 0.35960  0.87460  0.59940  Biso   1.000  C
  H137     1.0000 0.33430  0.90710  0.62700  Biso   1.000  H
  C174     1.0000 0.40960  0.84720  0.63580  Biso   1.000  C
  H138     1.0000 0.41870  0.86380  0.68440  Biso   1.000  H
  C175     1.0000 0.44580  0.79530  0.60040  Biso   1.000  C
  C176     1.0000 0.36500  0.79220  0.50660  Biso   1.000  C
  H139     1.0000 0.34470  0.76230  0.47100  Biso   1.000  H
  C177     1.0000 0.41800  0.76730  0.53760  Biso   1.000  C
  H140     1.0000 0.43750  0.72670  0.51320  Biso   1.000  H
  C178     1.0000 0.59890  0.70680  0.65060  Biso   1.000  C
  H141     1.0000 0.61850  0.69320  0.60340  Biso   1.000  H
  H142     1.0000 0.62120  0.74890  0.67360  Biso   1.000  H
  C179     1.0000 0.53300  0.72980  0.63690  Biso   1.000  C
  H143     1.0000 0.51570  0.74920  0.68360  Biso   1.000  H
  H144     1.0000 0.50990  0.68470  0.62180  Biso   1.000  H
  C180     1.0000 0.52770  0.79140  0.57620  Biso   1.000  C
  H145     1.0000 0.54280  0.77030  0.52910  Biso   1.000  H
  H146     1.0000 0.55370  0.83440  0.58980  Biso   1.000  H
  C181     1.0000 0.37390  0.90020  0.57970  Biso   1.000  C
  H147     1.0000 0.35760  0.94510  0.60040  Biso   1.000  H
  C182     1.0000 0.42980  0.87450  0.60150  Biso   1.000  C
  H148     1.0000 0.44610  0.89470  0.64570  Biso   1.000  H
  C183     1.0000 0.46370  0.82150  0.56340  Biso   1.000  C
  C184     1.0000 0.38110  0.82180  0.48290  Biso   1.000  C
  H149     1.0000 0.36640  0.81030  0.43490  Biso   1.000  H
  C185     1.0000 0.43880  0.79780  0.49760  Biso   1.000  C
  H150     1.0000 0.46010  0.76650  0.46410  Biso   1.000  H
  Cd11     1.0000 0.87679  0.03771  0.43051  Biso   1.000  Cd
  Cd12     1.0000 0.74217  0.09084  0.53235  Biso   1.000  Cd
  O41      1.0000 0.76750  0.01660  0.41400  Biso   1.000  O
  O42      1.0000 0.70990  0.96330  0.50190  Biso   1.000  O
  O43      1.0000 0.69710  0.92400  0.15300  Biso   1.000  O
  O44      1.0000 0.75070  0.81720  0.13510  Biso   1.000  O
  O45      1.0000 0.63750  0.64610  0.36870  Biso   1.000  O
  O46      1.0000 0.69360  0.67320  0.46880  Biso   1.000  O
  O47      1.0000 0.60830  0.55900  0.01390  Biso   1.000  O
  O48      1.0000 0.66760  0.47280  0.06430  Biso   1.000  O
  N11      1.0000 0.89560  0.95840  0.33120  Biso   1.000  N
  N12      1.0000 0.15730  0.64010  0.02820  Biso   1.000  N
  C186     1.0000 0.72240  0.89540  0.38680  Biso   1.000  C
  C187     1.0000 0.70790  0.82370  0.41470  Biso   1.000  C
  H151     1.0000 0.70660  0.81640  0.46670  Biso   1.000  H
  C188     1.0000 0.69520  0.76170  0.36740  Biso   1.000  C
  C189     1.0000 0.69800  0.77160  0.28840  Biso   1.000  C
  C190     1.0000 0.71430  0.84560  0.26000  Biso   1.000  C
  C191     1.0000 0.72600  0.90510  0.30950  Biso   1.000  C
  H152     1.0000 0.73660  0.95330  0.29040  Biso   1.000  H
  C192     1.0000 0.73480  0.96230  0.43870  Biso   1.000  C
  C193     1.0000 0.72150  0.86150  0.17650  Biso   1.000  C
  C194     1.0000 0.67490  0.68800  0.40460  Biso   1.000  C
  C195     1.0000 0.64360  0.53800  0.06490  Biso   1.000  C
  C196     1.0000 0.65760  0.59540  0.12730  Biso   1.000  C
  C197     1.0000 0.70590  0.58600  0.17590  Biso   1.000  C
  H153     1.0000 0.72950  0.54160  0.17270  Biso   1.000  H
  C198     1.0000 0.71980  0.64160  0.22950  Biso   1.000  C
  H154     1.0000 0.75280  0.63460  0.26180  Biso   1.000  H
  C199     1.0000 0.68440  0.70760  0.23480  Biso   1.000  C
  C200     1.0000 0.63490  0.71570  0.18660  Biso   1.000  C
  H155     1.0000 0.61010  0.75900  0.19050  Biso   1.000  H
  C201     1.0000 0.62220  0.66050  0.13340  Biso   1.000  C
  H156     1.0000 0.58920  0.66710  0.10110  Biso   1.000  H
  C202     1.0000 0.87640  0.88380  0.33490  Biso   1.000  C
  H157     1.0000 0.86110  0.86510  0.38030  Biso   1.000  H
  C203     1.0000 0.87900  0.83410  0.27210  Biso   1.000  C
  H158     1.0000 0.86500  0.78350  0.27570  Biso   1.000  H
  C204     1.0000 0.90340  0.86250  0.20330  Biso   1.000  C
  C205     1.0000 0.92420  0.93600  0.20300  Biso   1.000  C
  H159     1.0000 0.94210  0.95570  0.15940  Biso   1.000  H
  C206     1.0000 0.91920  0.98250  0.26640  Biso   1.000  C
  H160     1.0000 0.93320  0.03310  0.26330  Biso   1.000  H
  C207     1.0000 0.90780  0.82340  0.12660  Biso   1.000  C
  H161     1.0000 0.88900  0.85780  0.09020  Biso   1.000  H
  H162     1.0000 0.88260  0.77740  0.12880  Biso   1.000  H
  C208     1.0000 0.96870  0.79920  0.09420  Biso   1.000  C
  H163     1.0000 0.96340  0.78360  0.04210  Biso   1.000  H
  H164     1.0000 0.99630  0.84290  0.09520  Biso   1.000  H
  C209     1.0000 0.99640  0.73300  0.13860  Biso   1.000  C
  H165     1.0000 0.00570  0.75000  0.18940  Biso   1.000  H
  H166     1.0000 0.96730  0.69100  0.14190  Biso   1.000  H
  C210     1.0000 0.14040  0.62540  0.09940  Biso   1.000  C
  H167     1.0000 0.16570  0.59290  0.12700  Biso   1.000  H
  C211     1.0000 0.09040  0.65280  0.13580  Biso   1.000  C
  H168     1.0000 0.08130  0.63620  0.18440  Biso   1.000  H
  C212     1.0000 0.05420  0.70470  0.10040  Biso   1.000  C
  C213     1.0000 0.13500  0.70780  0.00660  Biso   1.000  C
  H169     1.0000 0.15530  0.73770  0.97100  Biso   1.000  H
  C214     1.0000 0.08200  0.73270  0.03760  Biso   1.000  C
  H170     1.0000 0.06250  0.77330  0.01320  Biso   1.000  H
  C215     1.0000 0.90110  0.79320  0.15060  Biso   1.000  C
  H171     1.0000 0.88150  0.80680  0.10340  Biso   1.000  H
  H172     1.0000 0.87880  0.75110  0.17360  Biso   1.000  H
  C216     1.0000 0.96700  0.77020  0.13690  Biso   1.000  C
  H173     1.0000 0.98430  0.75080  0.18360  Biso   1.000  H
  H174     1.0000 0.99010  0.81530  0.12180  Biso   1.000  H
  C217     1.0000 0.97230  0.70860  0.07620  Biso   1.000  C
  H175     1.0000 0.95720  0.72970  0.02910  Biso   1.000  H
  H176     1.0000 0.94630  0.66560  0.08980  Biso   1.000  H
  C218     1.0000 0.12610  0.59980  0.07970  Biso   1.000  C
  H177     1.0000 0.14240  0.55490  0.10040  Biso   1.000  H
  C219     1.0000 0.07020  0.62550  0.10150  Biso   1.000  C
  H178     1.0000 0.05390  0.60530  0.14570  Biso   1.000  H
  C220     1.0000 0.03630  0.67850  0.06340  Biso   1.000  C
  C221     1.0000 0.11890  0.67820  0.98290  Biso   1.000  C
  H179     1.0000 0.13360  0.68970  0.93490  Biso   1.000  H
  C222     1.0000 0.06120  0.70220  0.99760  Biso   1.000  C
  H180     1.0000 0.03990  0.73350  0.96410  Biso   1.000  H
  Cd13     1.0000 0.37679  0.46229  0.56949  Biso   1.000  Cd
  Cd14     1.0000 0.24217  0.40916  0.46765  Biso   1.000  Cd
  O49      1.0000 0.26750  0.48340  0.58600  Biso   1.000  O
  O50      1.0000 0.20990  0.53670  0.49810  Biso   1.000  O
  O51      1.0000 0.19710  0.57600  0.84700  Biso   1.000  O
  O52      1.0000 0.25070  0.68280  0.86490  Biso   1.000  O
  O53      1.0000 0.13750  0.85390  0.63130  Biso   1.000  O
  O54      1.0000 0.19360  0.82680  0.53120  Biso   1.000  O
  O55      1.0000 0.10830  0.94100  0.98610  Biso   1.000  O
  O56      1.0000 0.16760  0.02720  0.93570  Biso   1.000  O
  N13      1.0000 0.39560  0.54160  0.66880  Biso   1.000  N
  N14      1.0000 0.65730  0.85990  0.97180  Biso   1.000  N
  C223     1.0000 0.22240  0.60460  0.61320  Biso   1.000  C
  C224     1.0000 0.20790  0.67630  0.58530  Biso   1.000  C
  H181     1.0000 0.20660  0.68360  0.53330  Biso   1.000  H
  C225     1.0000 0.19520  0.73830  0.63260  Biso   1.000  C
  C226     1.0000 0.19800  0.72840  0.71160  Biso   1.000  C
  C227     1.0000 0.21430  0.65440  0.74000  Biso   1.000  C
  C228     1.0000 0.22600  0.59490  0.69050  Biso   1.000  C
  H182     1.0000 0.23660  0.54670  0.70960  Biso   1.000  H
  C229     1.0000 0.23480  0.53770  0.56130  Biso   1.000  C
  C230     1.0000 0.22150  0.63850  0.82350  Biso   1.000  C
  C231     1.0000 0.17490  0.81200  0.59540  Biso   1.000  C
  C232     1.0000 0.14360  0.96200  0.93510  Biso   1.000  C
  C233     1.0000 0.15760  0.90460  0.87270  Biso   1.000  C
  C234     1.0000 0.20590  0.91400  0.82410  Biso   1.000  C
  H183     1.0000 0.22950  0.95840  0.82730  Biso   1.000  H
  C235     1.0000 0.21980  0.85840  0.77050  Biso   1.000  C
  H184     1.0000 0.25280  0.86540  0.73820  Biso   1.000  H
  C236     1.0000 0.18440  0.79240  0.76520  Biso   1.000  C
  C237     1.0000 0.13490  0.78430  0.81340  Biso   1.000  C
  H185     1.0000 0.11010  0.74100  0.80950  Biso   1.000  H
  C238     1.0000 0.12220  0.83950  0.86660  Biso   1.000  C
  H186     1.0000 0.08920  0.83290  0.89890  Biso   1.000  H
  C239     1.0000 0.37640  0.61620  0.66510  Biso   1.000  C
  H187     1.0000 0.36110  0.63490  0.61970  Biso   1.000  H
  C240     1.0000 0.37900  0.66590  0.72790  Biso   1.000  C
  H188     1.0000 0.36500  0.71650  0.72430  Biso   1.000  H
  C241     1.0000 0.40340  0.63750  0.79670  Biso   1.000  C
  C242     1.0000 0.42420  0.56400  0.79700  Biso   1.000  C
  H189     1.0000 0.44210  0.54430  0.84060  Biso   1.000  H
  C243     1.0000 0.41920  0.51750  0.73360  Biso   1.000  C
  H190     1.0000 0.43320  0.46690  0.73670  Biso   1.000  H
  C244     1.0000 0.40780  0.67660  0.87340  Biso   1.000  C
  H191     1.0000 0.38900  0.64220  0.90980  Biso   1.000  H
  H192     1.0000 0.38260  0.72260  0.87120  Biso   1.000  H
  C245     1.0000 0.46870  0.70080  0.90580  Biso   1.000  C
  H193     1.0000 0.46340  0.71640  0.95790  Biso   1.000  H
  H194     1.0000 0.49630  0.65710  0.90480  Biso   1.000  H
  C246     1.0000 0.49640  0.76700  0.86140  Biso   1.000  C
  H195     1.0000 0.50570  0.75000  0.81060  Biso   1.000  H
  H196     1.0000 0.46730  0.80900  0.85810  Biso   1.000  H
  C247     1.0000 0.64040  0.87460  0.90060  Biso   1.000  C
  H197     1.0000 0.66570  0.90710  0.87300  Biso   1.000  H
  C248     1.0000 0.59040  0.84720  0.86420  Biso   1.000  C
  H198     1.0000 0.58130  0.86380  0.81560  Biso   1.000  H
  C249     1.0000 0.55420  0.79530  0.89960  Biso   1.000  C
  C250     1.0000 0.63500  0.79220  0.99340  Biso   1.000  C
  H199     1.0000 0.65530  0.76230  0.02900  Biso   1.000  H
  C251     1.0000 0.58200  0.76730  0.96240  Biso   1.000  C
  H200     1.0000 0.56250  0.72670  0.98680  Biso   1.000  H
  C252     1.0000 0.40110  0.70680  0.84940  Biso   1.000  C
  H201     1.0000 0.38150  0.69320  0.89660  Biso   1.000  H
  H202     1.0000 0.37880  0.74890  0.82640  Biso   1.000  H
  C253     1.0000 0.46700  0.72980  0.86310  Biso   1.000  C
  H203     1.0000 0.48430  0.74920  0.81640  Biso   1.000  H
  H204     1.0000 0.49010  0.68470  0.87820  Biso   1.000  H
  C254     1.0000 0.47230  0.79140  0.92380  Biso   1.000  C
  H205     1.0000 0.45720  0.77030  0.97090  Biso   1.000  H
  H206     1.0000 0.44630  0.83440  0.91020  Biso   1.000  H
  C255     1.0000 0.62610  0.90020  0.92030  Biso   1.000  C
  H207     1.0000 0.64240  0.94510  0.89960  Biso   1.000  H
  C256     1.0000 0.57020  0.87450  0.89850  Biso   1.000  C
  H208     1.0000 0.55390  0.89470  0.85430  Biso   1.000  H
  C257     1.0000 0.53630  0.82150  0.93660  Biso   1.000  C
  C258     1.0000 0.61890  0.82180  0.01710  Biso   1.000  C
  H209     1.0000 0.63360  0.81030  0.06510  Biso   1.000  H
  C259     1.0000 0.56120  0.79780  0.00240  Biso   1.000  C
  H210     1.0000 0.53990  0.76650  0.03590  Biso   1.000  H
  Cd15     1.0000 0.12321  0.03771  0.06949  Biso   1.000  Cd
  Cd16     1.0000 0.25783  0.09084  0.96765  Biso   1.000  Cd
  O57      1.0000 0.23250  0.01660  0.08600  Biso   1.000  O
  O58      1.0000 0.29010  0.96330  0.99810  Biso   1.000  O
  O59      1.0000 0.30290  0.92400  0.34700  Biso   1.000  O
  O60      1.0000 0.24930  0.81720  0.36490  Biso   1.000  O
  O61      1.0000 0.36250  0.64610  0.13130  Biso   1.000  O
  O62      1.0000 0.30640  0.67320  0.03120  Biso   1.000  O
  O63      1.0000 0.39170  0.55900  0.48610  Biso   1.000  O
  O64      1.0000 0.33240  0.47280  0.43570  Biso   1.000  O
  N15      1.0000 0.10440  0.95840  0.16880  Biso   1.000  N
  N16      1.0000 0.84270  0.64010  0.47180  Biso   1.000  N
  C260     1.0000 0.27760  0.89540  0.11320  Biso   1.000  C
  C261     1.0000 0.29210  0.82370  0.08530  Biso   1.000  C
  H211     1.0000 0.29340  0.81640  0.03330  Biso   1.000  H
  C262     1.0000 0.30480  0.76170  0.13260  Biso   1.000  C
  C263     1.0000 0.30200  0.77160  0.21160  Biso   1.000  C
  C264     1.0000 0.28570  0.84560  0.24000  Biso   1.000  C
  C265     1.0000 0.27400  0.90510  0.19050  Biso   1.000  C
  H212     1.0000 0.26340  0.95330  0.20960  Biso   1.000  H
  C266     1.0000 0.26520  0.96230  0.06130  Biso   1.000  C
  C267     1.0000 0.27850  0.86150  0.32350  Biso   1.000  C
  C268     1.0000 0.32510  0.68800  0.09540  Biso   1.000  C
  C269     1.0000 0.35640  0.53800  0.43510  Biso   1.000  C
  C270     1.0000 0.34240  0.59540  0.37270  Biso   1.000  C
  C271     1.0000 0.29410  0.58600  0.32410  Biso   1.000  C
  H213     1.0000 0.27050  0.54160  0.32730  Biso   1.000  H
  C272     1.0000 0.28020  0.64160  0.27050  Biso   1.000  C
  H214     1.0000 0.24720  0.63460  0.23820  Biso   1.000  H
  C273     1.0000 0.31560  0.70760  0.26520  Biso   1.000  C
  C274     1.0000 0.36510  0.71570  0.31340  Biso   1.000  C
  H215     1.0000 0.38990  0.75900  0.30950  Biso   1.000  H
  C275     1.0000 0.37780  0.66050  0.36660  Biso   1.000  C
  H216     1.0000 0.41080  0.66710  0.39890  Biso   1.000  H
  C276     1.0000 0.12360  0.88380  0.16510  Biso   1.000  C
  H217     1.0000 0.13890  0.86510  0.11970  Biso   1.000  H
  C277     1.0000 0.12100  0.83410  0.22790  Biso   1.000  C
  H218     1.0000 0.13500  0.78350  0.22430  Biso   1.000  H
  C278     1.0000 0.09660  0.86250  0.29670  Biso   1.000  C
  C279     1.0000 0.07580  0.93600  0.29700  Biso   1.000  C
  H219     1.0000 0.05790  0.95570  0.34060  Biso   1.000  H
  C280     1.0000 0.08080  0.98250  0.23360  Biso   1.000  C
  H220     1.0000 0.06680  0.03310  0.23670  Biso   1.000  H
  C281     1.0000 0.09220  0.82340  0.37340  Biso   1.000  C
  H221     1.0000 0.11100  0.85780  0.40980  Biso   1.000  H
  H222     1.0000 0.11740  0.77740  0.37120  Biso   1.000  H
  C282     1.0000 0.03130  0.79920  0.40580  Biso   1.000  C
  H223     1.0000 0.03660  0.78360  0.45790  Biso   1.000  H
  H224     1.0000 0.00370  0.84290  0.40480  Biso   1.000  H
  C283     1.0000 0.00360  0.73300  0.36140  Biso   1.000  C
  H225     1.0000 0.99430  0.75000  0.31060  Biso   1.000  H
  H226     1.0000 0.03270  0.69100  0.35810  Biso   1.000  H
  C284     1.0000 0.85960  0.62540  0.40060  Biso   1.000  C
  H227     1.0000 0.83430  0.59290  0.37300  Biso   1.000  H
  C285     1.0000 0.90960  0.65280  0.36420  Biso   1.000  C
  H228     1.0000 0.91870  0.63620  0.31560  Biso   1.000  H
  C286     1.0000 0.94580  0.70470  0.39960  Biso   1.000  C
  C287     1.0000 0.86500  0.70780  0.49340  Biso   1.000  C
  H229     1.0000 0.84470  0.73770  0.52900  Biso   1.000  H
  C288     1.0000 0.91800  0.73270  0.46240  Biso   1.000  C
  H230     1.0000 0.93750  0.77330  0.48680  Biso   1.000  H
  C289     1.0000 0.09890  0.79320  0.34940  Biso   1.000  C
  H231     1.0000 0.11850  0.80680  0.39660  Biso   1.000  H
  H232     1.0000 0.12120  0.75110  0.32640  Biso   1.000  H
  C290     1.0000 0.03300  0.77020  0.36310  Biso   1.000  C
  H233     1.0000 0.01570  0.75080  0.31640  Biso   1.000  H
  H234     1.0000 0.00990  0.81530  0.37820  Biso   1.000  H
  C291     1.0000 0.02770  0.70860  0.42380  Biso   1.000  C
  H235     1.0000 0.04280  0.72970  0.47090  Biso   1.000  H
  H236     1.0000 0.05370  0.66560  0.41020  Biso   1.000  H
  C292     1.0000 0.87390  0.59980  0.42030  Biso   1.000  C
  H237     1.0000 0.85760  0.55490  0.39960  Biso   1.000  H
  C293     1.0000 0.92980  0.62550  0.39850  Biso   1.000  C
  H238     1.0000 0.94610  0.60530  0.35430  Biso   1.000  H
  C294     1.0000 0.96370  0.67850  0.43660  Biso   1.000  C
  C295     1.0000 0.88110  0.67820  0.51710  Biso   1.000  C
  H239     1.0000 0.86640  0.68970  0.56510  Biso   1.000  H
  C296     1.0000 0.93880  0.70220  0.50240  Biso   1.000  C
  H240     1.0000 0.96010  0.73350  0.53590  Biso   1.000  H
