data_image0
_cell_length_a       18.7262
_cell_length_b       34.1911
_cell_length_c       19.0465
_cell_angle_alpha    90
_cell_angle_beta     107.821
_cell_angle_gamma    90

_symmetry_space_group_name_H-M    "P 1"
_symmetry_int_tables_number       1

loop_
  _symmetry_equiv_pos_as_xyz
  'x, y, z'

loop_
  _atom_site_label
  _atom_site_occupancy
  _atom_site_fract_x
  _atom_site_fract_y
  _atom_site_fract_z
  _atom_site_thermal_displace_type
  _atom_site_B_iso_or_equiv
  _atom_site_type_symbol
  Ag1      1.0000 0.57454  0.53664  0.61073  Biso   1.000  Ag
  Ag2      1.0000 0.66160  0.63113  0.83765  Biso   1.000  Ag
  Mo1      1.0000 0.35105  0.58764  0.46001  Biso   1.000  Mo
  Mo2      1.0000 0.46812  0.59979  0.38221  Biso   1.000  Mo
  Mo3      1.0000 0.78086  0.62273  0.65981  Biso   1.000  Mo
  Mo4      1.0000 0.82146  0.55183  0.75987  Biso   1.000  Mo
  P1       1.0000 0.47956  0.56311  0.49957  Biso   1.000  P
  P2       1.0000 0.41417  0.53676  0.40222  Biso   1.000  P
  P3       1.0000 0.69682  0.56945  0.66614  Biso   1.000  P
  P4       1.0000 0.72981  0.60233  0.76292  Biso   1.000  P
  C1       1.0000 0.27570  0.57820  0.35990  Biso   1.000  C
  C2       1.0000 0.56910  0.57410  0.40090  Biso   1.000  C
  C3       1.0000 0.51920  0.63650  0.46220  Biso   1.000  C
  C4       1.0000 0.70240  0.66230  0.65340  Biso   1.000  C
  C5       1.0000 0.84190  0.65220  0.74810  Biso   1.000  C
  C6       1.0000 0.75250  0.51090  0.77800  Biso   1.000  C
  C7       1.0000 0.82250  0.52130  0.67010  Biso   1.000  C
  O1       1.0000 0.23150  0.57420  0.30510  Biso   1.000  O
  O2       1.0000 0.62650  0.56110  0.41050  Biso   1.000  O
  O3       1.0000 0.55020  0.65750  0.50830  Biso   1.000  O
  O4       1.0000 0.65940  0.68660  0.64980  Biso   1.000  O
  O5       1.0000 0.88040  0.66740  0.80200  Biso   1.000  O
  O6       1.0000 0.71500  0.48770  0.79000  Biso   1.000  O
  O7       1.0000 0.82550  0.50310  0.62150  Biso   1.000  O
  C8       1.0000 0.31940  0.53760  0.49130  Biso   1.000  C
  O8       1.0000 0.29910  0.50940  0.51110  Biso   1.000  O
  C9       1.0000 0.34430  0.61170  0.56730  Biso   1.000  C
  H1       1.0000 0.34890  0.59720  0.61410  Biso   1.000  H
  C10      1.0000 0.39900  0.63440  0.54970  Biso   1.000  C
  H2       1.0000 0.45280  0.63580  0.58060  Biso   1.000  H
  C11      1.0000 0.36850  0.65560  0.48540  Biso   1.000  C
  H3       1.0000 0.39570  0.67440  0.46240  Biso   1.000  H
  C12      1.0000 0.29070  0.64580  0.45900  Biso   1.000  C
  H4       1.0000 0.25260  0.65780  0.41560  Biso   1.000  H
  C13      1.0000 0.27630  0.62130  0.50850  Biso   1.000  C
  H5       1.0000 0.22490  0.61270  0.50720  Biso   1.000  H
  C14      1.0000 0.49530  0.63580  0.29270  Biso   1.000  C
  H6       1.0000 0.54550  0.64730  0.29660  Biso   1.000  H
  C15      1.0000 0.43780  0.65520  0.30910  Biso   1.000  C
  H7       1.0000 0.43990  0.68270  0.32750  Biso   1.000  H
  C16      1.0000 0.37290  0.63110  0.28800  Biso   1.000  C
  H8       1.0000 0.32200  0.63840  0.29040  Biso   1.000  H
  C17      1.0000 0.39170  0.59630  0.25910  Biso   1.000  C
  H9       1.0000 0.35620  0.57460  0.23700  Biso   1.000  H
  C18      1.0000 0.46890  0.59860  0.26080  Biso   1.000  C
  H10      1.0000 0.49630  0.57970  0.23830  Biso   1.000  H
  C19      1.0000 0.78570  0.59470  0.54830  Biso   1.000  C
  H11      1.0000 0.76010  0.57010  0.52570  Biso   1.000  H
  C20      1.0000 0.86180  0.59770  0.59610  Biso   1.000  C
  H12      1.0000 0.89810  0.57560  0.61250  Biso   1.000  H
  C21      1.0000 0.87650  0.63630  0.61060  Biso   1.000  C
  H13      1.0000 0.92660  0.64720  0.63910  Biso   1.000  H
  C22      1.0000 0.81170  0.65950  0.57350  Biso   1.000  C
  H14      1.0000 0.80950  0.68870  0.56910  Biso   1.000  H
  C23      1.0000 0.75550  0.63250  0.53470  Biso   1.000  C
  H15      1.0000 0.70550  0.63950  0.49930  Biso   1.000  H
  C24      1.0000 0.94050  0.57970  0.81310  Biso   1.000  C
  H16      1.0000 0.96170  0.60320  0.79520  Biso   1.000  H
  C25      1.0000 0.88750  0.54090  0.88030  Biso   1.000  C
  H17      1.0000 0.86530  0.53200  0.91910  Biso   1.000  H
  C26      1.0000 0.94920  0.54040  0.79580  Biso   1.000  C
  H18      1.0000 0.97760  0.53140  0.76210  Biso   1.000  H
  C27      1.0000 0.91850  0.51570  0.83710  Biso   1.000  C
  H19      1.0000 0.92260  0.48650  0.84040  Biso   1.000  H
  C28      1.0000 0.90250  0.57890  0.86770  Biso   1.000  C
  H20      1.0000 0.89140  0.60210  0.89440  Biso   1.000  H
  N1       1.0000 0.48540  0.46830  0.29680  Biso   1.000  N
  N2       1.0000 0.62100  0.59491  0.92000  Biso   1.000  N
  N3       1.0000 0.21680  0.81580  0.41350  Biso   1.000  N
  N4       1.0000 0.55910  0.67150  0.78130  Biso   1.000  N
  C29      1.0000 0.44360  0.47100  0.22690  Biso   1.000  C
  H21      1.0000 0.39270  0.46280  0.21350  Biso   1.000  H
  C30      1.0000 0.47170  0.48550  0.17320  Biso   1.000  C
  H22      1.0000 0.44010  0.48710  0.12360  Biso   1.000  H
  C31      1.0000 0.54550  0.49790  0.19050  Biso   1.000  C
  C32      1.0000 0.58920  0.49450  0.26350  Biso   1.000  C
  H23      1.0000 0.64070  0.50160  0.27830  Biso   1.000  H
  C33      1.0000 0.55570  0.48030  0.31510  Biso   1.000  C
  H24      1.0000 0.58510  0.47920  0.36550  Biso   1.000  H
  C34      1.0000 0.57840  0.51510  0.13670  Biso   1.000  C
  H25      1.0000 0.63120  0.51370  0.14620  Biso   1.000  H
  C35      1.0000 0.53720  0.53260  0.07510  Biso   1.000  C
  H26      1.0000 0.48420  0.53220  0.06440  Biso   1.000  H
  C36      1.0000 0.56890  0.55290  0.02180  Biso   1.000  C
  C37      1.0000 0.52230  0.57790  0.97070  Biso   1.000  C
  H27      1.0000 0.47140  0.58120  0.96890  Biso   1.000  H
  C38      1.0000 0.55100  0.59820  0.92220  Biso   1.000  C
  H28      1.0000 0.51830  0.61550  0.88830  Biso   1.000  H
  C39      1.0000 0.64260  0.54880  0.02020  Biso   1.000  C
  H29      1.0000 0.67610  0.53150  0.05340  Biso   1.000  H
  C40      1.0000 0.66630  0.57010  0.96990  Biso   1.000  C
  H30      1.0000 0.71690  0.56730  0.97010  Biso   1.000  H
  C41      1.0000 0.18550  0.79800  0.45840  Biso   1.000  C
  H31      1.0000 0.13560  0.80500  0.45530  Biso   1.000  H
  C42      1.0000 0.22080  0.76970  0.50990  Biso   1.000  C
  H32      1.0000 0.19380  0.75570  0.53670  Biso   1.000  H
  C43      1.0000 0.29550  0.76250  0.52080  Biso   1.000  C
  C44      1.0000 0.32870  0.78000  0.47450  Biso   1.000  C
  H33      1.0000 0.37940  0.77440  0.47820  Biso   1.000  H
  C45      1.0000 0.28750  0.80630  0.42180  Biso   1.000  C
  H34      1.0000 0.31150  0.81820  0.38990  Biso   1.000  H
  C46      1.0000 0.33840  0.73700  0.58230  Biso   1.000  C
  H35      1.0000 0.31350  0.71520  0.59540  Biso   1.000  H
  C47      1.0000 0.40780  0.74290  0.61870  Biso   1.000  C
  H36      1.0000 0.43000  0.76560  0.60560  Biso   1.000  H
  C48      1.0000 0.45690  0.71900  0.67800  Biso   1.000  C
  C49      1.0000 0.43770  0.68350  0.69940  Biso   1.000  C
  H37      1.0000 0.38790  0.67400  0.67920  Biso   1.000  H
  C50      1.0000 0.49090  0.66100  0.75110  Biso   1.000  C
  H38      1.0000 0.47550  0.63640  0.76480  Biso   1.000  H
  C51      1.0000 0.53140  0.73140  0.71260  Biso   1.000  C
  H39      1.0000 0.54790  0.75610  0.70040  Biso   1.000  H
  C52      1.0000 0.57990  0.70790  0.76380  Biso   1.000  C
  H40      1.0000 0.62930  0.71700  0.78780  Biso   1.000  H
  O9       1.0000 0.85860  0.68360  0.77540  Biso   1.000  O
  C53      1.0000 0.24500  0.60980  0.50440  Biso   1.000  C
  H41      1.0000 0.20640  0.62960  0.47960  Biso   1.000  H
  C54      1.0000 0.23580  0.56860  0.49780  Biso   1.000  C
  H42      1.0000 0.19040  0.55460  0.46600  Biso   1.000  H
  C55      1.0000 0.29710  0.55090  0.55160  Biso   1.000  C
  H43      1.0000 0.30290  0.52230  0.56330  Biso   1.000  H
  C56      1.0000 0.34430  0.58110  0.59150  Biso   1.000  C
  H44      1.0000 0.38810  0.57750  0.63690  Biso   1.000  H
  C57      1.0000 0.31210  0.61750  0.56230  Biso   1.000  C
  H45      1.0000 0.32820  0.64370  0.58490  Biso   1.000  H
  C58      1.0000 0.34000  0.64560  0.43700  Biso   1.000  C
  O10      1.0000 0.33700  0.67550  0.42400  Biso   1.000  O
  Ag3      1.0000 0.92546  0.03664  0.88927  Biso   1.000  Ag
  Ag4      1.0000 0.83840  0.13113  0.66235  Biso   1.000  Ag
  Mo5      1.0000 0.14895  0.08764  0.03999  Biso   1.000  Mo
  Mo6      1.0000 0.03188  0.09979  0.11779  Biso   1.000  Mo
  Mo7      1.0000 0.71914  0.12273  0.84019  Biso   1.000  Mo
  Mo8      1.0000 0.67854  0.05183  0.74013  Biso   1.000  Mo
  P5       1.0000 0.02044  0.06311  0.00043  Biso   1.000  P
  P6       1.0000 0.08583  0.03676  0.09778  Biso   1.000  P
  P7       1.0000 0.80318  0.06945  0.83386  Biso   1.000  P
  P8       1.0000 0.77019  0.10233  0.73708  Biso   1.000  P
  C59      1.0000 0.22430  0.07820  0.14010  Biso   1.000  C
  C60      1.0000 0.93090  0.07410  0.09910  Biso   1.000  C
  C61      1.0000 0.98080  0.13650  0.03780  Biso   1.000  C
  C62      1.0000 0.79760  0.16230  0.84660  Biso   1.000  C
  C63      1.0000 0.65810  0.15220  0.75190  Biso   1.000  C
  C64      1.0000 0.74750  0.01090  0.72200  Biso   1.000  C
  C65      1.0000 0.67750  0.02130  0.82990  Biso   1.000  C
  O11      1.0000 0.26850  0.07420  0.19490  Biso   1.000  O
  O12      1.0000 0.87350  0.06110  0.08950  Biso   1.000  O
  O13      1.0000 0.94980  0.15750  0.99170  Biso   1.000  O
  O14      1.0000 0.84060  0.18660  0.85020  Biso   1.000  O
  O15      1.0000 0.61960  0.16740  0.69800  Biso   1.000  O
  O16      1.0000 0.78500  0.98770  0.71000  Biso   1.000  O
  O17      1.0000 0.67450  0.00310  0.87850  Biso   1.000  O
  C66      1.0000 0.18060  0.03760  0.00870  Biso   1.000  C
  O18      1.0000 0.20090  0.00940  0.98890  Biso   1.000  O
  C67      1.0000 0.15570  0.11170  0.93270  Biso   1.000  C
  H46      1.0000 0.15110  0.09720  0.88590  Biso   1.000  H
  C68      1.0000 0.10100  0.13440  0.95030  Biso   1.000  C
  H47      1.0000 0.04720  0.13580  0.91940  Biso   1.000  H
  C69      1.0000 0.13150  0.15560  0.01460  Biso   1.000  C
  H48      1.0000 0.10430  0.17440  0.03760  Biso   1.000  H
  C70      1.0000 0.20930  0.14580  0.04100  Biso   1.000  C
  H49      1.0000 0.24740  0.15780  0.08440  Biso   1.000  H
  C71      1.0000 0.22370  0.12130  0.99150  Biso   1.000  C
  H50      1.0000 0.27510  0.11270  0.99280  Biso   1.000  H
  C72      1.0000 0.00470  0.13580  0.20730  Biso   1.000  C
  H51      1.0000 0.95450  0.14730  0.20340  Biso   1.000  H
  C73      1.0000 0.06220  0.15520  0.19090  Biso   1.000  C
  H52      1.0000 0.06010  0.18270  0.17250  Biso   1.000  H
  C74      1.0000 0.12710  0.13110  0.21200  Biso   1.000  C
  H53      1.0000 0.17800  0.13840  0.20960  Biso   1.000  H
  C75      1.0000 0.10830  0.09630  0.24090  Biso   1.000  C
  H54      1.0000 0.14380  0.07460  0.26300  Biso   1.000  H
  C76      1.0000 0.03110  0.09860  0.23920  Biso   1.000  C
  H55      1.0000 0.00370  0.07970  0.26170  Biso   1.000  H
  C77      1.0000 0.71430  0.09470  0.95170  Biso   1.000  C
  H56      1.0000 0.73990  0.07010  0.97430  Biso   1.000  H
  C78      1.0000 0.63820  0.09770  0.90390  Biso   1.000  C
  H57      1.0000 0.60190  0.07560  0.88750  Biso   1.000  H
  C79      1.0000 0.62350  0.13630  0.88940  Biso   1.000  C
  H58      1.0000 0.57340  0.14720  0.86090  Biso   1.000  H
  C80      1.0000 0.68830  0.15950  0.92650  Biso   1.000  C
  H59      1.0000 0.69050  0.18870  0.93090  Biso   1.000  H
  C81      1.0000 0.74450  0.13250  0.96530  Biso   1.000  C
  H60      1.0000 0.79450  0.13950  0.00070  Biso   1.000  H
  C82      1.0000 0.55950  0.07970  0.68690  Biso   1.000  C
  H61      1.0000 0.53830  0.10320  0.70480  Biso   1.000  H
  C83      1.0000 0.61250  0.04090  0.61970  Biso   1.000  C
  H62      1.0000 0.63470  0.03200  0.58090  Biso   1.000  H
  C84      1.0000 0.55080  0.04040  0.70420  Biso   1.000  C
  H63      1.0000 0.52240  0.03140  0.73790  Biso   1.000  H
  C85      1.0000 0.58150  0.01570  0.66290  Biso   1.000  C
  H64      1.0000 0.57740  0.98650  0.65960  Biso   1.000  H
  C86      1.0000 0.59750  0.07890  0.63230  Biso   1.000  C
  H65      1.0000 0.60860  0.10210  0.60560  Biso   1.000  H
  N5       1.0000 0.01460  0.96830  0.20320  Biso   1.000  N
  N6       1.0000 0.87900  0.09491  0.58000  Biso   1.000  N
  N7       1.0000 0.28320  0.31580  0.08650  Biso   1.000  N
  N8       1.0000 0.94090  0.17150  0.71870  Biso   1.000  N
  C87      1.0000 0.05640  0.97100  0.27310  Biso   1.000  C
  H66      1.0000 0.10730  0.96280  0.28650  Biso   1.000  H
  C88      1.0000 0.02830  0.98550  0.32680  Biso   1.000  C
  H67      1.0000 0.05990  0.98710  0.37640  Biso   1.000  H
  C89      1.0000 0.95450  0.99790  0.30950  Biso   1.000  C
  C90      1.0000 0.91080  0.99450  0.23650  Biso   1.000  C
  H68      1.0000 0.85930  0.00160  0.22170  Biso   1.000  H
  C91      1.0000 0.94430  0.98030  0.18490  Biso   1.000  C
  H69      1.0000 0.91490  0.97920  0.13450  Biso   1.000  H
  C92      1.0000 0.92160  0.01510  0.36330  Biso   1.000  C
  H70      1.0000 0.86880  0.01370  0.35380  Biso   1.000  H
  C93      1.0000 0.96280  0.03260  0.42490  Biso   1.000  C
  H71      1.0000 0.01580  0.03220  0.43560  Biso   1.000  H
  C94      1.0000 0.93110  0.05290  0.47820  Biso   1.000  C
  C95      1.0000 0.97770  0.07790  0.52930  Biso   1.000  C
  H72      1.0000 0.02860  0.08120  0.53110  Biso   1.000  H
  C96      1.0000 0.94900  0.09820  0.57780  Biso   1.000  C
  H73      1.0000 0.98170  0.11550  0.61170  Biso   1.000  H
  C97      1.0000 0.85740  0.04880  0.47980  Biso   1.000  C
  H74      1.0000 0.82390  0.03150  0.44660  Biso   1.000  H
  C98      1.0000 0.83370  0.07010  0.53010  Biso   1.000  C
  H75      1.0000 0.78310  0.06730  0.52990  Biso   1.000  H
  C99      1.0000 0.31450  0.29800  0.04160  Biso   1.000  C
  H76      1.0000 0.36440  0.30500  0.04470  Biso   1.000  H
  C100     1.0000 0.27920  0.26970  0.99010  Biso   1.000  C
  H77      1.0000 0.30620  0.25570  0.96330  Biso   1.000  H
  C101     1.0000 0.20450  0.26250  0.97920  Biso   1.000  C
  C102     1.0000 0.17130  0.28000  0.02550  Biso   1.000  C
  H78      1.0000 0.12060  0.27440  0.02180  Biso   1.000  H
  C103     1.0000 0.21250  0.30630  0.07820  Biso   1.000  C
  H79      1.0000 0.18850  0.31820  0.11010  Biso   1.000  H
  C104     1.0000 0.16160  0.23700  0.91770  Biso   1.000  C
  H80      1.0000 0.18650  0.21520  0.90460  Biso   1.000  H
  C105     1.0000 0.09220  0.24290  0.88130  Biso   1.000  C
  H81      1.0000 0.07000  0.26560  0.89440  Biso   1.000  H
  C106     1.0000 0.04310  0.21900  0.82200  Biso   1.000  C
  C107     1.0000 0.06230  0.18350  0.80060  Biso   1.000  C
  H82      1.0000 0.11210  0.17400  0.82080  Biso   1.000  H
  C108     1.0000 0.00910  0.16100  0.74890  Biso   1.000  C
  H83      1.0000 0.02450  0.13640  0.73520  Biso   1.000  H
  C109     1.0000 0.96860  0.23140  0.78740  Biso   1.000  C
  H84      1.0000 0.95210  0.25610  0.79960  Biso   1.000  H
  C110     1.0000 0.92010  0.20790  0.73620  Biso   1.000  C
  H85      1.0000 0.87070  0.21700  0.71220  Biso   1.000  H
  O19      1.0000 0.64140  0.18360  0.72460  Biso   1.000  O
  C111     1.0000 0.25500  0.10980  0.99560  Biso   1.000  C
  H86      1.0000 0.29360  0.12960  0.02040  Biso   1.000  H
  C112     1.0000 0.26420  0.06860  0.00220  Biso   1.000  C
  H87      1.0000 0.30960  0.05460  0.03400  Biso   1.000  H
  C113     1.0000 0.20290  0.05090  0.94840  Biso   1.000  C
  H88      1.0000 0.19710  0.02230  0.93670  Biso   1.000  H
  C114     1.0000 0.15570  0.08110  0.90850  Biso   1.000  C
  H89      1.0000 0.11190  0.07750  0.86310  Biso   1.000  H
  C115     1.0000 0.18790  0.11750  0.93770  Biso   1.000  C
  H90      1.0000 0.17180  0.14370  0.91510  Biso   1.000  H
  C116     1.0000 0.16000  0.14560  0.06300  Biso   1.000  C
  O20      1.0000 0.16300  0.17550  0.07600  Biso   1.000  O
  Ag5      1.0000 0.42546  0.46336  0.38927  Biso   1.000  Ag
  Ag6      1.0000 0.33840  0.36887  0.16235  Biso   1.000  Ag
  Mo9      1.0000 0.64895  0.41236  0.53999  Biso   1.000  Mo
  Mo10     1.0000 0.53188  0.40021  0.61779  Biso   1.000  Mo
  Mo11     1.0000 0.21914  0.37727  0.34019  Biso   1.000  Mo
  Mo12     1.0000 0.17854  0.44817  0.24013  Biso   1.000  Mo
  P9       1.0000 0.52044  0.43689  0.50043  Biso   1.000  P
  P10      1.0000 0.58583  0.46324  0.59778  Biso   1.000  P
  P11      1.0000 0.30318  0.43055  0.33386  Biso   1.000  P
  P12      1.0000 0.27019  0.39767  0.23708  Biso   1.000  P
  C117     1.0000 0.72430  0.42180  0.64010  Biso   1.000  C
  C118     1.0000 0.43090  0.42590  0.59910  Biso   1.000  C
  C119     1.0000 0.48080  0.36350  0.53780  Biso   1.000  C
  C120     1.0000 0.29760  0.33770  0.34660  Biso   1.000  C
  C121     1.0000 0.15810  0.34780  0.25190  Biso   1.000  C
  C122     1.0000 0.24750  0.48910  0.22200  Biso   1.000  C
  C123     1.0000 0.17750  0.47870  0.32990  Biso   1.000  C
  O21      1.0000 0.76850  0.42580  0.69490  Biso   1.000  O
  O22      1.0000 0.37350  0.43890  0.58950  Biso   1.000  O
  O23      1.0000 0.44980  0.34250  0.49170  Biso   1.000  O
  O24      1.0000 0.34060  0.31340  0.35020  Biso   1.000  O
  O25      1.0000 0.11960  0.33260  0.19800  Biso   1.000  O
  O26      1.0000 0.28500  0.51230  0.21000  Biso   1.000  O
  O27      1.0000 0.17450  0.49690  0.37850  Biso   1.000  O
  C124     1.0000 0.68060  0.46240  0.50870  Biso   1.000  C
  O28      1.0000 0.70090  0.49060  0.48890  Biso   1.000  O
  C125     1.0000 0.65570  0.38830  0.43270  Biso   1.000  C
  H91      1.0000 0.65110  0.40280  0.38590  Biso   1.000  H
  C126     1.0000 0.60100  0.36560  0.45030  Biso   1.000  C
  H92      1.0000 0.54720  0.36420  0.41940  Biso   1.000  H
  C127     1.0000 0.63150  0.34440  0.51460  Biso   1.000  C
  H93      1.0000 0.60430  0.32560  0.53760  Biso   1.000  H
  C128     1.0000 0.70930  0.35420  0.54100  Biso   1.000  C
  H94      1.0000 0.74740  0.34220  0.58440  Biso   1.000  H
  C129     1.0000 0.72370  0.37870  0.49150  Biso   1.000  C
  H95      1.0000 0.77510  0.38730  0.49280  Biso   1.000  H
  C130     1.0000 0.50470  0.36420  0.70730  Biso   1.000  C
  H96      1.0000 0.45450  0.35270  0.70340  Biso   1.000  H
  C131     1.0000 0.56220  0.34480  0.69090  Biso   1.000  C
  H97      1.0000 0.56010  0.31730  0.67250  Biso   1.000  H
  C132     1.0000 0.62710  0.36890  0.71200  Biso   1.000  C
  H98      1.0000 0.67800  0.36160  0.70960  Biso   1.000  H
  C133     1.0000 0.60830  0.40370  0.74090  Biso   1.000  C
  H99      1.0000 0.64380  0.42540  0.76300  Biso   1.000  H
  C134     1.0000 0.53110  0.40140  0.73920  Biso   1.000  C
  H100     1.0000 0.50370  0.42030  0.76170  Biso   1.000  H
  C135     1.0000 0.21430  0.40530  0.45170  Biso   1.000  C
  H101     1.0000 0.23990  0.42990  0.47430  Biso   1.000  H
  C136     1.0000 0.13820  0.40230  0.40390  Biso   1.000  C
  H102     1.0000 0.10190  0.42440  0.38750  Biso   1.000  H
  C137     1.0000 0.12350  0.36370  0.38940  Biso   1.000  C
  H103     1.0000 0.07340  0.35280  0.36090  Biso   1.000  H
  C138     1.0000 0.18830  0.34050  0.42650  Biso   1.000  C
  H104     1.0000 0.19050  0.31130  0.43090  Biso   1.000  H
  C139     1.0000 0.24450  0.36750  0.46530  Biso   1.000  C
  H105     1.0000 0.29450  0.36050  0.50070  Biso   1.000  H
  C140     1.0000 0.05950  0.42030  0.18690  Biso   1.000  C
  H106     1.0000 0.03830  0.39680  0.20480  Biso   1.000  H
  C141     1.0000 0.11250  0.45910  0.11970  Biso   1.000  C
  H107     1.0000 0.13470  0.46800  0.08090  Biso   1.000  H
  C142     1.0000 0.05080  0.45960  0.20420  Biso   1.000  C
  H108     1.0000 0.02240  0.46860  0.23790  Biso   1.000  H
  C143     1.0000 0.08150  0.48430  0.16290  Biso   1.000  C
  H109     1.0000 0.07740  0.51350  0.15960  Biso   1.000  H
  C144     1.0000 0.09750  0.42110  0.13230  Biso   1.000  C
  H110     1.0000 0.10860  0.39790  0.10560  Biso   1.000  H
  N9       1.0000 0.51460  0.53170  0.70320  Biso   1.000  N
  N10      1.0000 0.37900  0.40509  0.08000  Biso   1.000  N
  N11      1.0000 0.78320  0.18420  0.58650  Biso   1.000  N
  N12      1.0000 0.44090  0.32850  0.21870  Biso   1.000  N
  C145     1.0000 0.55640  0.52900  0.77310  Biso   1.000  C
  H111     1.0000 0.60730  0.53720  0.78650  Biso   1.000  H
  C146     1.0000 0.52830  0.51450  0.82680  Biso   1.000  C
  H112     1.0000 0.55990  0.51290  0.87640  Biso   1.000  H
  C147     1.0000 0.45450  0.50210  0.80950  Biso   1.000  C
  C148     1.0000 0.41080  0.50550  0.73650  Biso   1.000  C
  H113     1.0000 0.35930  0.49840  0.72170  Biso   1.000  H
  C149     1.0000 0.44430  0.51970  0.68490  Biso   1.000  C
  H114     1.0000 0.41490  0.52080  0.63450  Biso   1.000  H
  C150     1.0000 0.42160  0.48490  0.86330  Biso   1.000  C
  H115     1.0000 0.36880  0.48630  0.85380  Biso   1.000  H
  C151     1.0000 0.46280  0.46740  0.92490  Biso   1.000  C
  H116     1.0000 0.51580  0.46780  0.93560  Biso   1.000  H
  C152     1.0000 0.43110  0.44710  0.97820  Biso   1.000  C
  C153     1.0000 0.47770  0.42210  0.02930  Biso   1.000  C
  H117     1.0000 0.52860  0.41880  0.03110  Biso   1.000  H
  C154     1.0000 0.44900  0.40180  0.07780  Biso   1.000  C
  H118     1.0000 0.48170  0.38450  0.11170  Biso   1.000  H
  C155     1.0000 0.35740  0.45120  0.97980  Biso   1.000  C
  H119     1.0000 0.32390  0.46850  0.94660  Biso   1.000  H
  C156     1.0000 0.33370  0.42990  0.03010  Biso   1.000  C
  H120     1.0000 0.28310  0.43270  0.02990  Biso   1.000  H
  C157     1.0000 0.81450  0.20200  0.54160  Biso   1.000  C
  H121     1.0000 0.86440  0.19500  0.54470  Biso   1.000  H
  C158     1.0000 0.77920  0.23030  0.49010  Biso   1.000  C
  H122     1.0000 0.80620  0.24430  0.46330  Biso   1.000  H
  C159     1.0000 0.70450  0.23750  0.47920  Biso   1.000  C
  C160     1.0000 0.67130  0.22000  0.52550  Biso   1.000  C
  H123     1.0000 0.62060  0.22560  0.52180  Biso   1.000  H
  C161     1.0000 0.71250  0.19370  0.57820  Biso   1.000  C
  H124     1.0000 0.68850  0.18180  0.61010  Biso   1.000  H
  C162     1.0000 0.66160  0.26300  0.41770  Biso   1.000  C
  H125     1.0000 0.68650  0.28480  0.40460  Biso   1.000  H
  C163     1.0000 0.59220  0.25710  0.38130  Biso   1.000  C
  H126     1.0000 0.57000  0.23440  0.39440  Biso   1.000  H
  C164     1.0000 0.54310  0.28100  0.32200  Biso   1.000  C
  C165     1.0000 0.56230  0.31650  0.30060  Biso   1.000  C
  H127     1.0000 0.61210  0.32600  0.32080  Biso   1.000  H
  C166     1.0000 0.50910  0.33900  0.24890  Biso   1.000  C
  H128     1.0000 0.52450  0.36360  0.23520  Biso   1.000  H
  C167     1.0000 0.46860  0.26860  0.28740  Biso   1.000  C
  H129     1.0000 0.45210  0.24390  0.29960  Biso   1.000  H
  C168     1.0000 0.42010  0.29210  0.23620  Biso   1.000  C
  H130     1.0000 0.37070  0.28300  0.21220  Biso   1.000  H
  O29      1.0000 0.14140  0.31640  0.22460  Biso   1.000  O
  C169     1.0000 0.75500  0.39020  0.49560  Biso   1.000  C
  H131     1.0000 0.79360  0.37040  0.52040  Biso   1.000  H
  C170     1.0000 0.76420  0.43140  0.50220  Biso   1.000  C
  H132     1.0000 0.80960  0.44540  0.53400  Biso   1.000  H
  C171     1.0000 0.70290  0.44910  0.44840  Biso   1.000  C
  H133     1.0000 0.69710  0.47770  0.43670  Biso   1.000  H
  C172     1.0000 0.65570  0.41890  0.40850  Biso   1.000  C
  H134     1.0000 0.61190  0.42250  0.36310  Biso   1.000  H
  C173     1.0000 0.68790  0.38250  0.43770  Biso   1.000  C
  H135     1.0000 0.67180  0.35630  0.41510  Biso   1.000  H
  C174     1.0000 0.66000  0.35440  0.56300  Biso   1.000  C
  O30      1.0000 0.66300  0.32450  0.57600  Biso   1.000  O
  Ag7      1.0000 0.07454  0.96336  0.11073  Biso   1.000  Ag
  Ag8      1.0000 0.16160  0.86887  0.33765  Biso   1.000  Ag
  Mo13     1.0000 0.85105  0.91236  0.96001  Biso   1.000  Mo
  Mo14     1.0000 0.96812  0.90021  0.88221  Biso   1.000  Mo
  Mo15     1.0000 0.28086  0.87727  0.15981  Biso   1.000  Mo
  Mo16     1.0000 0.32146  0.94817  0.25987  Biso   1.000  Mo
  P13      1.0000 0.97956  0.93689  0.99957  Biso   1.000  P
  P14      1.0000 0.91417  0.96324  0.90222  Biso   1.000  P
  P15      1.0000 0.19682  0.93055  0.16614  Biso   1.000  P
  P16      1.0000 0.22981  0.89767  0.26292  Biso   1.000  P
  C175     1.0000 0.77570  0.92180  0.85990  Biso   1.000  C
  C176     1.0000 0.06910  0.92590  0.90090  Biso   1.000  C
  C177     1.0000 0.01920  0.86350  0.96220  Biso   1.000  C
  C178     1.0000 0.20240  0.83770  0.15340  Biso   1.000  C
  C179     1.0000 0.34190  0.84780  0.24810  Biso   1.000  C
  C180     1.0000 0.25250  0.98910  0.27800  Biso   1.000  C
  C181     1.0000 0.32250  0.97870  0.17010  Biso   1.000  C
  O31      1.0000 0.73150  0.92580  0.80510  Biso   1.000  O
  O32      1.0000 0.12650  0.93890  0.91050  Biso   1.000  O
  O33      1.0000 0.05020  0.84250  0.00830  Biso   1.000  O
  O34      1.0000 0.15940  0.81340  0.14980  Biso   1.000  O
  O35      1.0000 0.38040  0.83260  0.30200  Biso   1.000  O
  O36      1.0000 0.21500  0.01230  0.29000  Biso   1.000  O
  O37      1.0000 0.32550  0.99690  0.12150  Biso   1.000  O
  C182     1.0000 0.81940  0.96240  0.99130  Biso   1.000  C
  O38      1.0000 0.79910  0.99060  0.01110  Biso   1.000  O
  C183     1.0000 0.84430  0.88830  0.06730  Biso   1.000  C
  H136     1.0000 0.84890  0.90280  0.11410  Biso   1.000  H
  C184     1.0000 0.89900  0.86560  0.04970  Biso   1.000  C
  H137     1.0000 0.95280  0.86420  0.08060  Biso   1.000  H
  C185     1.0000 0.86850  0.84440  0.98540  Biso   1.000  C
  H138     1.0000 0.89570  0.82560  0.96240  Biso   1.000  H
  C186     1.0000 0.79070  0.85420  0.95900  Biso   1.000  C
  H139     1.0000 0.75260  0.84220  0.91560  Biso   1.000  H
  C187     1.0000 0.77630  0.87870  0.00850  Biso   1.000  C
  H140     1.0000 0.72490  0.88730  0.00720  Biso   1.000  H
  C188     1.0000 0.99530  0.86420  0.79270  Biso   1.000  C
  H141     1.0000 0.04550  0.85270  0.79660  Biso   1.000  H
  C189     1.0000 0.93780  0.84480  0.80910  Biso   1.000  C
  H142     1.0000 0.93990  0.81730  0.82750  Biso   1.000  H
  C190     1.0000 0.87290  0.86890  0.78800  Biso   1.000  C
  H143     1.0000 0.82200  0.86160  0.79040  Biso   1.000  H
  C191     1.0000 0.89170  0.90370  0.75910  Biso   1.000  C
  H144     1.0000 0.85620  0.92540  0.73700  Biso   1.000  H
  C192     1.0000 0.96890  0.90140  0.76080  Biso   1.000  C
  H145     1.0000 0.99630  0.92030  0.73830  Biso   1.000  H
  C193     1.0000 0.28570  0.90530  0.04830  Biso   1.000  C
  H146     1.0000 0.26010  0.92990  0.02570  Biso   1.000  H
  C194     1.0000 0.36180  0.90230  0.09610  Biso   1.000  C
  H147     1.0000 0.39810  0.92440  0.11250  Biso   1.000  H
  C195     1.0000 0.37650  0.86370  0.11060  Biso   1.000  C
  H148     1.0000 0.42660  0.85280  0.13910  Biso   1.000  H
  C196     1.0000 0.31170  0.84050  0.07350  Biso   1.000  C
  H149     1.0000 0.30950  0.81130  0.06910  Biso   1.000  H
  C197     1.0000 0.25550  0.86750  0.03470  Biso   1.000  C
  H150     1.0000 0.20550  0.86050  0.99930  Biso   1.000  H
  C198     1.0000 0.44050  0.92030  0.31310  Biso   1.000  C
  H151     1.0000 0.46170  0.89680  0.29520  Biso   1.000  H
  C199     1.0000 0.38750  0.95910  0.38030  Biso   1.000  C
  H152     1.0000 0.36530  0.96800  0.41910  Biso   1.000  H
  C200     1.0000 0.44920  0.95960  0.29580  Biso   1.000  C
  H153     1.0000 0.47760  0.96860  0.26210  Biso   1.000  H
  C201     1.0000 0.41850  0.98430  0.33710  Biso   1.000  C
  H154     1.0000 0.42260  0.01350  0.34040  Biso   1.000  H
  C202     1.0000 0.40250  0.92110  0.36770  Biso   1.000  C
  H155     1.0000 0.39140  0.89790  0.39440  Biso   1.000  H
  N13      1.0000 0.98540  0.03170  0.79680  Biso   1.000  N
  N14      1.0000 0.12100  0.90509  0.42000  Biso   1.000  N
  N15      1.0000 0.71680  0.68420  0.91350  Biso   1.000  N
  N16      1.0000 0.05910  0.82850  0.28130  Biso   1.000  N
  C203     1.0000 0.94360  0.02900  0.72690  Biso   1.000  C
  H156     1.0000 0.89270  0.03720  0.71350  Biso   1.000  H
  C204     1.0000 0.97170  0.01450  0.67320  Biso   1.000  C
  H157     1.0000 0.94010  0.01290  0.62360  Biso   1.000  H
  C205     1.0000 0.04550  0.00210  0.69050  Biso   1.000  C
  C206     1.0000 0.08920  0.00550  0.76350  Biso   1.000  C
  H158     1.0000 0.14070  0.99840  0.77830  Biso   1.000  H
  C207     1.0000 0.05570  0.01970  0.81510  Biso   1.000  C
  H159     1.0000 0.08510  0.02080  0.86550  Biso   1.000  H
  C208     1.0000 0.07840  0.98490  0.63670  Biso   1.000  C
  H160     1.0000 0.13120  0.98630  0.64620  Biso   1.000  H
  C209     1.0000 0.03720  0.96740  0.57510  Biso   1.000  C
  H161     1.0000 0.98420  0.96780  0.56440  Biso   1.000  H
  C210     1.0000 0.06890  0.94710  0.52180  Biso   1.000  C
  C211     1.0000 0.02230  0.92210  0.47070  Biso   1.000  C
  H162     1.0000 0.97140  0.91880  0.46890  Biso   1.000  H
  C212     1.0000 0.05100  0.90180  0.42220  Biso   1.000  C
  H163     1.0000 0.01830  0.88450  0.38830  Biso   1.000  H
  C213     1.0000 0.14260  0.95120  0.52020  Biso   1.000  C
  H164     1.0000 0.17610  0.96850  0.55340  Biso   1.000  H
  C214     1.0000 0.16630  0.92990  0.46990  Biso   1.000  C
  H165     1.0000 0.21690  0.93270  0.47010  Biso   1.000  H
  C215     1.0000 0.68550  0.70200  0.95840  Biso   1.000  C
  H166     1.0000 0.63560  0.69500  0.95530  Biso   1.000  H
  C216     1.0000 0.72080  0.73030  0.00990  Biso   1.000  C
  H167     1.0000 0.69380  0.74430  0.03670  Biso   1.000  H
  C217     1.0000 0.79550  0.73750  0.02080  Biso   1.000  C
  C218     1.0000 0.82870  0.72000  0.97450  Biso   1.000  C
  H168     1.0000 0.87940  0.72560  0.97820  Biso   1.000  H
  C219     1.0000 0.78750  0.69370  0.92180  Biso   1.000  C
  H169     1.0000 0.81150  0.68180  0.88990  Biso   1.000  H
  C220     1.0000 0.83840  0.76300  0.08230  Biso   1.000  C
  H170     1.0000 0.81350  0.78480  0.09540  Biso   1.000  H
  C221     1.0000 0.90780  0.75710  0.11870  Biso   1.000  C
  H171     1.0000 0.93000  0.73440  0.10560  Biso   1.000  H
  C222     1.0000 0.95690  0.78100  0.17800  Biso   1.000  C
  C223     1.0000 0.93770  0.81650  0.19940  Biso   1.000  C
  H172     1.0000 0.88790  0.82600  0.17920  Biso   1.000  H
  C224     1.0000 0.99090  0.83900  0.25110  Biso   1.000  C
  H173     1.0000 0.97550  0.86360  0.26480  Biso   1.000  H
  C225     1.0000 0.03140  0.76860  0.21260  Biso   1.000  C
  H174     1.0000 0.04790  0.74390  0.20040  Biso   1.000  H
  C226     1.0000 0.07990  0.79210  0.26380  Biso   1.000  C
  H175     1.0000 0.12930  0.78300  0.28780  Biso   1.000  H
  O39      1.0000 0.35860  0.81640  0.27540  Biso   1.000  O
  C227     1.0000 0.74500  0.89020  0.00440  Biso   1.000  C
  H176     1.0000 0.70640  0.87040  0.97960  Biso   1.000  H
  C228     1.0000 0.73580  0.93140  0.99780  Biso   1.000  C
  H177     1.0000 0.69040  0.94540  0.96600  Biso   1.000  H
  C229     1.0000 0.79710  0.94910  0.05160  Biso   1.000  C
  H178     1.0000 0.80290  0.97770  0.06330  Biso   1.000  H
  C230     1.0000 0.84430  0.91890  0.09150  Biso   1.000  C
  H179     1.0000 0.88810  0.92250  0.13690  Biso   1.000  H
  C231     1.0000 0.81210  0.88250  0.06230  Biso   1.000  C
  H180     1.0000 0.82820  0.85630  0.08490  Biso   1.000  H
  C232     1.0000 0.84000  0.85440  0.93700  Biso   1.000  C
  O40      1.0000 0.83700  0.82450  0.92400  Biso   1.000  O
