data_image0
_cell_length_a       30.651
_cell_length_b       25.1663
_cell_length_c       12.6824
_cell_angle_alpha    90
_cell_angle_beta     112.739
_cell_angle_gamma    90

_symmetry_space_group_name_H-M    "P 1"
_symmetry_int_tables_number       1

loop_
  _symmetry_equiv_pos_as_xyz
  'x, y, z'

loop_
  _atom_site_label
  _atom_site_occupancy
  _atom_site_fract_x
  _atom_site_fract_y
  _atom_site_fract_z
  _atom_site_thermal_displace_type
  _atom_site_B_iso_or_equiv
  _atom_site_type_symbol
  Ni1      1.0000 0.06315  0.25456  0.06267  Biso   1.000  Ni
  O1       1.0000 0.24169  0.44197  0.15654  Biso   1.000  O
  O2       1.0000 0.24036  0.44020  0.33117  Biso   1.000  O
  O3       1.0000 0.03920  0.30792  0.93212  Biso   1.000  O
  O4       1.0000 0.96146  0.29767  0.83592  Biso   1.000  O
  N1       1.0000 0.12407  0.30097  0.12473  Biso   1.000  N
  C1       1.0000 0.00062  0.31805  0.85370  Biso   1.000  C
  C2       1.0000 0.22831  0.42465  0.23120  Biso   1.000  C
  C3       1.0000 0.19288  0.37981  0.19460  Biso   1.000  C
  C4       1.0000 0.17678  0.35937  0.08520  Biso   1.000  C
  H1       1.0000 0.18920  0.37210  0.03200  Biso   1.000  H
  C5       1.0000 0.14290  0.32078  0.05400  Biso   1.000  C
  H2       1.0000 0.13210  0.30730  0.97820  Biso   1.000  H
  C6       1.0000 0.14096  0.31870  0.23130  Biso   1.000  C
  H3       1.0000 0.12900  0.30390  0.28370  Biso   1.000  H
  C7       1.0000 0.17517  0.35768  0.26970  Biso   1.000  C
  H4       1.0000 0.18640  0.36920  0.34700  Biso   1.000  H
  O5       1.0000 0.46734  0.65700  0.11790  Biso   1.000  O
  O6       1.0000 0.40530  0.70780  0.01980  Biso   1.000  O
  C8       1.0000 0.42540  0.66890  0.07910  Biso   1.000  C
  C9       1.0000 0.39300  0.63190  0.10380  Biso   1.000  C
  C10      1.0000 0.34370  0.63970  0.05800  Biso   1.000  C
  C11      1.0000 0.31600  0.60050  0.07610  Biso   1.000  C
  N2       1.0000 0.32690  0.56280  0.13900  Biso   1.000  N
  C12      1.0000 0.37990  0.55180  0.18930  Biso   1.000  C
  C13      1.0000 0.41150  0.58700  0.17500  Biso   1.000  C
  N3       1.0000 0.00192  0.44054  0.61823  Biso   1.000  N
  C14      1.0000 0.00095  0.36097  0.77050  Biso   1.000  C
  C15      1.0000 0.03740  0.39700  0.79950  Biso   1.000  C
  C16      1.0000 0.03670  0.43680  0.72170  Biso   1.000  C
  O7       1.0000 0.36847  0.41962  0.45390  Biso   1.000  O
  O8       1.0000 0.31610  0.44010  0.53420  Biso   1.000  O
  C17      1.0000 0.34916  0.41400  0.52450  Biso   1.000  C
  C18      1.0000 0.36910  0.37080  0.61640  Biso   1.000  C
  C19      1.0000 0.41220  0.34700  0.63560  Biso   1.000  C
  C20      1.0000 0.43026  0.31030  0.72290  Biso   1.000  C
  N4       1.0000 0.40940  0.29210  0.79290  Biso   1.000  N
  C21      1.0000 0.36580  0.32090  0.77250  Biso   1.000  C
  C22      1.0000 0.34080  0.36440  0.65250  Biso   1.000  C
  C23      1.0000 0.96650  0.40420  0.59010  Biso   1.000  C
  C24      1.0000 0.96450  0.36480  0.66400  Biso   1.000  C
  O9       1.0000 0.37410  0.58408  0.31540  Biso   1.000  O
  O10      1.0000 0.33350  0.55410  0.13900  Biso   1.000  O
  C25      1.0000 0.35850  0.58880  0.20890  Biso   1.000  C
  C26      1.0000 0.37620  0.63330  0.15430  Biso   1.000  C
  C27      1.0000 0.42000  0.65750  0.21180  Biso   1.000  C
  C28      1.0000 0.43490  0.69370  0.15020  Biso   1.000  C
  N5       1.0000 0.41270  0.70900  0.04400  Biso   1.000  N
  C29      1.0000 0.36640  0.68540  0.99040  Biso   1.000  C
  C30      1.0000 0.34830  0.64730  0.04100  Biso   1.000  C
  O11      1.0000 0.46500  0.34950  0.82490  Biso   1.000  O
  O12      1.0000 0.40540  0.30130  0.80970  Biso   1.000  O
  C31      1.0000 0.42380  0.33720  0.78640  Biso   1.000  C
  C32      1.0000 0.38930  0.37430  0.69930  Biso   1.000  C
  C33      1.0000 0.40520  0.42020  0.66630  Biso   1.000  C
  C34      1.0000 0.37288  0.45470  0.59110  Biso   1.000  C
  N6       1.0000 0.32700  0.44590  0.54000  Biso   1.000  N
  C35      1.0000 0.31090  0.39960  0.57430  Biso   1.000  C
  C36      1.0000 0.34580  0.35640  0.68640  Biso   1.000  C
  C37      1.0000 0.03780  0.40900  0.66600  Biso   1.000  C
  C38      1.0000 0.03990  0.37110  0.74550  Biso   1.000  C
  C39      1.0000 0.96550  0.43290  0.64690  Biso   1.000  C
  C40      1.0000 0.96390  0.39310  0.72080  Biso   1.000  C
  Ni2      1.0000 0.56315  0.75456  0.06267  Biso   1.000  Ni
  O13      1.0000 0.74169  0.94197  0.15654  Biso   1.000  O
  O14      1.0000 0.74036  0.94020  0.33117  Biso   1.000  O
  O15      1.0000 0.53920  0.80792  0.93212  Biso   1.000  O
  O16      1.0000 0.46146  0.79767  0.83592  Biso   1.000  O
  N7       1.0000 0.62407  0.80097  0.12473  Biso   1.000  N
  C41      1.0000 0.50062  0.81805  0.85370  Biso   1.000  C
  C42      1.0000 0.72831  0.92465  0.23120  Biso   1.000  C
  C43      1.0000 0.69288  0.87981  0.19460  Biso   1.000  C
  C44      1.0000 0.67678  0.85937  0.08520  Biso   1.000  C
  H5       1.0000 0.68920  0.87210  0.03200  Biso   1.000  H
  C45      1.0000 0.64290  0.82078  0.05400  Biso   1.000  C
  H6       1.0000 0.63210  0.80730  0.97820  Biso   1.000  H
  C46      1.0000 0.64096  0.81870  0.23130  Biso   1.000  C
  H7       1.0000 0.62900  0.80390  0.28370  Biso   1.000  H
  C47      1.0000 0.67517  0.85768  0.26970  Biso   1.000  C
  H8       1.0000 0.68640  0.86920  0.34700  Biso   1.000  H
  O17      1.0000 0.96734  0.15700  0.11790  Biso   1.000  O
  O18      1.0000 0.90530  0.20780  0.01980  Biso   1.000  O
  C48      1.0000 0.92540  0.16890  0.07910  Biso   1.000  C
  C49      1.0000 0.89300  0.13190  0.10380  Biso   1.000  C
  C50      1.0000 0.84370  0.13970  0.05800  Biso   1.000  C
  C51      1.0000 0.81600  0.10050  0.07610  Biso   1.000  C
  N8       1.0000 0.82690  0.06280  0.13900  Biso   1.000  N
  C52      1.0000 0.87990  0.05180  0.18930  Biso   1.000  C
  C53      1.0000 0.91150  0.08700  0.17500  Biso   1.000  C
  N9       1.0000 0.50192  0.94054  0.61823  Biso   1.000  N
  C54      1.0000 0.50095  0.86097  0.77050  Biso   1.000  C
  C55      1.0000 0.53740  0.89700  0.79950  Biso   1.000  C
  C56      1.0000 0.53670  0.93680  0.72170  Biso   1.000  C
  O19      1.0000 0.86847  0.91962  0.45390  Biso   1.000  O
  O20      1.0000 0.81610  0.94010  0.53420  Biso   1.000  O
  C57      1.0000 0.84916  0.91400  0.52450  Biso   1.000  C
  C58      1.0000 0.86910  0.87080  0.61640  Biso   1.000  C
  C59      1.0000 0.91220  0.84700  0.63560  Biso   1.000  C
  C60      1.0000 0.93026  0.81030  0.72290  Biso   1.000  C
  N10      1.0000 0.90940  0.79210  0.79290  Biso   1.000  N
  C61      1.0000 0.86580  0.82090  0.77250  Biso   1.000  C
  C62      1.0000 0.84080  0.86440  0.65250  Biso   1.000  C
  C63      1.0000 0.46650  0.90420  0.59010  Biso   1.000  C
  C64      1.0000 0.46450  0.86480  0.66400  Biso   1.000  C
  O21      1.0000 0.87410  0.08408  0.31540  Biso   1.000  O
  O22      1.0000 0.83350  0.05410  0.13900  Biso   1.000  O
  C65      1.0000 0.85850  0.08880  0.20890  Biso   1.000  C
  C66      1.0000 0.87620  0.13330  0.15430  Biso   1.000  C
  C67      1.0000 0.92000  0.15750  0.21180  Biso   1.000  C
  C68      1.0000 0.93490  0.19370  0.15020  Biso   1.000  C
  N11      1.0000 0.91270  0.20900  0.04400  Biso   1.000  N
  C69      1.0000 0.86640  0.18540  0.99040  Biso   1.000  C
  C70      1.0000 0.84830  0.14730  0.04100  Biso   1.000  C
  O23      1.0000 0.96500  0.84950  0.82490  Biso   1.000  O
  O24      1.0000 0.90540  0.80130  0.80970  Biso   1.000  O
  C71      1.0000 0.92380  0.83720  0.78640  Biso   1.000  C
  C72      1.0000 0.88930  0.87430  0.69930  Biso   1.000  C
  C73      1.0000 0.90520  0.92020  0.66630  Biso   1.000  C
  C74      1.0000 0.87288  0.95470  0.59110  Biso   1.000  C
  N12      1.0000 0.82700  0.94590  0.54000  Biso   1.000  N
  C75      1.0000 0.81090  0.89960  0.57430  Biso   1.000  C
  C76      1.0000 0.84580  0.85640  0.68640  Biso   1.000  C
  C77      1.0000 0.53780  0.90900  0.66600  Biso   1.000  C
  C78      1.0000 0.53990  0.87110  0.74550  Biso   1.000  C
  C79      1.0000 0.46550  0.93290  0.64690  Biso   1.000  C
  C80      1.0000 0.46390  0.89310  0.72080  Biso   1.000  C
  Ni3      1.0000 0.93685  0.25456  0.93733  Biso   1.000  Ni
  O25      1.0000 0.75831  0.44197  0.84346  Biso   1.000  O
  O26      1.0000 0.75964  0.44020  0.66883  Biso   1.000  O
  O27      1.0000 0.96080  0.30792  0.06788  Biso   1.000  O
  O28      1.0000 0.03854  0.29767  0.16408  Biso   1.000  O
  N13      1.0000 0.87593  0.30097  0.87527  Biso   1.000  N
  C81      1.0000 0.99938  0.31805  0.14630  Biso   1.000  C
  C82      1.0000 0.77169  0.42465  0.76880  Biso   1.000  C
  C83      1.0000 0.80712  0.37981  0.80540  Biso   1.000  C
  C84      1.0000 0.82322  0.35937  0.91480  Biso   1.000  C
  H9       1.0000 0.81080  0.37210  0.96800  Biso   1.000  H
  C85      1.0000 0.85710  0.32078  0.94600  Biso   1.000  C
  H10      1.0000 0.86790  0.30730  0.02180  Biso   1.000  H
  C86      1.0000 0.85904  0.31870  0.76870  Biso   1.000  C
  H11      1.0000 0.87100  0.30390  0.71630  Biso   1.000  H
  C87      1.0000 0.82483  0.35768  0.73030  Biso   1.000  C
  H12      1.0000 0.81360  0.36920  0.65300  Biso   1.000  H
  O29      1.0000 0.53266  0.65700  0.88210  Biso   1.000  O
  O30      1.0000 0.59470  0.70780  0.98020  Biso   1.000  O
  C88      1.0000 0.57460  0.66890  0.92090  Biso   1.000  C
  C89      1.0000 0.60700  0.63190  0.89620  Biso   1.000  C
  C90      1.0000 0.65630  0.63970  0.94200  Biso   1.000  C
  C91      1.0000 0.68400  0.60050  0.92390  Biso   1.000  C
  N14      1.0000 0.67310  0.56280  0.86100  Biso   1.000  N
  C92      1.0000 0.62010  0.55180  0.81070  Biso   1.000  C
  C93      1.0000 0.58850  0.58700  0.82500  Biso   1.000  C
  N15      1.0000 0.99808  0.44054  0.38177  Biso   1.000  N
  C94      1.0000 0.99905  0.36097  0.22950  Biso   1.000  C
  C95      1.0000 0.96260  0.39700  0.20050  Biso   1.000  C
  C96      1.0000 0.96330  0.43680  0.27830  Biso   1.000  C
  O31      1.0000 0.63153  0.41962  0.54610  Biso   1.000  O
  O32      1.0000 0.68390  0.44010  0.46580  Biso   1.000  O
  C97      1.0000 0.65084  0.41400  0.47550  Biso   1.000  C
  C98      1.0000 0.63090  0.37080  0.38360  Biso   1.000  C
  C99      1.0000 0.58780  0.34700  0.36440  Biso   1.000  C
  C100     1.0000 0.56974  0.31030  0.27710  Biso   1.000  C
  N16      1.0000 0.59060  0.29210  0.20710  Biso   1.000  N
  C101     1.0000 0.63420  0.32090  0.22750  Biso   1.000  C
  C102     1.0000 0.65920  0.36440  0.34750  Biso   1.000  C
  C103     1.0000 0.03350  0.40420  0.40990  Biso   1.000  C
  C104     1.0000 0.03550  0.36480  0.33600  Biso   1.000  C
  O33      1.0000 0.62590  0.58408  0.68460  Biso   1.000  O
  O34      1.0000 0.66650  0.55410  0.86100  Biso   1.000  O
  C105     1.0000 0.64150  0.58880  0.79110  Biso   1.000  C
  C106     1.0000 0.62380  0.63330  0.84570  Biso   1.000  C
  C107     1.0000 0.58000  0.65750  0.78820  Biso   1.000  C
  C108     1.0000 0.56510  0.69370  0.84980  Biso   1.000  C
  N17      1.0000 0.58730  0.70900  0.95600  Biso   1.000  N
  C109     1.0000 0.63360  0.68540  0.00960  Biso   1.000  C
  C110     1.0000 0.65170  0.64730  0.95900  Biso   1.000  C
  O35      1.0000 0.53500  0.34950  0.17510  Biso   1.000  O
  O36      1.0000 0.59460  0.30130  0.19030  Biso   1.000  O
  C111     1.0000 0.57620  0.33720  0.21360  Biso   1.000  C
  C112     1.0000 0.61070  0.37430  0.30070  Biso   1.000  C
  C113     1.0000 0.59480  0.42020  0.33370  Biso   1.000  C
  C114     1.0000 0.62712  0.45470  0.40890  Biso   1.000  C
  N18      1.0000 0.67300  0.44590  0.46000  Biso   1.000  N
  C115     1.0000 0.68910  0.39960  0.42570  Biso   1.000  C
  C116     1.0000 0.65420  0.35640  0.31360  Biso   1.000  C
  C117     1.0000 0.96220  0.40900  0.33400  Biso   1.000  C
  C118     1.0000 0.96010  0.37110  0.25450  Biso   1.000  C
  C119     1.0000 0.03450  0.43290  0.35310  Biso   1.000  C
  C120     1.0000 0.03610  0.39310  0.27920  Biso   1.000  C
  Ni4      1.0000 0.43685  0.75456  0.93733  Biso   1.000  Ni
  O37      1.0000 0.25831  0.94197  0.84346  Biso   1.000  O
  O38      1.0000 0.25964  0.94020  0.66883  Biso   1.000  O
  O39      1.0000 0.46080  0.80792  0.06788  Biso   1.000  O
  O40      1.0000 0.53854  0.79767  0.16408  Biso   1.000  O
  N19      1.0000 0.37593  0.80097  0.87527  Biso   1.000  N
  C121     1.0000 0.49938  0.81805  0.14630  Biso   1.000  C
  C122     1.0000 0.27169  0.92465  0.76880  Biso   1.000  C
  C123     1.0000 0.30712  0.87981  0.80540  Biso   1.000  C
  C124     1.0000 0.32322  0.85937  0.91480  Biso   1.000  C
  H13      1.0000 0.31080  0.87210  0.96800  Biso   1.000  H
  C125     1.0000 0.35710  0.82078  0.94600  Biso   1.000  C
  H14      1.0000 0.36790  0.80730  0.02180  Biso   1.000  H
  C126     1.0000 0.35904  0.81870  0.76870  Biso   1.000  C
  H15      1.0000 0.37100  0.80390  0.71630  Biso   1.000  H
  C127     1.0000 0.32483  0.85768  0.73030  Biso   1.000  C
  H16      1.0000 0.31360  0.86920  0.65300  Biso   1.000  H
  O41      1.0000 0.03266  0.15700  0.88210  Biso   1.000  O
  O42      1.0000 0.09470  0.20780  0.98020  Biso   1.000  O
  C128     1.0000 0.07460  0.16890  0.92090  Biso   1.000  C
  C129     1.0000 0.10700  0.13190  0.89620  Biso   1.000  C
  C130     1.0000 0.15630  0.13970  0.94200  Biso   1.000  C
  C131     1.0000 0.18400  0.10050  0.92390  Biso   1.000  C
  N20      1.0000 0.17310  0.06280  0.86100  Biso   1.000  N
  C132     1.0000 0.12010  0.05180  0.81070  Biso   1.000  C
  C133     1.0000 0.08850  0.08700  0.82500  Biso   1.000  C
  N21      1.0000 0.49808  0.94054  0.38177  Biso   1.000  N
  C134     1.0000 0.49905  0.86097  0.22950  Biso   1.000  C
  C135     1.0000 0.46260  0.89700  0.20050  Biso   1.000  C
  C136     1.0000 0.46330  0.93680  0.27830  Biso   1.000  C
  O43      1.0000 0.13153  0.91962  0.54610  Biso   1.000  O
  O44      1.0000 0.18390  0.94010  0.46580  Biso   1.000  O
  C137     1.0000 0.15084  0.91400  0.47550  Biso   1.000  C
  C138     1.0000 0.13090  0.87080  0.38360  Biso   1.000  C
  C139     1.0000 0.08780  0.84700  0.36440  Biso   1.000  C
  C140     1.0000 0.06974  0.81030  0.27710  Biso   1.000  C
  N22      1.0000 0.09060  0.79210  0.20710  Biso   1.000  N
  C141     1.0000 0.13420  0.82090  0.22750  Biso   1.000  C
  C142     1.0000 0.15920  0.86440  0.34750  Biso   1.000  C
  C143     1.0000 0.53350  0.90420  0.40990  Biso   1.000  C
  C144     1.0000 0.53550  0.86480  0.33600  Biso   1.000  C
  O45      1.0000 0.12590  0.08408  0.68460  Biso   1.000  O
  O46      1.0000 0.16650  0.05410  0.86100  Biso   1.000  O
  C145     1.0000 0.14150  0.08880  0.79110  Biso   1.000  C
  C146     1.0000 0.12380  0.13330  0.84570  Biso   1.000  C
  C147     1.0000 0.08000  0.15750  0.78820  Biso   1.000  C
  C148     1.0000 0.06510  0.19370  0.84980  Biso   1.000  C
  N23      1.0000 0.08730  0.20900  0.95600  Biso   1.000  N
  C149     1.0000 0.13360  0.18540  0.00960  Biso   1.000  C
  C150     1.0000 0.15170  0.14730  0.95900  Biso   1.000  C
  O47      1.0000 0.03500  0.84950  0.17510  Biso   1.000  O
  O48      1.0000 0.09460  0.80130  0.19030  Biso   1.000  O
  C151     1.0000 0.07620  0.83720  0.21360  Biso   1.000  C
  C152     1.0000 0.11070  0.87430  0.30070  Biso   1.000  C
  C153     1.0000 0.09480  0.92020  0.33370  Biso   1.000  C
  C154     1.0000 0.12712  0.95470  0.40890  Biso   1.000  C
  N24      1.0000 0.17300  0.94590  0.46000  Biso   1.000  N
  C155     1.0000 0.18910  0.89960  0.42570  Biso   1.000  C
  C156     1.0000 0.15420  0.85640  0.31360  Biso   1.000  C
  C157     1.0000 0.46220  0.90900  0.33400  Biso   1.000  C
  C158     1.0000 0.46010  0.87110  0.25450  Biso   1.000  C
  C159     1.0000 0.53450  0.93290  0.35310  Biso   1.000  C
  C160     1.0000 0.53610  0.89310  0.27920  Biso   1.000  C
  Ni5      1.0000 0.93685  0.74544  0.93733  Biso   1.000  Ni
  O49      1.0000 0.75831  0.55803  0.84346  Biso   1.000  O
  O50      1.0000 0.75964  0.55980  0.66883  Biso   1.000  O
  O51      1.0000 0.96080  0.69208  0.06788  Biso   1.000  O
  O52      1.0000 0.03854  0.70233  0.16408  Biso   1.000  O
  N25      1.0000 0.87593  0.69903  0.87527  Biso   1.000  N
  C161     1.0000 0.99938  0.68195  0.14630  Biso   1.000  C
  C162     1.0000 0.77169  0.57535  0.76880  Biso   1.000  C
  C163     1.0000 0.80712  0.62019  0.80540  Biso   1.000  C
  C164     1.0000 0.82322  0.64063  0.91480  Biso   1.000  C
  H17      1.0000 0.81080  0.62790  0.96800  Biso   1.000  H
  C165     1.0000 0.85710  0.67922  0.94600  Biso   1.000  C
  H18      1.0000 0.86790  0.69270  0.02180  Biso   1.000  H
  C166     1.0000 0.85904  0.68130  0.76870  Biso   1.000  C
  H19      1.0000 0.87100  0.69610  0.71630  Biso   1.000  H
  C167     1.0000 0.82483  0.64232  0.73030  Biso   1.000  C
  H20      1.0000 0.81360  0.63080  0.65300  Biso   1.000  H
  O53      1.0000 0.53266  0.34300  0.88210  Biso   1.000  O
  O54      1.0000 0.59470  0.29220  0.98020  Biso   1.000  O
  C168     1.0000 0.57460  0.33110  0.92090  Biso   1.000  C
  C169     1.0000 0.60700  0.36810  0.89620  Biso   1.000  C
  C170     1.0000 0.65630  0.36030  0.94200  Biso   1.000  C
  C171     1.0000 0.68400  0.39950  0.92390  Biso   1.000  C
  N26      1.0000 0.67310  0.43720  0.86100  Biso   1.000  N
  C172     1.0000 0.62010  0.44820  0.81070  Biso   1.000  C
  C173     1.0000 0.58850  0.41300  0.82500  Biso   1.000  C
  N27      1.0000 0.99808  0.55946  0.38177  Biso   1.000  N
  C174     1.0000 0.99905  0.63903  0.22950  Biso   1.000  C
  C175     1.0000 0.96260  0.60300  0.20050  Biso   1.000  C
  C176     1.0000 0.96330  0.56320  0.27830  Biso   1.000  C
  O55      1.0000 0.63153  0.58038  0.54610  Biso   1.000  O
  O56      1.0000 0.68390  0.55990  0.46580  Biso   1.000  O
  C177     1.0000 0.65084  0.58600  0.47550  Biso   1.000  C
  C178     1.0000 0.63090  0.62920  0.38360  Biso   1.000  C
  C179     1.0000 0.58780  0.65300  0.36440  Biso   1.000  C
  C180     1.0000 0.56974  0.68970  0.27710  Biso   1.000  C
  N28      1.0000 0.59060  0.70790  0.20710  Biso   1.000  N
  C181     1.0000 0.63420  0.67910  0.22750  Biso   1.000  C
  C182     1.0000 0.65920  0.63560  0.34750  Biso   1.000  C
  C183     1.0000 0.03350  0.59580  0.40990  Biso   1.000  C
  C184     1.0000 0.03550  0.63520  0.33600  Biso   1.000  C
  O57      1.0000 0.62590  0.41592  0.68460  Biso   1.000  O
  O58      1.0000 0.66650  0.44590  0.86100  Biso   1.000  O
  C185     1.0000 0.64150  0.41120  0.79110  Biso   1.000  C
  C186     1.0000 0.62380  0.36670  0.84570  Biso   1.000  C
  C187     1.0000 0.58000  0.34250  0.78820  Biso   1.000  C
  C188     1.0000 0.56510  0.30630  0.84980  Biso   1.000  C
  N29      1.0000 0.58730  0.29100  0.95600  Biso   1.000  N
  C189     1.0000 0.63360  0.31460  0.00960  Biso   1.000  C
  C190     1.0000 0.65170  0.35270  0.95900  Biso   1.000  C
  O59      1.0000 0.53500  0.65050  0.17510  Biso   1.000  O
  O60      1.0000 0.59460  0.69870  0.19030  Biso   1.000  O
  C191     1.0000 0.57620  0.66280  0.21360  Biso   1.000  C
  C192     1.0000 0.61070  0.62570  0.30070  Biso   1.000  C
  C193     1.0000 0.59480  0.57980  0.33370  Biso   1.000  C
  C194     1.0000 0.62712  0.54530  0.40890  Biso   1.000  C
  N30      1.0000 0.67300  0.55410  0.46000  Biso   1.000  N
  C195     1.0000 0.68910  0.60040  0.42570  Biso   1.000  C
  C196     1.0000 0.65420  0.64360  0.31360  Biso   1.000  C
  C197     1.0000 0.96220  0.59100  0.33400  Biso   1.000  C
  C198     1.0000 0.96010  0.62890  0.25450  Biso   1.000  C
  C199     1.0000 0.03450  0.56710  0.35310  Biso   1.000  C
  C200     1.0000 0.03610  0.60690  0.27920  Biso   1.000  C
  Ni6      1.0000 0.43685  0.24544  0.93733  Biso   1.000  Ni
  O61      1.0000 0.25831  0.05803  0.84346  Biso   1.000  O
  O62      1.0000 0.25964  0.05980  0.66883  Biso   1.000  O
  O63      1.0000 0.46080  0.19208  0.06788  Biso   1.000  O
  O64      1.0000 0.53854  0.20233  0.16408  Biso   1.000  O
  N31      1.0000 0.37593  0.19903  0.87527  Biso   1.000  N
  C201     1.0000 0.49938  0.18195  0.14630  Biso   1.000  C
  C202     1.0000 0.27169  0.07535  0.76880  Biso   1.000  C
  C203     1.0000 0.30712  0.12019  0.80540  Biso   1.000  C
  C204     1.0000 0.32322  0.14063  0.91480  Biso   1.000  C
  H21      1.0000 0.31080  0.12790  0.96800  Biso   1.000  H
  C205     1.0000 0.35710  0.17922  0.94600  Biso   1.000  C
  H22      1.0000 0.36790  0.19270  0.02180  Biso   1.000  H
  C206     1.0000 0.35904  0.18130  0.76870  Biso   1.000  C
  H23      1.0000 0.37100  0.19610  0.71630  Biso   1.000  H
  C207     1.0000 0.32483  0.14232  0.73030  Biso   1.000  C
  H24      1.0000 0.31360  0.13080  0.65300  Biso   1.000  H
  O65      1.0000 0.03266  0.84300  0.88210  Biso   1.000  O
  O66      1.0000 0.09470  0.79220  0.98020  Biso   1.000  O
  C208     1.0000 0.07460  0.83110  0.92090  Biso   1.000  C
  C209     1.0000 0.10700  0.86810  0.89620  Biso   1.000  C
  C210     1.0000 0.15630  0.86030  0.94200  Biso   1.000  C
  C211     1.0000 0.18400  0.89950  0.92390  Biso   1.000  C
  N32      1.0000 0.17310  0.93720  0.86100  Biso   1.000  N
  C212     1.0000 0.12010  0.94820  0.81070  Biso   1.000  C
  C213     1.0000 0.08850  0.91300  0.82500  Biso   1.000  C
  N33      1.0000 0.49808  0.05946  0.38177  Biso   1.000  N
  C214     1.0000 0.49905  0.13903  0.22950  Biso   1.000  C
  C215     1.0000 0.46260  0.10300  0.20050  Biso   1.000  C
  C216     1.0000 0.46330  0.06320  0.27830  Biso   1.000  C
  O67      1.0000 0.13153  0.08038  0.54610  Biso   1.000  O
  O68      1.0000 0.18390  0.05990  0.46580  Biso   1.000  O
  C217     1.0000 0.15084  0.08600  0.47550  Biso   1.000  C
  C218     1.0000 0.13090  0.12920  0.38360  Biso   1.000  C
  C219     1.0000 0.08780  0.15300  0.36440  Biso   1.000  C
  C220     1.0000 0.06974  0.18970  0.27710  Biso   1.000  C
  N34      1.0000 0.09060  0.20790  0.20710  Biso   1.000  N
  C221     1.0000 0.13420  0.17910  0.22750  Biso   1.000  C
  C222     1.0000 0.15920  0.13560  0.34750  Biso   1.000  C
  C223     1.0000 0.53350  0.09580  0.40990  Biso   1.000  C
  C224     1.0000 0.53550  0.13520  0.33600  Biso   1.000  C
  O69      1.0000 0.12590  0.91592  0.68460  Biso   1.000  O
  O70      1.0000 0.16650  0.94590  0.86100  Biso   1.000  O
  C225     1.0000 0.14150  0.91120  0.79110  Biso   1.000  C
  C226     1.0000 0.12380  0.86670  0.84570  Biso   1.000  C
  C227     1.0000 0.08000  0.84250  0.78820  Biso   1.000  C
  C228     1.0000 0.06510  0.80630  0.84980  Biso   1.000  C
  N35      1.0000 0.08730  0.79100  0.95600  Biso   1.000  N
  C229     1.0000 0.13360  0.81460  0.00960  Biso   1.000  C
  C230     1.0000 0.15170  0.85270  0.95900  Biso   1.000  C
  O71      1.0000 0.03500  0.15050  0.17510  Biso   1.000  O
  O72      1.0000 0.09460  0.19870  0.19030  Biso   1.000  O
  C231     1.0000 0.07620  0.16280  0.21360  Biso   1.000  C
  C232     1.0000 0.11070  0.12570  0.30070  Biso   1.000  C
  C233     1.0000 0.09480  0.07980  0.33370  Biso   1.000  C
  C234     1.0000 0.12712  0.04530  0.40890  Biso   1.000  C
  N36      1.0000 0.17300  0.05410  0.46000  Biso   1.000  N
  C235     1.0000 0.18910  0.10040  0.42570  Biso   1.000  C
  C236     1.0000 0.15420  0.14360  0.31360  Biso   1.000  C
  C237     1.0000 0.46220  0.09100  0.33400  Biso   1.000  C
  C238     1.0000 0.46010  0.12890  0.25450  Biso   1.000  C
  C239     1.0000 0.53450  0.06710  0.35310  Biso   1.000  C
  C240     1.0000 0.53610  0.10690  0.27920  Biso   1.000  C
  Ni7      1.0000 0.06315  0.74544  0.06267  Biso   1.000  Ni
  O73      1.0000 0.24169  0.55803  0.15654  Biso   1.000  O
  O74      1.0000 0.24036  0.55980  0.33117  Biso   1.000  O
  O75      1.0000 0.03920  0.69208  0.93212  Biso   1.000  O
  O76      1.0000 0.96146  0.70233  0.83592  Biso   1.000  O
  N37      1.0000 0.12407  0.69903  0.12473  Biso   1.000  N
  C241     1.0000 0.00062  0.68195  0.85370  Biso   1.000  C
  C242     1.0000 0.22831  0.57535  0.23120  Biso   1.000  C
  C243     1.0000 0.19288  0.62019  0.19460  Biso   1.000  C
  C244     1.0000 0.17678  0.64063  0.08520  Biso   1.000  C
  H25      1.0000 0.18920  0.62790  0.03200  Biso   1.000  H
  C245     1.0000 0.14290  0.67922  0.05400  Biso   1.000  C
  H26      1.0000 0.13210  0.69270  0.97820  Biso   1.000  H
  C246     1.0000 0.14096  0.68130  0.23130  Biso   1.000  C
  H27      1.0000 0.12900  0.69610  0.28370  Biso   1.000  H
  C247     1.0000 0.17517  0.64232  0.26970  Biso   1.000  C
  H28      1.0000 0.18640  0.63080  0.34700  Biso   1.000  H
  O77      1.0000 0.46734  0.34300  0.11790  Biso   1.000  O
  O78      1.0000 0.40530  0.29220  0.01980  Biso   1.000  O
  C248     1.0000 0.42540  0.33110  0.07910  Biso   1.000  C
  C249     1.0000 0.39300  0.36810  0.10380  Biso   1.000  C
  C250     1.0000 0.34370  0.36030  0.05800  Biso   1.000  C
  C251     1.0000 0.31600  0.39950  0.07610  Biso   1.000  C
  N38      1.0000 0.32690  0.43720  0.13900  Biso   1.000  N
  C252     1.0000 0.37990  0.44820  0.18930  Biso   1.000  C
  C253     1.0000 0.41150  0.41300  0.17500  Biso   1.000  C
  N39      1.0000 0.00192  0.55946  0.61823  Biso   1.000  N
  C254     1.0000 0.00095  0.63903  0.77050  Biso   1.000  C
  C255     1.0000 0.03740  0.60300  0.79950  Biso   1.000  C
  C256     1.0000 0.03670  0.56320  0.72170  Biso   1.000  C
  O79      1.0000 0.36847  0.58038  0.45390  Biso   1.000  O
  O80      1.0000 0.31610  0.55990  0.53420  Biso   1.000  O
  C257     1.0000 0.34916  0.58600  0.52450  Biso   1.000  C
  C258     1.0000 0.36910  0.62920  0.61640  Biso   1.000  C
  C259     1.0000 0.41220  0.65300  0.63560  Biso   1.000  C
  C260     1.0000 0.43026  0.68970  0.72290  Biso   1.000  C
  N40      1.0000 0.40940  0.70790  0.79290  Biso   1.000  N
  C261     1.0000 0.36580  0.67910  0.77250  Biso   1.000  C
  C262     1.0000 0.34080  0.63560  0.65250  Biso   1.000  C
  C263     1.0000 0.96650  0.59580  0.59010  Biso   1.000  C
  C264     1.0000 0.96450  0.63520  0.66400  Biso   1.000  C
  O81      1.0000 0.37410  0.41592  0.31540  Biso   1.000  O
  O82      1.0000 0.33350  0.44590  0.13900  Biso   1.000  O
  C265     1.0000 0.35850  0.41120  0.20890  Biso   1.000  C
  C266     1.0000 0.37620  0.36670  0.15430  Biso   1.000  C
  C267     1.0000 0.42000  0.34250  0.21180  Biso   1.000  C
  C268     1.0000 0.43490  0.30630  0.15020  Biso   1.000  C
  N41      1.0000 0.41270  0.29100  0.04400  Biso   1.000  N
  C269     1.0000 0.36640  0.31460  0.99040  Biso   1.000  C
  C270     1.0000 0.34830  0.35270  0.04100  Biso   1.000  C
  O83      1.0000 0.46500  0.65050  0.82490  Biso   1.000  O
  O84      1.0000 0.40540  0.69870  0.80970  Biso   1.000  O
  C271     1.0000 0.42380  0.66280  0.78640  Biso   1.000  C
  C272     1.0000 0.38930  0.62570  0.69930  Biso   1.000  C
  C273     1.0000 0.40520  0.57980  0.66630  Biso   1.000  C
  C274     1.0000 0.37288  0.54530  0.59110  Biso   1.000  C
  N42      1.0000 0.32700  0.55410  0.54000  Biso   1.000  N
  C275     1.0000 0.31090  0.60040  0.57430  Biso   1.000  C
  C276     1.0000 0.34580  0.64360  0.68640  Biso   1.000  C
  C277     1.0000 0.03780  0.59100  0.66600  Biso   1.000  C
  C278     1.0000 0.03990  0.62890  0.74550  Biso   1.000  C
  C279     1.0000 0.96550  0.56710  0.64690  Biso   1.000  C
  C280     1.0000 0.96390  0.60690  0.72080  Biso   1.000  C
  Ni8      1.0000 0.56315  0.24544  0.06267  Biso   1.000  Ni
  O85      1.0000 0.74169  0.05803  0.15654  Biso   1.000  O
  O86      1.0000 0.74036  0.05980  0.33117  Biso   1.000  O
  O87      1.0000 0.53920  0.19208  0.93212  Biso   1.000  O
  O88      1.0000 0.46146  0.20233  0.83592  Biso   1.000  O
  N43      1.0000 0.62407  0.19903  0.12473  Biso   1.000  N
  C281     1.0000 0.50062  0.18195  0.85370  Biso   1.000  C
  C282     1.0000 0.72831  0.07535  0.23120  Biso   1.000  C
  C283     1.0000 0.69288  0.12019  0.19460  Biso   1.000  C
  C284     1.0000 0.67678  0.14063  0.08520  Biso   1.000  C
  H29      1.0000 0.68920  0.12790  0.03200  Biso   1.000  H
  C285     1.0000 0.64290  0.17922  0.05400  Biso   1.000  C
  H30      1.0000 0.63210  0.19270  0.97820  Biso   1.000  H
  C286     1.0000 0.64096  0.18130  0.23130  Biso   1.000  C
  H31      1.0000 0.62900  0.19610  0.28370  Biso   1.000  H
  C287     1.0000 0.67517  0.14232  0.26970  Biso   1.000  C
  H32      1.0000 0.68640  0.13080  0.34700  Biso   1.000  H
  O89      1.0000 0.96734  0.84300  0.11790  Biso   1.000  O
  O90      1.0000 0.90530  0.79220  0.01980  Biso   1.000  O
  C288     1.0000 0.92540  0.83110  0.07910  Biso   1.000  C
  C289     1.0000 0.89300  0.86810  0.10380  Biso   1.000  C
  C290     1.0000 0.84370  0.86030  0.05800  Biso   1.000  C
  C291     1.0000 0.81600  0.89950  0.07610  Biso   1.000  C
  N44      1.0000 0.82690  0.93720  0.13900  Biso   1.000  N
  C292     1.0000 0.87990  0.94820  0.18930  Biso   1.000  C
  C293     1.0000 0.91150  0.91300  0.17500  Biso   1.000  C
  N45      1.0000 0.50192  0.05946  0.61823  Biso   1.000  N
  C294     1.0000 0.50095  0.13903  0.77050  Biso   1.000  C
  C295     1.0000 0.53740  0.10300  0.79950  Biso   1.000  C
  C296     1.0000 0.53670  0.06320  0.72170  Biso   1.000  C
  O91      1.0000 0.86847  0.08038  0.45390  Biso   1.000  O
  O92      1.0000 0.81610  0.05990  0.53420  Biso   1.000  O
  C297     1.0000 0.84916  0.08600  0.52450  Biso   1.000  C
  C298     1.0000 0.86910  0.12920  0.61640  Biso   1.000  C
  C299     1.0000 0.91220  0.15300  0.63560  Biso   1.000  C
  C300     1.0000 0.93026  0.18970  0.72290  Biso   1.000  C
  N46      1.0000 0.90940  0.20790  0.79290  Biso   1.000  N
  C301     1.0000 0.86580  0.17910  0.77250  Biso   1.000  C
  C302     1.0000 0.84080  0.13560  0.65250  Biso   1.000  C
  C303     1.0000 0.46650  0.09580  0.59010  Biso   1.000  C
  C304     1.0000 0.46450  0.13520  0.66400  Biso   1.000  C
  O93      1.0000 0.87410  0.91592  0.31540  Biso   1.000  O
  O94      1.0000 0.83350  0.94590  0.13900  Biso   1.000  O
  C305     1.0000 0.85850  0.91120  0.20890  Biso   1.000  C
  C306     1.0000 0.87620  0.86670  0.15430  Biso   1.000  C
  C307     1.0000 0.92000  0.84250  0.21180  Biso   1.000  C
  C308     1.0000 0.93490  0.80630  0.15020  Biso   1.000  C
  N47      1.0000 0.91270  0.79100  0.04400  Biso   1.000  N
  C309     1.0000 0.86640  0.81460  0.99040  Biso   1.000  C
  C310     1.0000 0.84830  0.85270  0.04100  Biso   1.000  C
  O95      1.0000 0.96500  0.15050  0.82490  Biso   1.000  O
  O96      1.0000 0.90540  0.19870  0.80970  Biso   1.000  O
  C311     1.0000 0.92380  0.16280  0.78640  Biso   1.000  C
  C312     1.0000 0.88930  0.12570  0.69930  Biso   1.000  C
  C313     1.0000 0.90520  0.07980  0.66630  Biso   1.000  C
  C314     1.0000 0.87288  0.04530  0.59110  Biso   1.000  C
  N48      1.0000 0.82700  0.05410  0.54000  Biso   1.000  N
  C315     1.0000 0.81090  0.10040  0.57430  Biso   1.000  C
  C316     1.0000 0.84580  0.14360  0.68640  Biso   1.000  C
  C317     1.0000 0.53780  0.09100  0.66600  Biso   1.000  C
  C318     1.0000 0.53990  0.12890  0.74550  Biso   1.000  C
  C319     1.0000 0.46550  0.06710  0.64690  Biso   1.000  C
  C320     1.0000 0.46390  0.10690  0.72080  Biso   1.000  C
  Ni9      1.0000 0.28687  0.50000  0.15615  Biso   1.000  Ni
  Ni10     1.0000 0.27989  0.50000  0.42880  Biso   1.000  Ni
  O97      1.0000 0.32407  0.50000  0.33474  Biso   1.000  O
  O98      1.0000 0.07431  0.50000  0.55140  Biso   1.000  O
  O99      1.0000 0.12597  0.50000  0.72550  Biso   1.000  O
  N49      1.0000 0.22987  0.50000  0.50600  Biso   1.000  N
  C321     1.0000 0.11444  0.50000  0.62090  Biso   1.000  C
  C322     1.0000 0.15582  0.50000  0.58120  Biso   1.000  C
  C323     1.0000 0.14690  0.50000  0.46830  Biso   1.000  C
  H33      1.0000 0.11520  0.50000  0.41390  Biso   1.000  H
  C324     1.0000 0.18408  0.50000  0.43200  Biso   1.000  C
  H34      1.0000 0.17720  0.50000  0.35230  Biso   1.000  H
  C325     1.0000 0.23820  0.50000  0.61190  Biso   1.000  C
  H35      1.0000 0.27010  0.50000  0.66530  Biso   1.000  H
  C326     1.0000 0.20140  0.50000  0.65250  Biso   1.000  C
  H36      1.0000 0.20920  0.50000  0.73260  Biso   1.000  H
  Ni11     1.0000 0.78687  0.00000  0.15615  Biso   1.000  Ni
  Ni12     1.0000 0.77989  0.00000  0.42880  Biso   1.000  Ni
  O100     1.0000 0.82407  0.00000  0.33474  Biso   1.000  O
  O101     1.0000 0.57431  0.00000  0.55140  Biso   1.000  O
  O102     1.0000 0.62597  0.00000  0.72550  Biso   1.000  O
  N50      1.0000 0.72987  0.00000  0.50600  Biso   1.000  N
  C327     1.0000 0.61444  0.00000  0.62090  Biso   1.000  C
  C328     1.0000 0.65582  0.00000  0.58120  Biso   1.000  C
  C329     1.0000 0.64690  0.00000  0.46830  Biso   1.000  C
  H37      1.0000 0.61520  0.00000  0.41390  Biso   1.000  H
  C330     1.0000 0.68408  0.00000  0.43200  Biso   1.000  C
  H38      1.0000 0.67720  0.00000  0.35230  Biso   1.000  H
  C331     1.0000 0.73820  0.00000  0.61190  Biso   1.000  C
  H39      1.0000 0.77010  0.00000  0.66530  Biso   1.000  H
  C332     1.0000 0.70140  0.00000  0.65250  Biso   1.000  C
  H40      1.0000 0.70920  0.00000  0.73260  Biso   1.000  H
  Ni13     1.0000 0.71313  0.50000  0.84385  Biso   1.000  Ni
  Ni14     1.0000 0.72011  0.50000  0.57120  Biso   1.000  Ni
  O103     1.0000 0.67593  0.50000  0.66526  Biso   1.000  O
  O104     1.0000 0.92569  0.50000  0.44860  Biso   1.000  O
  O105     1.0000 0.87403  0.50000  0.27450  Biso   1.000  O
  N51      1.0000 0.77013  0.50000  0.49400  Biso   1.000  N
  C333     1.0000 0.88556  0.50000  0.37910  Biso   1.000  C
  C334     1.0000 0.84418  0.50000  0.41880  Biso   1.000  C
  C335     1.0000 0.85310  0.50000  0.53170  Biso   1.000  C
  H41      1.0000 0.88480  0.50000  0.58610  Biso   1.000  H
  C336     1.0000 0.81592  0.50000  0.56800  Biso   1.000  C
  H42      1.0000 0.82280  0.50000  0.64770  Biso   1.000  H
  C337     1.0000 0.76180  0.50000  0.38810  Biso   1.000  C
  H43      1.0000 0.72990  0.50000  0.33470  Biso   1.000  H
  C338     1.0000 0.79860  0.50000  0.34750  Biso   1.000  C
  H44      1.0000 0.79080  0.50000  0.26740  Biso   1.000  H
  Ni15     1.0000 0.21313  0.00000  0.84385  Biso   1.000  Ni
  Ni16     1.0000 0.22011  0.00000  0.57120  Biso   1.000  Ni
  O106     1.0000 0.17593  0.00000  0.66526  Biso   1.000  O
  O107     1.0000 0.42569  0.00000  0.44860  Biso   1.000  O
  O108     1.0000 0.37403  0.00000  0.27450  Biso   1.000  O
  N52      1.0000 0.27013  0.00000  0.49400  Biso   1.000  N
  C339     1.0000 0.38556  0.00000  0.37910  Biso   1.000  C
  C340     1.0000 0.34418  0.00000  0.41880  Biso   1.000  C
  C341     1.0000 0.35310  0.00000  0.53170  Biso   1.000  C
  H45      1.0000 0.38480  0.00000  0.58610  Biso   1.000  H
  C342     1.0000 0.31592  0.00000  0.56800  Biso   1.000  C
  H46      1.0000 0.32280  0.00000  0.64770  Biso   1.000  H
  C343     1.0000 0.26180  0.00000  0.38810  Biso   1.000  C
  H47      1.0000 0.22990  0.00000  0.33470  Biso   1.000  H
  C344     1.0000 0.29860  0.00000  0.34750  Biso   1.000  C
  H48      1.0000 0.29080  0.00000  0.26740  Biso   1.000  H
  Ni17     1.0000 0.00000  0.50000  0.50000  Biso   1.000  Ni
  Ni18     1.0000 0.50000  0.00000  0.50000  Biso   1.000  Ni
  O109     1.0000 0.00000  0.21114  0.00000  Biso   1.000  O
  O110     1.0000 0.50000  0.71114  0.00000  Biso   1.000  O
  O111     1.0000 0.00000  0.78886  0.00000  Biso   1.000  O
  O112     1.0000 0.50000  0.28886  0.00000  Biso   1.000  O
