data_image0
_cell_length_a       17.15
_cell_length_b       17.15
_cell_length_c       17.15
_cell_angle_alpha    90
_cell_angle_beta     90
_cell_angle_gamma    90

_symmetry_space_group_name_H-M    "P 1"
_symmetry_int_tables_number       1

loop_
  _symmetry_equiv_pos_as_xyz
  'x, y, z'

loop_
  _atom_site_label
  _atom_site_occupancy
  _atom_site_fract_x
  _atom_site_fract_y
  _atom_site_fract_z
  _atom_site_thermal_displace_type
  _atom_site_B_iso_or_equiv
  _atom_site_type_symbol
  C1       1.0000 0.36668  0.89333  0.68072  Biso   1.000  C
  H1       1.0000 0.37465  0.85197  0.71756  Biso   1.000  H
  H2       1.0000 0.45500  0.07916  0.56967  Biso   1.000  H
  H3       1.0000 0.36940  0.10306  0.54804  Biso   1.000  H
  N1       1.0000 0.40824  0.96247  0.67749  Biso   1.000  N
  C2       1.0000 0.86264  0.39737  0.18476  Biso   1.000  C
  H4       1.0000 0.87062  0.35600  0.22160  Biso   1.000  H
  H5       1.0000 0.95096  0.57512  0.07370  Biso   1.000  H
  H6       1.0000 0.86536  0.59903  0.05208  Biso   1.000  H
  N2       1.0000 0.90420  0.46651  0.18152  Biso   1.000  N
  C3       1.0000 0.62525  0.09860  0.68072  Biso   1.000  C
  H7       1.0000 0.61728  0.13996  0.71756  Biso   1.000  H
  H8       1.0000 0.53693  0.91278  0.56967  Biso   1.000  H
  H9       1.0000 0.62254  0.88887  0.54804  Biso   1.000  H
  N3       1.0000 0.58369  0.02946  0.67749  Biso   1.000  N
  C4       1.0000 0.12929  0.59456  0.18476  Biso   1.000  C
  H10      1.0000 0.12131  0.63593  0.22160  Biso   1.000  H
  H11      1.0000 0.04097  0.41681  0.07370  Biso   1.000  H
  H12      1.0000 0.12657  0.39290  0.05208  Biso   1.000  H
  N4       1.0000 0.08773  0.52543  0.18152  Biso   1.000  N
  C5       1.0000 0.62525  0.89333  0.31121  Biso   1.000  C
  H13      1.0000 0.61728  0.85197  0.27437  Biso   1.000  H
  H14      1.0000 0.53693  0.07916  0.42227  Biso   1.000  H
  H15      1.0000 0.62254  0.10306  0.44389  Biso   1.000  H
  N5       1.0000 0.58369  0.96247  0.31444  Biso   1.000  N
  C6       1.0000 0.12929  0.39737  0.80717  Biso   1.000  C
  H16      1.0000 0.12131  0.35600  0.77033  Biso   1.000  H
  H17      1.0000 0.04097  0.57512  0.91823  Biso   1.000  H
  H18      1.0000 0.12657  0.59903  0.93985  Biso   1.000  H
  N6       1.0000 0.08773  0.46651  0.81041  Biso   1.000  N
  C7       1.0000 0.36668  0.09860  0.31121  Biso   1.000  C
  H19      1.0000 0.37465  0.13996  0.27437  Biso   1.000  H
  H20      1.0000 0.45500  0.91278  0.42227  Biso   1.000  H
  H21      1.0000 0.36940  0.88887  0.44389  Biso   1.000  H
  N7       1.0000 0.40824  0.02946  0.31444  Biso   1.000  N
  C8       1.0000 0.86264  0.59456  0.80717  Biso   1.000  C
  H22      1.0000 0.87062  0.63593  0.77033  Biso   1.000  H
  H23      1.0000 0.95096  0.41681  0.91823  Biso   1.000  H
  H24      1.0000 0.86536  0.39290  0.93985  Biso   1.000  H
  N8       1.0000 0.90420  0.52543  0.81041  Biso   1.000  N
  C9       1.0000 0.68072  0.36668  0.89333  Biso   1.000  C
  H25      1.0000 0.71756  0.37465  0.85197  Biso   1.000  H
  H26      1.0000 0.56967  0.45500  0.07916  Biso   1.000  H
  H27      1.0000 0.54804  0.36940  0.10306  Biso   1.000  H
  N9       1.0000 0.67749  0.40824  0.96247  Biso   1.000  N
  C10      1.0000 0.18476  0.86264  0.39737  Biso   1.000  C
  H28      1.0000 0.22160  0.87062  0.35600  Biso   1.000  H
  H29      1.0000 0.07370  0.95096  0.57512  Biso   1.000  H
  H30      1.0000 0.05208  0.86536  0.59903  Biso   1.000  H
  N10      1.0000 0.18152  0.90420  0.46651  Biso   1.000  N
  C11      1.0000 0.68072  0.62525  0.09860  Biso   1.000  C
  H31      1.0000 0.71756  0.61728  0.13996  Biso   1.000  H
  H32      1.0000 0.56967  0.53693  0.91278  Biso   1.000  H
  H33      1.0000 0.54804  0.62254  0.88887  Biso   1.000  H
  N11      1.0000 0.67749  0.58369  0.02946  Biso   1.000  N
  C12      1.0000 0.18476  0.12929  0.59456  Biso   1.000  C
  H34      1.0000 0.22160  0.12131  0.63593  Biso   1.000  H
  H35      1.0000 0.07370  0.04097  0.41681  Biso   1.000  H
  H36      1.0000 0.05208  0.12657  0.39290  Biso   1.000  H
  N12      1.0000 0.18152  0.08773  0.52543  Biso   1.000  N
  C13      1.0000 0.31121  0.62525  0.89333  Biso   1.000  C
  H37      1.0000 0.27437  0.61728  0.85197  Biso   1.000  H
  H38      1.0000 0.42227  0.53693  0.07916  Biso   1.000  H
  H39      1.0000 0.44389  0.62254  0.10306  Biso   1.000  H
  N13      1.0000 0.31444  0.58369  0.96247  Biso   1.000  N
  C14      1.0000 0.80717  0.12929  0.39737  Biso   1.000  C
  H40      1.0000 0.77033  0.12131  0.35600  Biso   1.000  H
  H41      1.0000 0.91823  0.04097  0.57512  Biso   1.000  H
  H42      1.0000 0.93985  0.12657  0.59903  Biso   1.000  H
  N14      1.0000 0.81041  0.08773  0.46651  Biso   1.000  N
  C15      1.0000 0.31121  0.36668  0.09860  Biso   1.000  C
  H43      1.0000 0.27437  0.37465  0.13996  Biso   1.000  H
  H44      1.0000 0.42227  0.45500  0.91278  Biso   1.000  H
  H45      1.0000 0.44389  0.36940  0.88887  Biso   1.000  H
  N15      1.0000 0.31444  0.40824  0.02946  Biso   1.000  N
  C16      1.0000 0.80717  0.86264  0.59456  Biso   1.000  C
  H46      1.0000 0.77033  0.87062  0.63593  Biso   1.000  H
  H47      1.0000 0.91823  0.95096  0.41681  Biso   1.000  H
  H48      1.0000 0.93985  0.86536  0.39290  Biso   1.000  H
  N16      1.0000 0.81041  0.90420  0.52543  Biso   1.000  N
  C17      1.0000 0.89333  0.68072  0.36668  Biso   1.000  C
  H49      1.0000 0.85197  0.71756  0.37465  Biso   1.000  H
  H50      1.0000 0.07916  0.56967  0.45500  Biso   1.000  H
  H51      1.0000 0.10306  0.54804  0.36940  Biso   1.000  H
  N17      1.0000 0.96247  0.67749  0.40824  Biso   1.000  N
  C18      1.0000 0.39737  0.18476  0.86264  Biso   1.000  C
  H52      1.0000 0.35600  0.22160  0.87062  Biso   1.000  H
  H53      1.0000 0.57512  0.07370  0.95096  Biso   1.000  H
  H54      1.0000 0.59903  0.05208  0.86536  Biso   1.000  H
  N18      1.0000 0.46651  0.18152  0.90420  Biso   1.000  N
  C19      1.0000 0.09860  0.68072  0.62525  Biso   1.000  C
  H55      1.0000 0.13996  0.71756  0.61728  Biso   1.000  H
  H56      1.0000 0.91278  0.56967  0.53693  Biso   1.000  H
  H57      1.0000 0.88887  0.54804  0.62254  Biso   1.000  H
  N19      1.0000 0.02946  0.67749  0.58369  Biso   1.000  N
  C20      1.0000 0.59456  0.18476  0.12929  Biso   1.000  C
  H58      1.0000 0.63593  0.22160  0.12131  Biso   1.000  H
  H59      1.0000 0.41681  0.07370  0.04097  Biso   1.000  H
  H60      1.0000 0.39290  0.05208  0.12657  Biso   1.000  H
  N20      1.0000 0.52543  0.18152  0.08773  Biso   1.000  N
  C21      1.0000 0.89333  0.31121  0.62525  Biso   1.000  C
  H61      1.0000 0.85197  0.27437  0.61728  Biso   1.000  H
  H62      1.0000 0.07916  0.42227  0.53693  Biso   1.000  H
  H63      1.0000 0.10306  0.44389  0.62254  Biso   1.000  H
  N21      1.0000 0.96247  0.31444  0.58369  Biso   1.000  N
  C22      1.0000 0.39737  0.80717  0.12929  Biso   1.000  C
  H64      1.0000 0.35600  0.77033  0.12131  Biso   1.000  H
  H65      1.0000 0.57512  0.91823  0.04097  Biso   1.000  H
  H66      1.0000 0.59903  0.93985  0.12657  Biso   1.000  H
  N22      1.0000 0.46651  0.81041  0.08773  Biso   1.000  N
  C23      1.0000 0.09860  0.31121  0.36668  Biso   1.000  C
  H67      1.0000 0.13996  0.27437  0.37465  Biso   1.000  H
  H68      1.0000 0.91278  0.42227  0.45500  Biso   1.000  H
  H69      1.0000 0.88887  0.44389  0.36940  Biso   1.000  H
  N23      1.0000 0.02946  0.31444  0.40824  Biso   1.000  N
  C24      1.0000 0.59456  0.80717  0.86264  Biso   1.000  C
  H70      1.0000 0.63593  0.77033  0.87062  Biso   1.000  H
  H71      1.0000 0.41681  0.91823  0.95096  Biso   1.000  H
  H72      1.0000 0.39290  0.93985  0.86536  Biso   1.000  H
  N24      1.0000 0.52543  0.81041  0.90420  Biso   1.000  N
  C25      1.0000 0.89333  0.36668  0.68072  Biso   1.000  C
  H73      1.0000 0.85197  0.37465  0.71756  Biso   1.000  H
  H74      1.0000 0.07916  0.45500  0.56967  Biso   1.000  H
  H75      1.0000 0.10306  0.36940  0.54804  Biso   1.000  H
  N25      1.0000 0.96247  0.40824  0.67749  Biso   1.000  N
  C26      1.0000 0.39737  0.86264  0.18476  Biso   1.000  C
  H76      1.0000 0.35600  0.87062  0.22160  Biso   1.000  H
  H77      1.0000 0.57512  0.95096  0.07370  Biso   1.000  H
  H78      1.0000 0.59903  0.86536  0.05208  Biso   1.000  H
  N26      1.0000 0.46651  0.90420  0.18152  Biso   1.000  N
  C27      1.0000 0.09860  0.62525  0.68072  Biso   1.000  C
  H79      1.0000 0.13996  0.61728  0.71756  Biso   1.000  H
  H80      1.0000 0.91278  0.53693  0.56967  Biso   1.000  H
  H81      1.0000 0.88887  0.62254  0.54804  Biso   1.000  H
  N27      1.0000 0.02946  0.58369  0.67749  Biso   1.000  N
  C28      1.0000 0.59456  0.12929  0.18476  Biso   1.000  C
  H82      1.0000 0.63593  0.12131  0.22160  Biso   1.000  H
  H83      1.0000 0.41681  0.04097  0.07370  Biso   1.000  H
  H84      1.0000 0.39290  0.12657  0.05208  Biso   1.000  H
  N28      1.0000 0.52543  0.08773  0.18152  Biso   1.000  N
  C29      1.0000 0.89333  0.62525  0.31121  Biso   1.000  C
  H85      1.0000 0.85197  0.61728  0.27437  Biso   1.000  H
  H86      1.0000 0.07916  0.53693  0.42227  Biso   1.000  H
  H87      1.0000 0.10306  0.62254  0.44389  Biso   1.000  H
  N29      1.0000 0.96247  0.58369  0.31444  Biso   1.000  N
  C30      1.0000 0.39737  0.12929  0.80717  Biso   1.000  C
  H88      1.0000 0.35600  0.12131  0.77033  Biso   1.000  H
  H89      1.0000 0.57512  0.04097  0.91823  Biso   1.000  H
  H90      1.0000 0.59903  0.12657  0.93985  Biso   1.000  H
  N30      1.0000 0.46651  0.08773  0.81041  Biso   1.000  N
  C31      1.0000 0.09860  0.36668  0.31121  Biso   1.000  C
  H91      1.0000 0.13996  0.37465  0.27437  Biso   1.000  H
  H92      1.0000 0.91278  0.45500  0.42227  Biso   1.000  H
  H93      1.0000 0.88887  0.36940  0.44389  Biso   1.000  H
  N31      1.0000 0.02946  0.40824  0.31444  Biso   1.000  N
  C32      1.0000 0.59456  0.86264  0.80717  Biso   1.000  C
  H94      1.0000 0.63593  0.87062  0.77033  Biso   1.000  H
  H95      1.0000 0.41681  0.95096  0.91823  Biso   1.000  H
  H96      1.0000 0.39290  0.86536  0.93985  Biso   1.000  H
  N32      1.0000 0.52543  0.90420  0.81041  Biso   1.000  N
  C33      1.0000 0.36668  0.68072  0.89333  Biso   1.000  C
  H97      1.0000 0.37465  0.71756  0.85197  Biso   1.000  H
  H98      1.0000 0.45500  0.56967  0.07916  Biso   1.000  H
  H99      1.0000 0.36940  0.54804  0.10306  Biso   1.000  H
  N33      1.0000 0.40824  0.67749  0.96247  Biso   1.000  N
  C34      1.0000 0.86264  0.18476  0.39737  Biso   1.000  C
  H100     1.0000 0.87062  0.22160  0.35600  Biso   1.000  H
  H101     1.0000 0.95096  0.07370  0.57512  Biso   1.000  H
  H102     1.0000 0.86536  0.05208  0.59903  Biso   1.000  H
  N34      1.0000 0.90420  0.18152  0.46651  Biso   1.000  N
  C35      1.0000 0.62525  0.68072  0.09860  Biso   1.000  C
  H103     1.0000 0.61728  0.71756  0.13996  Biso   1.000  H
  H104     1.0000 0.53693  0.56967  0.91278  Biso   1.000  H
  H105     1.0000 0.62254  0.54804  0.88887  Biso   1.000  H
  N35      1.0000 0.58369  0.67749  0.02946  Biso   1.000  N
  C36      1.0000 0.12929  0.18476  0.59456  Biso   1.000  C
  H106     1.0000 0.12131  0.22160  0.63593  Biso   1.000  H
  H107     1.0000 0.04097  0.07370  0.41681  Biso   1.000  H
  H108     1.0000 0.12657  0.05208  0.39290  Biso   1.000  H
  N36      1.0000 0.08773  0.18152  0.52543  Biso   1.000  N
  C37      1.0000 0.62525  0.31121  0.89333  Biso   1.000  C
  H109     1.0000 0.61728  0.27437  0.85197  Biso   1.000  H
  H110     1.0000 0.53693  0.42227  0.07916  Biso   1.000  H
  H111     1.0000 0.62254  0.44389  0.10306  Biso   1.000  H
  N37      1.0000 0.58369  0.31444  0.96247  Biso   1.000  N
  C38      1.0000 0.12929  0.80717  0.39737  Biso   1.000  C
  H112     1.0000 0.12131  0.77033  0.35600  Biso   1.000  H
  H113     1.0000 0.04097  0.91823  0.57512  Biso   1.000  H
  H114     1.0000 0.12657  0.93985  0.59903  Biso   1.000  H
  N38      1.0000 0.08773  0.81041  0.46651  Biso   1.000  N
  C39      1.0000 0.36668  0.31121  0.09860  Biso   1.000  C
  H115     1.0000 0.37465  0.27437  0.13996  Biso   1.000  H
  H116     1.0000 0.45500  0.42227  0.91278  Biso   1.000  H
  H117     1.0000 0.36940  0.44389  0.88887  Biso   1.000  H
  N39      1.0000 0.40824  0.31444  0.02946  Biso   1.000  N
  C40      1.0000 0.86264  0.80717  0.59456  Biso   1.000  C
  H118     1.0000 0.87062  0.77033  0.63593  Biso   1.000  H
  H119     1.0000 0.95096  0.91823  0.41681  Biso   1.000  H
  H120     1.0000 0.86536  0.93985  0.39290  Biso   1.000  H
  N40      1.0000 0.90420  0.81041  0.52543  Biso   1.000  N
  C41      1.0000 0.68072  0.89333  0.36668  Biso   1.000  C
  H121     1.0000 0.71756  0.85197  0.37465  Biso   1.000  H
  H122     1.0000 0.56967  0.07916  0.45500  Biso   1.000  H
  H123     1.0000 0.54804  0.10306  0.36940  Biso   1.000  H
  N41      1.0000 0.67749  0.96247  0.40824  Biso   1.000  N
  C42      1.0000 0.18476  0.39737  0.86264  Biso   1.000  C
  H124     1.0000 0.22160  0.35600  0.87062  Biso   1.000  H
  H125     1.0000 0.07370  0.57512  0.95096  Biso   1.000  H
  H126     1.0000 0.05208  0.59903  0.86536  Biso   1.000  H
  N42      1.0000 0.18152  0.46651  0.90420  Biso   1.000  N
  C43      1.0000 0.68072  0.09860  0.62525  Biso   1.000  C
  H127     1.0000 0.71756  0.13996  0.61728  Biso   1.000  H
  H128     1.0000 0.56967  0.91278  0.53693  Biso   1.000  H
  H129     1.0000 0.54804  0.88887  0.62254  Biso   1.000  H
  N43      1.0000 0.67749  0.02946  0.58369  Biso   1.000  N
  C44      1.0000 0.18476  0.59456  0.12929  Biso   1.000  C
  H130     1.0000 0.22160  0.63593  0.12131  Biso   1.000  H
  H131     1.0000 0.07370  0.41681  0.04097  Biso   1.000  H
  H132     1.0000 0.05208  0.39290  0.12657  Biso   1.000  H
  N44      1.0000 0.18152  0.52543  0.08773  Biso   1.000  N
  C45      1.0000 0.31121  0.89333  0.62525  Biso   1.000  C
  H133     1.0000 0.27437  0.85197  0.61728  Biso   1.000  H
  H134     1.0000 0.42227  0.07916  0.53693  Biso   1.000  H
  H135     1.0000 0.44389  0.10306  0.62254  Biso   1.000  H
  N45      1.0000 0.31444  0.96247  0.58369  Biso   1.000  N
  C46      1.0000 0.80717  0.39737  0.12929  Biso   1.000  C
  H136     1.0000 0.77033  0.35600  0.12131  Biso   1.000  H
  H137     1.0000 0.91823  0.57512  0.04097  Biso   1.000  H
  H138     1.0000 0.93985  0.59903  0.12657  Biso   1.000  H
  N46      1.0000 0.81041  0.46651  0.08773  Biso   1.000  N
  C47      1.0000 0.31121  0.09860  0.36668  Biso   1.000  C
  H139     1.0000 0.27437  0.13996  0.37465  Biso   1.000  H
  H140     1.0000 0.42227  0.91278  0.45500  Biso   1.000  H
  H141     1.0000 0.44389  0.88887  0.36940  Biso   1.000  H
  N47      1.0000 0.31444  0.02946  0.40824  Biso   1.000  N
  C48      1.0000 0.80717  0.59456  0.86264  Biso   1.000  C
  H142     1.0000 0.77033  0.63593  0.87062  Biso   1.000  H
  H143     1.0000 0.91823  0.41681  0.95096  Biso   1.000  H
  H144     1.0000 0.93985  0.39290  0.86536  Biso   1.000  H
  N48      1.0000 0.81041  0.52543  0.90420  Biso   1.000  N
  Zn1      1.0000 0.49597  0.00000  0.74395  Biso   1.000  Zn
  Zn2      1.0000 0.49597  0.00000  0.24798  Biso   1.000  Zn
  Zn3      1.0000 0.74395  0.49597  0.00000  Biso   1.000  Zn
  Zn4      1.0000 0.24798  0.49597  0.00000  Biso   1.000  Zn
  Zn5      1.0000 0.00000  0.74395  0.49597  Biso   1.000  Zn
  Zn6      1.0000 0.00000  0.24798  0.49597  Biso   1.000  Zn
  Zn7      1.0000 0.00000  0.49597  0.74395  Biso   1.000  Zn
  Zn8      1.0000 0.00000  0.49597  0.24798  Biso   1.000  Zn
  Zn9      1.0000 0.49597  0.74395  0.00000  Biso   1.000  Zn
  Zn10     1.0000 0.49597  0.24798  0.00000  Biso   1.000  Zn
  Zn11     1.0000 0.74395  0.00000  0.49597  Biso   1.000  Zn
  Zn12     1.0000 0.24798  0.00000  0.49597  Biso   1.000  Zn
  C49      1.0000 0.37356  0.00813  0.61837  Biso   1.000  C
  C50      1.0000 0.40124  0.08610  0.59070  Biso   1.000  C
  C51      1.0000 0.86953  0.50410  0.12240  Biso   1.000  C
  C52      1.0000 0.89720  0.58207  0.09473  Biso   1.000  C
  C53      1.0000 0.61837  0.98380  0.61837  Biso   1.000  C
  C54      1.0000 0.59070  0.90583  0.59070  Biso   1.000  C
  C55      1.0000 0.12240  0.48783  0.12240  Biso   1.000  C
  C56      1.0000 0.09473  0.40987  0.09473  Biso   1.000  C
  C57      1.0000 0.61837  0.00813  0.37356  Biso   1.000  C
  C58      1.0000 0.59070  0.08610  0.40124  Biso   1.000  C
  C59      1.0000 0.12240  0.50410  0.86953  Biso   1.000  C
  C60      1.0000 0.09473  0.58207  0.89720  Biso   1.000  C
  C61      1.0000 0.37356  0.98380  0.37356  Biso   1.000  C
  C62      1.0000 0.40124  0.90583  0.40124  Biso   1.000  C
  C63      1.0000 0.86953  0.48783  0.86953  Biso   1.000  C
  C64      1.0000 0.89720  0.40987  0.89720  Biso   1.000  C
  C65      1.0000 0.61837  0.37356  0.00813  Biso   1.000  C
  C66      1.0000 0.59070  0.40124  0.08610  Biso   1.000  C
  C67      1.0000 0.12240  0.86953  0.50410  Biso   1.000  C
  C68      1.0000 0.09473  0.89720  0.58207  Biso   1.000  C
  C69      1.0000 0.61837  0.61837  0.98380  Biso   1.000  C
  C70      1.0000 0.59070  0.59070  0.90583  Biso   1.000  C
  C71      1.0000 0.12240  0.12240  0.48783  Biso   1.000  C
  C72      1.0000 0.09473  0.09473  0.40987  Biso   1.000  C
  C73      1.0000 0.37356  0.61837  0.00813  Biso   1.000  C
  C74      1.0000 0.40124  0.59070  0.08610  Biso   1.000  C
  C75      1.0000 0.86953  0.12240  0.50410  Biso   1.000  C
  C76      1.0000 0.89720  0.09473  0.58207  Biso   1.000  C
  C77      1.0000 0.37356  0.37356  0.98380  Biso   1.000  C
  C78      1.0000 0.40124  0.40124  0.90583  Biso   1.000  C
  C79      1.0000 0.86953  0.86953  0.48783  Biso   1.000  C
  C80      1.0000 0.89720  0.89720  0.40987  Biso   1.000  C
  C81      1.0000 0.00813  0.61837  0.37356  Biso   1.000  C
  C82      1.0000 0.08610  0.59070  0.40124  Biso   1.000  C
  C83      1.0000 0.50410  0.12240  0.86953  Biso   1.000  C
  C84      1.0000 0.58207  0.09473  0.89720  Biso   1.000  C
  C85      1.0000 0.98380  0.61837  0.61837  Biso   1.000  C
  C86      1.0000 0.90583  0.59070  0.59070  Biso   1.000  C
  C87      1.0000 0.48783  0.12240  0.12240  Biso   1.000  C
  C88      1.0000 0.40987  0.09473  0.09473  Biso   1.000  C
  C89      1.0000 0.00813  0.37356  0.61837  Biso   1.000  C
  C90      1.0000 0.08610  0.40124  0.59070  Biso   1.000  C
  C91      1.0000 0.50410  0.86953  0.12240  Biso   1.000  C
  C92      1.0000 0.58207  0.89720  0.09473  Biso   1.000  C
  C93      1.0000 0.98380  0.37356  0.37356  Biso   1.000  C
  C94      1.0000 0.90583  0.40124  0.40124  Biso   1.000  C
  C95      1.0000 0.48783  0.86953  0.86953  Biso   1.000  C
  C96      1.0000 0.40987  0.89720  0.89720  Biso   1.000  C
