data_image0
_cell_length_a       7.1319
_cell_length_b       24.327
_cell_length_c       18.849
_cell_angle_alpha    90
_cell_angle_beta     90
_cell_angle_gamma    90

_symmetry_space_group_name_H-M    "P 1"
_symmetry_int_tables_number       1

loop_
  _symmetry_equiv_pos_as_xyz
  'x, y, z'

loop_
  _atom_site_label
  _atom_site_occupancy
  _atom_site_fract_x
  _atom_site_fract_y
  _atom_site_fract_z
  _atom_site_thermal_displace_type
  _atom_site_B_iso_or_equiv
  _atom_site_type_symbol
  Zn1      1.0000 0.15675  0.08266  0.03783  Biso   1.000  Zn
  O1       1.0000 0.21980  0.06990  0.17730  Biso   1.000  O
  O2       1.0000 0.25270  0.01555  0.08480  Biso   1.000  O
  O3       1.0000 0.25210  0.98930  0.42070  Biso   1.000  O
  O4       1.0000 0.39940  0.90970  0.43520  Biso   1.000  O
  O5       1.0000 0.30210  0.15129  0.04750  Biso   1.000  O
  O6       1.0000 0.54550  0.10250  0.00680  Biso   1.000  O
  C1       1.0000 0.30910  0.98440  0.27270  Biso   1.000  C
  H1       1.0000 0.26610  0.01740  0.29160  Biso   1.000  H
  C2       1.0000 0.26080  0.02440  0.15180  Biso   1.000  C
  C3       1.0000 0.32140  0.97770  0.19900  Biso   1.000  C
  C4       1.0000 0.38080  0.92740  0.17190  Biso   1.000  C
  H2       1.0000 0.38260  0.92220  0.12310  Biso   1.000  H
  C5       1.0000 0.50240  0.83070  0.18590  Biso   1.000  C
  H3       1.0000 0.45520  0.82640  0.13850  Biso   1.000  H
  H4       1.0000 0.63700  0.82980  0.18510  Biso   1.000  H
  H5       1.0000 0.45650  0.80130  0.21520  Biso   1.000  H
  C6       1.0000 0.43710  0.88530  0.21580  Biso   1.000  C
  C7       1.0000 0.42900  0.89360  0.28910  Biso   1.000  C
  H6       1.0000 0.47030  0.86600  0.31950  Biso   1.000  H
  C8       1.0000 0.36090  0.94210  0.31720  Biso   1.000  C
  C9       1.0000 0.33700  0.94830  0.39700  Biso   1.000  C
  C10      1.0000 0.47000  0.14700  0.02230  Biso   1.000  C
  C11      1.0000 0.57140  0.20010  0.00840  Biso   1.000  C
  C12      1.0000 0.74910  0.20120  0.97670  Biso   1.000  C
  H7       1.0000 0.80910  0.16820  0.96650  Biso   1.000  H
  H8       1.0000 0.01130  0.26370  0.87570  Biso   1.000  H
  H9       1.0000 0.07420  0.21320  0.92170  Biso   1.000  H
  H10      1.0000 0.11130  0.27310  0.94880  Biso   1.000  H
  Zn2      1.0000 0.34325  0.91734  0.53783  Biso   1.000  Zn
  O7       1.0000 0.28020  0.93010  0.67730  Biso   1.000  O
  O8       1.0000 0.24730  0.98445  0.58480  Biso   1.000  O
  O9       1.0000 0.24790  0.01070  0.92070  Biso   1.000  O
  O10      1.0000 0.10060  0.09030  0.93520  Biso   1.000  O
  O11      1.0000 0.19790  0.84871  0.54750  Biso   1.000  O
  O12      1.0000 0.95450  0.89750  0.50680  Biso   1.000  O
  C13      1.0000 0.19090  0.01560  0.77270  Biso   1.000  C
  H11      1.0000 0.23390  0.98260  0.79160  Biso   1.000  H
  C14      1.0000 0.23920  0.97560  0.65180  Biso   1.000  C
  C15      1.0000 0.17860  0.02230  0.69900  Biso   1.000  C
  C16      1.0000 0.11920  0.07260  0.67190  Biso   1.000  C
  H12      1.0000 0.11740  0.07780  0.62310  Biso   1.000  H
  C17      1.0000 0.99760  0.16930  0.68590  Biso   1.000  C
  H13      1.0000 0.04480  0.17360  0.63850  Biso   1.000  H
  H14      1.0000 0.86300  0.17020  0.68510  Biso   1.000  H
  H15      1.0000 0.04350  0.19870  0.71520  Biso   1.000  H
  C18      1.0000 0.06290  0.11470  0.71580  Biso   1.000  C
  C19      1.0000 0.07100  0.10640  0.78910  Biso   1.000  C
  H16      1.0000 0.02970  0.13400  0.81950  Biso   1.000  H
  C20      1.0000 0.13910  0.05790  0.81720  Biso   1.000  C
  C21      1.0000 0.16300  0.05170  0.89700  Biso   1.000  C
  C22      1.0000 0.03000  0.85300  0.52230  Biso   1.000  C
  C23      1.0000 0.92860  0.79990  0.50840  Biso   1.000  C
  C24      1.0000 0.75090  0.79880  0.47670  Biso   1.000  C
  H17      1.0000 0.69090  0.83180  0.46650  Biso   1.000  H
  H18      1.0000 0.48870  0.73630  0.37570  Biso   1.000  H
  H19      1.0000 0.42580  0.78680  0.42170  Biso   1.000  H
  H20      1.0000 0.38870  0.72690  0.44880  Biso   1.000  H
  Zn3      1.0000 0.84325  0.58266  0.96217  Biso   1.000  Zn
  O13      1.0000 0.78020  0.56990  0.82270  Biso   1.000  O
  O14      1.0000 0.74730  0.51555  0.91520  Biso   1.000  O
  O15      1.0000 0.74790  0.48930  0.57930  Biso   1.000  O
  O16      1.0000 0.60060  0.40970  0.56480  Biso   1.000  O
  O17      1.0000 0.69790  0.65129  0.95250  Biso   1.000  O
  O18      1.0000 0.45450  0.60250  0.99320  Biso   1.000  O
  C25      1.0000 0.69090  0.48440  0.72730  Biso   1.000  C
  H21      1.0000 0.73390  0.51740  0.70840  Biso   1.000  H
  C26      1.0000 0.73920  0.52440  0.84820  Biso   1.000  C
  C27      1.0000 0.67860  0.47770  0.80100  Biso   1.000  C
  C28      1.0000 0.61920  0.42740  0.82810  Biso   1.000  C
  H22      1.0000 0.61740  0.42220  0.87690  Biso   1.000  H
  C29      1.0000 0.49760  0.33070  0.81410  Biso   1.000  C
  H23      1.0000 0.54480  0.32640  0.86150  Biso   1.000  H
  H24      1.0000 0.36300  0.32980  0.81490  Biso   1.000  H
  H25      1.0000 0.54350  0.30130  0.78480  Biso   1.000  H
  C30      1.0000 0.56290  0.38530  0.78420  Biso   1.000  C
  C31      1.0000 0.57100  0.39360  0.71090  Biso   1.000  C
  H26      1.0000 0.52970  0.36600  0.68050  Biso   1.000  H
  C32      1.0000 0.63910  0.44210  0.68280  Biso   1.000  C
  C33      1.0000 0.66300  0.44830  0.60300  Biso   1.000  C
  C34      1.0000 0.53000  0.64700  0.97770  Biso   1.000  C
  C35      1.0000 0.42860  0.70010  0.99160  Biso   1.000  C
  C36      1.0000 0.25090  0.70120  0.02330  Biso   1.000  C
  H27      1.0000 0.19090  0.66820  0.03350  Biso   1.000  H
  H28      1.0000 0.98870  0.76370  0.12430  Biso   1.000  H
  H29      1.0000 0.92580  0.71320  0.07830  Biso   1.000  H
  H30      1.0000 0.88870  0.77310  0.05120  Biso   1.000  H
  Zn4      1.0000 0.65675  0.41734  0.46217  Biso   1.000  Zn
  O19      1.0000 0.71980  0.43010  0.32270  Biso   1.000  O
  O20      1.0000 0.75270  0.48445  0.41520  Biso   1.000  O
  O21      1.0000 0.75210  0.51070  0.07930  Biso   1.000  O
  O22      1.0000 0.89940  0.59030  0.06480  Biso   1.000  O
  O23      1.0000 0.80210  0.34871  0.45250  Biso   1.000  O
  O24      1.0000 0.04550  0.39750  0.49320  Biso   1.000  O
  C37      1.0000 0.80910  0.51560  0.22730  Biso   1.000  C
  H31      1.0000 0.76610  0.48260  0.20840  Biso   1.000  H
  C38      1.0000 0.76080  0.47560  0.34820  Biso   1.000  C
  C39      1.0000 0.82140  0.52230  0.30100  Biso   1.000  C
  C40      1.0000 0.88080  0.57260  0.32810  Biso   1.000  C
  H32      1.0000 0.88260  0.57780  0.37690  Biso   1.000  H
  C41      1.0000 0.00240  0.66930  0.31410  Biso   1.000  C
  H33      1.0000 0.95520  0.67360  0.36150  Biso   1.000  H
  H34      1.0000 0.13700  0.67020  0.31490  Biso   1.000  H
  H35      1.0000 0.95650  0.69870  0.28480  Biso   1.000  H
  C42      1.0000 0.93710  0.61470  0.28420  Biso   1.000  C
  C43      1.0000 0.92900  0.60640  0.21090  Biso   1.000  C
  H36      1.0000 0.97030  0.63400  0.18050  Biso   1.000  H
  C44      1.0000 0.86090  0.55790  0.18280  Biso   1.000  C
  C45      1.0000 0.83700  0.55170  0.10300  Biso   1.000  C
  C46      1.0000 0.97000  0.35300  0.47770  Biso   1.000  C
  C47      1.0000 0.07140  0.29990  0.49160  Biso   1.000  C
  C48      1.0000 0.24910  0.29880  0.52330  Biso   1.000  C
  H37      1.0000 0.30910  0.33180  0.53350  Biso   1.000  H
  H38      1.0000 0.51130  0.23630  0.62430  Biso   1.000  H
  H39      1.0000 0.57420  0.28680  0.57830  Biso   1.000  H
  H40      1.0000 0.61130  0.22690  0.55120  Biso   1.000  H
  Zn5      1.0000 0.84325  0.91734  0.96217  Biso   1.000  Zn
  O25      1.0000 0.78020  0.93010  0.82270  Biso   1.000  O
  O26      1.0000 0.74730  0.98445  0.91520  Biso   1.000  O
  O27      1.0000 0.74790  0.01070  0.57930  Biso   1.000  O
  O28      1.0000 0.60060  0.09030  0.56480  Biso   1.000  O
  O29      1.0000 0.69790  0.84871  0.95250  Biso   1.000  O
  O30      1.0000 0.45450  0.89750  0.99320  Biso   1.000  O
  C49      1.0000 0.69090  0.01560  0.72730  Biso   1.000  C
  H41      1.0000 0.73390  0.98260  0.70840  Biso   1.000  H
  C50      1.0000 0.73920  0.97560  0.84820  Biso   1.000  C
  C51      1.0000 0.67860  0.02230  0.80100  Biso   1.000  C
  C52      1.0000 0.61920  0.07260  0.82810  Biso   1.000  C
  H42      1.0000 0.61740  0.07780  0.87690  Biso   1.000  H
  C53      1.0000 0.49760  0.16930  0.81410  Biso   1.000  C
  H43      1.0000 0.54480  0.17360  0.86150  Biso   1.000  H
  H44      1.0000 0.36300  0.17020  0.81490  Biso   1.000  H
  H45      1.0000 0.54350  0.19870  0.78480  Biso   1.000  H
  C54      1.0000 0.56290  0.11470  0.78420  Biso   1.000  C
  C55      1.0000 0.57100  0.10640  0.71090  Biso   1.000  C
  H46      1.0000 0.52970  0.13400  0.68050  Biso   1.000  H
  C56      1.0000 0.63910  0.05790  0.68280  Biso   1.000  C
  C57      1.0000 0.66300  0.05170  0.60300  Biso   1.000  C
  C58      1.0000 0.53000  0.85300  0.97770  Biso   1.000  C
  C59      1.0000 0.42860  0.79990  0.99160  Biso   1.000  C
  C60      1.0000 0.25090  0.79880  0.02330  Biso   1.000  C
  H47      1.0000 0.19090  0.83180  0.03350  Biso   1.000  H
  H48      1.0000 0.98870  0.73630  0.12430  Biso   1.000  H
  H49      1.0000 0.92580  0.78680  0.07830  Biso   1.000  H
  H50      1.0000 0.88870  0.72690  0.05120  Biso   1.000  H
  Zn6      1.0000 0.65675  0.08266  0.46217  Biso   1.000  Zn
  O31      1.0000 0.71980  0.06990  0.32270  Biso   1.000  O
  O32      1.0000 0.75270  0.01555  0.41520  Biso   1.000  O
  O33      1.0000 0.75210  0.98930  0.07930  Biso   1.000  O
  O34      1.0000 0.89940  0.90970  0.06480  Biso   1.000  O
  O35      1.0000 0.80210  0.15129  0.45250  Biso   1.000  O
  O36      1.0000 0.04550  0.10250  0.49320  Biso   1.000  O
  C61      1.0000 0.80910  0.98440  0.22730  Biso   1.000  C
  H51      1.0000 0.76610  0.01740  0.20840  Biso   1.000  H
  C62      1.0000 0.76080  0.02440  0.34820  Biso   1.000  C
  C63      1.0000 0.82140  0.97770  0.30100  Biso   1.000  C
  C64      1.0000 0.88080  0.92740  0.32810  Biso   1.000  C
  H52      1.0000 0.88260  0.92220  0.37690  Biso   1.000  H
  C65      1.0000 0.00240  0.83070  0.31410  Biso   1.000  C
  H53      1.0000 0.95520  0.82640  0.36150  Biso   1.000  H
  H54      1.0000 0.13700  0.82980  0.31490  Biso   1.000  H
  H55      1.0000 0.95650  0.80130  0.28480  Biso   1.000  H
  C66      1.0000 0.93710  0.88530  0.28420  Biso   1.000  C
  C67      1.0000 0.92900  0.89360  0.21090  Biso   1.000  C
  H56      1.0000 0.97030  0.86600  0.18050  Biso   1.000  H
  C68      1.0000 0.86090  0.94210  0.18280  Biso   1.000  C
  C69      1.0000 0.83700  0.94830  0.10300  Biso   1.000  C
  C70      1.0000 0.97000  0.14700  0.47770  Biso   1.000  C
  C71      1.0000 0.07140  0.20010  0.49160  Biso   1.000  C
  C72      1.0000 0.24910  0.20120  0.52330  Biso   1.000  C
  H57      1.0000 0.30910  0.16820  0.53350  Biso   1.000  H
  H58      1.0000 0.51130  0.26370  0.62430  Biso   1.000  H
  H59      1.0000 0.57420  0.21320  0.57830  Biso   1.000  H
  H60      1.0000 0.61130  0.27310  0.55120  Biso   1.000  H
  Zn7      1.0000 0.15675  0.41734  0.03783  Biso   1.000  Zn
  O37      1.0000 0.21980  0.43010  0.17730  Biso   1.000  O
  O38      1.0000 0.25270  0.48445  0.08480  Biso   1.000  O
  O39      1.0000 0.25210  0.51070  0.42070  Biso   1.000  O
  O40      1.0000 0.39940  0.59030  0.43520  Biso   1.000  O
  O41      1.0000 0.30210  0.34871  0.04750  Biso   1.000  O
  O42      1.0000 0.54550  0.39750  0.00680  Biso   1.000  O
  C73      1.0000 0.30910  0.51560  0.27270  Biso   1.000  C
  H61      1.0000 0.26610  0.48260  0.29160  Biso   1.000  H
  C74      1.0000 0.26080  0.47560  0.15180  Biso   1.000  C
  C75      1.0000 0.32140  0.52230  0.19900  Biso   1.000  C
  C76      1.0000 0.38080  0.57260  0.17190  Biso   1.000  C
  H62      1.0000 0.38260  0.57780  0.12310  Biso   1.000  H
  C77      1.0000 0.50240  0.66930  0.18590  Biso   1.000  C
  H63      1.0000 0.45520  0.67360  0.13850  Biso   1.000  H
  H64      1.0000 0.63700  0.67020  0.18510  Biso   1.000  H
  H65      1.0000 0.45650  0.69870  0.21520  Biso   1.000  H
  C78      1.0000 0.43710  0.61470  0.21580  Biso   1.000  C
  C79      1.0000 0.42900  0.60640  0.28910  Biso   1.000  C
  H66      1.0000 0.47030  0.63400  0.31950  Biso   1.000  H
  C80      1.0000 0.36090  0.55790  0.31720  Biso   1.000  C
  C81      1.0000 0.33700  0.55170  0.39700  Biso   1.000  C
  C82      1.0000 0.47000  0.35300  0.02230  Biso   1.000  C
  C83      1.0000 0.57140  0.29990  0.00840  Biso   1.000  C
  C84      1.0000 0.74910  0.29880  0.97670  Biso   1.000  C
  H67      1.0000 0.80910  0.33180  0.96650  Biso   1.000  H
  H68      1.0000 0.01130  0.23630  0.87570  Biso   1.000  H
  H69      1.0000 0.07420  0.28680  0.92170  Biso   1.000  H
  H70      1.0000 0.11130  0.22690  0.94880  Biso   1.000  H
  Zn8      1.0000 0.34325  0.58266  0.53783  Biso   1.000  Zn
  O43      1.0000 0.28020  0.56990  0.67730  Biso   1.000  O
  O44      1.0000 0.24730  0.51555  0.58480  Biso   1.000  O
  O45      1.0000 0.24790  0.48930  0.92070  Biso   1.000  O
  O46      1.0000 0.10060  0.40970  0.93520  Biso   1.000  O
  O47      1.0000 0.19790  0.65129  0.54750  Biso   1.000  O
  O48      1.0000 0.95450  0.60250  0.50680  Biso   1.000  O
  C85      1.0000 0.19090  0.48440  0.77270  Biso   1.000  C
  H71      1.0000 0.23390  0.51740  0.79160  Biso   1.000  H
  C86      1.0000 0.23920  0.52440  0.65180  Biso   1.000  C
  C87      1.0000 0.17860  0.47770  0.69900  Biso   1.000  C
  C88      1.0000 0.11920  0.42740  0.67190  Biso   1.000  C
  H72      1.0000 0.11740  0.42220  0.62310  Biso   1.000  H
  C89      1.0000 0.99760  0.33070  0.68590  Biso   1.000  C
  H73      1.0000 0.04480  0.32640  0.63850  Biso   1.000  H
  H74      1.0000 0.86300  0.32980  0.68510  Biso   1.000  H
  H75      1.0000 0.04350  0.30130  0.71520  Biso   1.000  H
  C90      1.0000 0.06290  0.38530  0.71580  Biso   1.000  C
  C91      1.0000 0.07100  0.39360  0.78910  Biso   1.000  C
  H76      1.0000 0.02970  0.36600  0.81950  Biso   1.000  H
  C92      1.0000 0.13910  0.44210  0.81720  Biso   1.000  C
  C93      1.0000 0.16300  0.44830  0.89700  Biso   1.000  C
  C94      1.0000 0.03000  0.64700  0.52230  Biso   1.000  C
  C95      1.0000 0.92860  0.70010  0.50840  Biso   1.000  C
  C96      1.0000 0.75090  0.70120  0.47670  Biso   1.000  C
  H77      1.0000 0.69090  0.66820  0.46650  Biso   1.000  H
  H78      1.0000 0.48870  0.76370  0.37570  Biso   1.000  H
  H79      1.0000 0.42580  0.71320  0.42170  Biso   1.000  H
  H80      1.0000 0.38870  0.77310  0.44880  Biso   1.000  H
  Na1      1.0000 0.50000  0.00000  0.00000  Biso   1.000  Na
  Na2      1.0000 0.00000  0.00000  0.50000  Biso   1.000  Na
  Na3      1.0000 0.50000  0.50000  0.00000  Biso   1.000  Na
  Na4      1.0000 0.00000  0.50000  0.50000  Biso   1.000  Na
  C97      1.0000 0.48480  0.25000  0.02420  Biso   1.000  C
  H81      1.0000 0.36740  0.25000  0.04570  Biso   1.000  H
  C98      1.0000 0.83690  0.25000  0.96020  Biso   1.000  C
  C99      1.0000 0.02580  0.25000  0.92320  Biso   1.000  C
  C100     1.0000 0.01520  0.75000  0.52420  Biso   1.000  C
  H82      1.0000 0.13260  0.75000  0.54570  Biso   1.000  H
  C101     1.0000 0.66310  0.75000  0.46020  Biso   1.000  C
  C102     1.0000 0.47420  0.75000  0.42320  Biso   1.000  C
  C103     1.0000 0.51520  0.75000  0.97580  Biso   1.000  C
  H83      1.0000 0.63260  0.75000  0.95430  Biso   1.000  H
  C104     1.0000 0.16310  0.75000  0.03980  Biso   1.000  C
  C105     1.0000 0.97420  0.75000  0.07680  Biso   1.000  C
  C106     1.0000 0.98480  0.25000  0.47580  Biso   1.000  C
  H84      1.0000 0.86740  0.25000  0.45430  Biso   1.000  H
  C107     1.0000 0.33690  0.25000  0.53980  Biso   1.000  C
  C108     1.0000 0.52580  0.25000  0.57680  Biso   1.000  C
