data_image0
_cell_length_a       13.984
_cell_length_b       14.792
_cell_length_c       15.364
_cell_angle_alpha    75.43
_cell_angle_beta     82.74
_cell_angle_gamma    77.74

_symmetry_space_group_name_H-M    "P 1"
_symmetry_int_tables_number       1

loop_
  _symmetry_equiv_pos_as_xyz
  'x, y, z'

loop_
  _atom_site_label
  _atom_site_occupancy
  _atom_site_fract_x
  _atom_site_fract_y
  _atom_site_fract_z
  _atom_site_thermal_displace_type
  _atom_site_B_iso_or_equiv
  _atom_site_type_symbol
  Ba1      1.0000 0.18762  0.07141  0.05853  Biso   1.000  Ba
  Ba2      1.0000 0.97085  0.19068  0.83363  Biso   1.000  Ba
  S1       1.0000 0.94000  0.60150  0.70010  Biso   1.000  S
  S2       1.0000 0.22030  0.17123  0.82804  Biso   1.000  S
  S3       1.0000 0.30780  0.83870  0.12026  Biso   1.000  S
  S4       1.0000 0.06819  0.93346  0.91148  Biso   1.000  S
  O1       1.0000 0.97360  0.60260  0.62020  Biso   1.000  O
  O2       1.0000 0.01100  0.32300  0.36800  Biso   1.000  O
  O3       1.0000 0.06380  0.30700  0.26500  Biso   1.000  O
  O4       1.0000 0.99200  0.35400  0.45800  Biso   1.000  O
  O5       1.0000 0.92100  0.64000  0.79200  Biso   1.000  O
  O6       1.0000 0.29680  0.09990  0.86870  Biso   1.000  O
  O7       1.0000 0.17030  0.14820  0.76260  Biso   1.000  O
  O8       1.0000 0.14590  0.20470  0.89800  Biso   1.000  O
  O9       1.0000 0.20210  0.87010  0.12700  Biso   1.000  O
  O10      1.0000 0.35430  0.92310  0.08800  Biso   1.000  O
  O11      1.0000 0.34460  0.76910  0.07110  Biso   1.000  O
  O12      1.0000 0.02690  0.86210  0.98140  Biso   1.000  O
  O13      1.0000 0.99120  0.99590  0.85670  Biso   1.000  O
  O14      1.0000 0.12320  0.98600  0.94590  Biso   1.000  O
  O15      1.0000 0.99600  0.94740  0.49830  Biso   1.000  O
  O16      1.0000 0.95900  0.82500  0.49400  Biso   1.000  O
  O17      1.0000 0.04100  0.88160  0.33200  Biso   1.000  O
  O18      1.0000 0.95190  0.35440  0.70320  Biso   1.000  O
  H1       1.0000 0.11440  0.62790  0.31410  Biso   1.000  H
  H2       1.0000 0.03260  0.59590  0.27420  Biso   1.000  H
  H3       1.0000 0.00400  0.65500  0.34830  Biso   1.000  H
  C1       1.0000 0.51340  0.62560  0.62540  Biso   1.000  C
  C2       1.0000 0.48280  0.52880  0.66140  Biso   1.000  C
  H4       1.0000 0.49610  0.50550  0.72450  Biso   1.000  H
  H5       1.0000 0.52180  0.48390  0.62850  Biso   1.000  H
  C3       1.0000 0.37400  0.53400  0.65240  Biso   1.000  C
  C4       1.0000 0.35250  0.57270  0.55400  Biso   1.000  C
  H6       1.0000 0.38870  0.52860  0.51890  Biso   1.000  H
  H7       1.0000 0.28310  0.57810  0.54850  Biso   1.000  H
  C5       1.0000 0.38130  0.67070  0.51610  Biso   1.000  C
  C6       1.0000 0.32110  0.73880  0.57450  Biso   1.000  C
  H8       1.0000 0.25170  0.74550  0.56790  Biso   1.000  H
  H9       1.0000 0.33840  0.80120  0.55270  Biso   1.000  H
  C7       1.0000 0.33980  0.70250  0.67380  Biso   1.000  C
  C8       1.0000 0.45160  0.69330  0.68090  Biso   1.000  C
  H10      1.0000 0.46610  0.66990  0.74360  Biso   1.000  H
  H11      1.0000 0.46920  0.75550  0.65960  Biso   1.000  H
  C9       1.0000 0.49130  0.66180  0.52620  Biso   1.000  C
  H12      1.0000 0.51010  0.72330  0.50250  Biso   1.000  H
  H13      1.0000 0.52960  0.61810  0.49160  Biso   1.000  H
  C10      1.0000 0.31440  0.60300  0.70910  Biso   1.000  C
  H14      1.0000 0.32910  0.57910  0.77170  Biso   1.000  H
  H15      1.0000 0.24480  0.60680  0.70600  Biso   1.000  H
  C11      1.0000 0.62380  0.61280  0.63830  Biso   1.000  C
  C12      1.0000 0.65510  0.58110  0.72500  Biso   1.000  C
  H16      1.0000 0.61000  0.56750  0.77410  Biso   1.000  H
  C13      1.0000 0.75380  0.56970  0.73840  Biso   1.000  C
  H17      1.0000 0.77480  0.54850  0.79640  Biso   1.000  H
  C14      1.0000 0.82130  0.59000  0.66500  Biso   1.000  C
  C15      1.0000 0.79010  0.62170  0.57830  Biso   1.000  C
  H18      1.0000 0.83520  0.63520  0.52920  Biso   1.000  H
  C16      1.0000 0.69130  0.63310  0.56490  Biso   1.000  C
  H19      1.0000 0.67040  0.65430  0.50690  Biso   1.000  H
  C17      1.0000 0.34220  0.43840  0.69130  Biso   1.000  C
  C18      1.0000 0.40210  0.36000  0.73610  Biso   1.000  C
  H20      1.0000 0.46750  0.36190  0.73960  Biso   1.000  H
  C19      1.0000 0.36630  0.27640  0.77710  Biso   1.000  C
  H21      1.0000 0.40800  0.22430  0.80910  Biso   1.000  H
  C20      1.0000 0.27190  0.27020  0.77100  Biso   1.000  C
  C21      1.0000 0.20960  0.34910  0.72210  Biso   1.000  C
  H22      1.0000 0.14460  0.34660  0.71730  Biso   1.000  H
  C22      1.0000 0.24600  0.42940  0.68190  Biso   1.000  C
  H23      1.0000 0.20570  0.48020  0.64680  Biso   1.000  H
  C23      1.0000 0.36300  0.71030  0.41640  Biso   1.000  C
  C24      1.0000 0.39040  0.79580  0.37100  Biso   1.000  C
  H24      1.0000 0.42010  0.82760  0.40190  Biso   1.000  H
  C25      1.0000 0.37470  0.83510  0.28120  Biso   1.000  C
  H25      1.0000 0.39140  0.89370  0.25290  Biso   1.000  H
  C26      1.0000 0.33500  0.78790  0.23460  Biso   1.000  C
  C27      1.0000 0.30670  0.70270  0.27580  Biso   1.000  C
  H26      1.0000 0.27930  0.67040  0.24350  Biso   1.000  H
  C28      1.0000 0.32030  0.66560  0.36800  Biso   1.000  C
  H27      1.0000 0.29970  0.60900  0.39700  Biso   1.000  H
  C29      1.0000 0.27580  0.76590  0.72990  Biso   1.000  C
  C30      1.0000 0.31110  0.80530  0.78970  Biso   1.000  C
  H28      1.0000 0.37860  0.79580  0.79340  Biso   1.000  H
  C31      1.0000 0.24940  0.85820  0.84380  Biso   1.000  C
  H29      1.0000 0.27510  0.88360  0.88330  Biso   1.000  H
  C32      1.0000 0.14990  0.87300  0.83890  Biso   1.000  C
  C33      1.0000 0.11110  0.83500  0.77970  Biso   1.000  C
  H30      1.0000 0.04360  0.84490  0.77620  Biso   1.000  H
  C34      1.0000 0.17500  0.78240  0.72610  Biso   1.000  C
  H31      1.0000 0.14930  0.75730  0.68630  Biso   1.000  H
  C35      1.0000 0.09980  0.84180  0.41020  Biso   1.000  C
  C36      1.0000 0.09900  0.90700  0.46590  Biso   1.000  C
  H32      1.0000 0.04510  0.96150  0.46200  Biso   1.000  H
  H33      1.0000 0.16100  0.91790  0.47850  Biso   1.000  H
  C37      1.0000 0.07100  0.79200  0.50800  Biso   1.000  C
  H34      1.0000 0.11890  0.74280  0.54090  Biso   1.000  H
  H35      1.0000 0.00260  0.78650  0.52430  Biso   1.000  H
  C38      1.0000 0.94550  0.99770  0.41780  Biso   1.000  C
  H36      1.0000 0.97860  0.04860  0.38400  Biso   1.000  H
  H37      1.0000 0.87860  0.02560  0.43480  Biso   1.000  H
  C39      1.0000 0.05200  0.73200  0.47600  Biso   1.000  C
  C40      1.0000 0.94510  0.92880  0.36060  Biso   1.000  C
  O19      1.0000 0.01250  0.48980  0.31400  Biso   1.000  O
  O20      1.0000 0.98900  0.49700  0.37200  Biso   1.000  O
  O21      1.0000 0.95700  0.49800  0.78000  Biso   1.000  O
  O22      1.0000 0.00100  0.51900  0.41400  Biso   1.000  O
  O23      1.0000 0.01750  0.48580  0.26500  Biso   1.000  O
  O24      1.0000 0.05160  0.52690  0.32330  Biso   1.000  O
  O25      1.0000 0.05000  0.51810  0.29000  Biso   1.000  O
  Ba3      1.0000 0.81238  0.92859  0.94147  Biso   1.000  Ba
  Ba4      1.0000 0.02915  0.80932  0.16637  Biso   1.000  Ba
  S5       1.0000 0.06000  0.39850  0.29990  Biso   1.000  S
  S6       1.0000 0.77970  0.82877  0.17196  Biso   1.000  S
  S7       1.0000 0.69220  0.16130  0.87974  Biso   1.000  S
  S8       1.0000 0.93181  0.06654  0.08852  Biso   1.000  S
  O26      1.0000 0.02640  0.39740  0.37980  Biso   1.000  O
  O27      1.0000 0.98900  0.67700  0.63200  Biso   1.000  O
  O28      1.0000 0.93620  0.69300  0.73500  Biso   1.000  O
  O29      1.0000 0.00800  0.64600  0.54200  Biso   1.000  O
  O30      1.0000 0.07900  0.36000  0.20800  Biso   1.000  O
  O31      1.0000 0.70320  0.90010  0.13130  Biso   1.000  O
  O32      1.0000 0.82970  0.85180  0.23740  Biso   1.000  O
  O33      1.0000 0.85410  0.79530  0.10200  Biso   1.000  O
  O34      1.0000 0.79790  0.12990  0.87300  Biso   1.000  O
  O35      1.0000 0.64570  0.07690  0.91200  Biso   1.000  O
  O36      1.0000 0.65540  0.23090  0.92890  Biso   1.000  O
  O37      1.0000 0.97310  0.13790  0.01860  Biso   1.000  O
  O38      1.0000 0.00880  0.00410  0.14330  Biso   1.000  O
  O39      1.0000 0.87680  0.01400  0.05410  Biso   1.000  O
  O40      1.0000 0.00400  0.05260  0.50170  Biso   1.000  O
  O41      1.0000 0.04100  0.17500  0.50600  Biso   1.000  O
  O42      1.0000 0.95900  0.11840  0.66800  Biso   1.000  O
  O43      1.0000 0.04810  0.64560  0.29680  Biso   1.000  O
  H38      1.0000 0.88560  0.37210  0.68590  Biso   1.000  H
  H39      1.0000 0.96740  0.40410  0.72580  Biso   1.000  H
  H40      1.0000 0.99600  0.34500  0.65170  Biso   1.000  H
  C41      1.0000 0.48660  0.37440  0.37460  Biso   1.000  C
  C42      1.0000 0.51720  0.47120  0.33860  Biso   1.000  C
  H41      1.0000 0.50390  0.49450  0.27550  Biso   1.000  H
  H42      1.0000 0.47820  0.51610  0.37150  Biso   1.000  H
  C43      1.0000 0.62600  0.46600  0.34760  Biso   1.000  C
  C44      1.0000 0.64750  0.42730  0.44600  Biso   1.000  C
  H43      1.0000 0.61130  0.47140  0.48110  Biso   1.000  H
  H44      1.0000 0.71690  0.42190  0.45150  Biso   1.000  H
  C45      1.0000 0.61870  0.32930  0.48390  Biso   1.000  C
  C46      1.0000 0.67890  0.26120  0.42550  Biso   1.000  C
  H45      1.0000 0.74830  0.25450  0.43210  Biso   1.000  H
  H46      1.0000 0.66160  0.19880  0.44730  Biso   1.000  H
  C47      1.0000 0.66020  0.29750  0.32620  Biso   1.000  C
  C48      1.0000 0.54840  0.30670  0.31910  Biso   1.000  C
  H47      1.0000 0.53390  0.33010  0.25640  Biso   1.000  H
  H48      1.0000 0.53080  0.24450  0.34040  Biso   1.000  H
  C49      1.0000 0.50870  0.33820  0.47380  Biso   1.000  C
  H49      1.0000 0.48990  0.27670  0.49750  Biso   1.000  H
  H50      1.0000 0.47040  0.38190  0.50840  Biso   1.000  H
  C50      1.0000 0.68560  0.39700  0.29090  Biso   1.000  C
  H51      1.0000 0.67090  0.42090  0.22830  Biso   1.000  H
  H52      1.0000 0.75520  0.39320  0.29400  Biso   1.000  H
  C51      1.0000 0.37620  0.38720  0.36170  Biso   1.000  C
  C52      1.0000 0.34490  0.41890  0.27500  Biso   1.000  C
  H53      1.0000 0.39000  0.43250  0.22590  Biso   1.000  H
  C53      1.0000 0.24620  0.43030  0.26160  Biso   1.000  C
  H54      1.0000 0.22520  0.45150  0.20360  Biso   1.000  H
  C54      1.0000 0.17870  0.41000  0.33500  Biso   1.000  C
  C55      1.0000 0.20990  0.37830  0.42170  Biso   1.000  C
  H55      1.0000 0.16480  0.36480  0.47080  Biso   1.000  H
  C56      1.0000 0.30870  0.36690  0.43510  Biso   1.000  C
  H56      1.0000 0.32960  0.34570  0.49310  Biso   1.000  H
  C57      1.0000 0.65780  0.56160  0.30870  Biso   1.000  C
  C58      1.0000 0.59790  0.64000  0.26390  Biso   1.000  C
  H57      1.0000 0.53250  0.63810  0.26040  Biso   1.000  H
  C59      1.0000 0.63370  0.72360  0.22290  Biso   1.000  C
  H58      1.0000 0.59200  0.77570  0.19090  Biso   1.000  H
  C60      1.0000 0.72810  0.72980  0.22900  Biso   1.000  C
  C61      1.0000 0.79040  0.65090  0.27790  Biso   1.000  C
  H59      1.0000 0.85540  0.65340  0.28270  Biso   1.000  H
  C62      1.0000 0.75400  0.57060  0.31810  Biso   1.000  C
  H60      1.0000 0.79430  0.51980  0.35320  Biso   1.000  H
  C63      1.0000 0.63700  0.28970  0.58360  Biso   1.000  C
  C64      1.0000 0.60960  0.20420  0.62900  Biso   1.000  C
  H61      1.0000 0.57990  0.17240  0.59810  Biso   1.000  H
  C65      1.0000 0.62530  0.16490  0.71880  Biso   1.000  C
  H62      1.0000 0.60860  0.10630  0.74710  Biso   1.000  H
  C66      1.0000 0.66500  0.21210  0.76540  Biso   1.000  C
  C67      1.0000 0.69330  0.29730  0.72420  Biso   1.000  C
  H63      1.0000 0.72070  0.32960  0.75650  Biso   1.000  H
  C68      1.0000 0.67970  0.33440  0.63200  Biso   1.000  C
  H64      1.0000 0.70030  0.39100  0.60300  Biso   1.000  H
  C69      1.0000 0.72420  0.23410  0.27010  Biso   1.000  C
  C70      1.0000 0.68890  0.19470  0.21030  Biso   1.000  C
  H65      1.0000 0.62140  0.20420  0.20660  Biso   1.000  H
  C71      1.0000 0.75060  0.14180  0.15620  Biso   1.000  C
  H66      1.0000 0.72490  0.11640  0.11670  Biso   1.000  H
  C72      1.0000 0.85010  0.12700  0.16110  Biso   1.000  C
  C73      1.0000 0.88890  0.16500  0.22030  Biso   1.000  C
  H67      1.0000 0.95640  0.15510  0.22380  Biso   1.000  H
  C74      1.0000 0.82500  0.21760  0.27390  Biso   1.000  C
  H68      1.0000 0.85070  0.24270  0.31370  Biso   1.000  H
  C75      1.0000 0.90020  0.15820  0.58980  Biso   1.000  C
  C76      1.0000 0.90100  0.09300  0.53410  Biso   1.000  C
  H69      1.0000 0.95490  0.03850  0.53800  Biso   1.000  H
  H70      1.0000 0.83900  0.08210  0.52150  Biso   1.000  H
  C77      1.0000 0.92900  0.20800  0.49200  Biso   1.000  C
  H71      1.0000 0.88110  0.25720  0.45910  Biso   1.000  H
  H72      1.0000 0.99740  0.21350  0.47570  Biso   1.000  H
  C78      1.0000 0.05450  0.00230  0.58220  Biso   1.000  C
  H73      1.0000 0.02140  0.95140  0.61600  Biso   1.000  H
  H74      1.0000 0.12140  0.97440  0.56520  Biso   1.000  H
  C79      1.0000 0.94800  0.26800  0.52400  Biso   1.000  C
  C80      1.0000 0.05490  0.07120  0.63940  Biso   1.000  C
  O44      1.0000 0.98750  0.51020  0.68600  Biso   1.000  O
  O45      1.0000 0.01100  0.50300  0.62800  Biso   1.000  O
  O46      1.0000 0.04300  0.50200  0.22000  Biso   1.000  O
  O47      1.0000 0.99900  0.48100  0.58600  Biso   1.000  O
  O48      1.0000 0.98250  0.51420  0.73500  Biso   1.000  O
  O49      1.0000 0.94840  0.47310  0.67670  Biso   1.000  O
  O50      1.0000 0.95000  0.48190  0.71000  Biso   1.000  O
