data_image0
_cell_length_a       23.412
_cell_length_b       11.374
_cell_length_c       19.755
_cell_angle_alpha    90
_cell_angle_beta     122.518
_cell_angle_gamma    90

_symmetry_space_group_name_H-M    "P 1"
_symmetry_int_tables_number       1

loop_
  _symmetry_equiv_pos_as_xyz
  'x, y, z'

loop_
  _atom_site_label
  _atom_site_occupancy
  _atom_site_fract_x
  _atom_site_fract_y
  _atom_site_fract_z
  _atom_site_thermal_displace_type
  _atom_site_B_iso_or_equiv
  _atom_site_type_symbol
  C1       1.0000 0.52521  0.11130  0.50490  Biso   1.000  C
  C2       1.0000 0.54224  0.91230  0.54910  Biso   1.000  C
  C3       1.0000 0.56827  0.02380  0.55560  Biso   1.000  C
  C4       1.0000 0.64210  0.04970  0.61480  Biso   1.000  C
  N1       1.0000 0.99500  0.92770  0.92760  Biso   1.000  N
  O1       1.0000 0.88220  0.83450  0.81130  Biso   1.000  O
  C5       1.0000 0.02560  0.83040  0.91050  Biso   1.000  C
  C6       1.0000 0.03280  0.00470  0.99470  Biso   1.000  C
  C7       1.0000 0.92440  0.94190  0.86590  Biso   1.000  C
  Mn1      1.0000 0.78494  0.92203  0.73594  Biso   1.000  Mn
  O2       1.0000 0.66356  0.15020  0.61526  Biso   1.000  O
  O3       1.0000 0.67719  0.96770  0.66030  Biso   1.000  O
  O4       1.0000 0.54680  0.20870  0.50200  Biso   1.000  O
  H1       1.0000 0.51850  0.24230  0.46060  Biso   1.000  H
  C8       1.0000 0.79351  0.03410  0.59379  Biso   1.000  C
  C9       1.0000 0.79580  0.99090  0.52341  Biso   1.000  C
  C10      1.0000 0.78865  0.06770  0.46468  Biso   1.000  C
  H2       1.0000 0.78550  0.14790  0.47120  Biso   1.000  H
  C11      1.0000 0.80170  0.87050  0.51570  Biso   1.000  C
  H3       1.0000 0.80900  0.81900  0.55620  Biso   1.000  H
  C12      1.0000 0.78605  0.02800  0.39548  Biso   1.000  C
  C13      1.0000 0.78893  0.90470  0.38732  Biso   1.000  C
  C14      1.0000 0.79657  0.82880  0.44700  Biso   1.000  C
  H4       1.0000 0.79820  0.74820  0.44040  Biso   1.000  H
  C15      1.0000 0.78214  0.85030  0.31538  Biso   1.000  C
  Mn2      1.0000 0.76361  0.22565  0.67474  Biso   1.000  Mn
  O5       1.0000 0.80045  0.96000  0.64350  Biso   1.000  O
  O6       1.0000 0.80402  0.90031  0.27687  Biso   1.000  O
  O7       1.0000 0.75544  0.75160  0.29300  Biso   1.000  O
  O8       1.0000 0.78398  0.14180  0.59730  Biso   1.000  O
  O9       1.0000 0.77851  0.10424  0.34120  Biso   1.000  O
  O10      1.0000 0.89320  0.88950  0.81290  Biso   1.000  O
  O11      1.0000 0.57720  0.83000  0.58760  Biso   1.000  O
  H5       1.0000 0.60710  0.85250  0.63240  Biso   1.000  H
  C16      1.0000 0.02521  0.61130  0.50490  Biso   1.000  C
  C17      1.0000 0.04224  0.41230  0.54910  Biso   1.000  C
  C18      1.0000 0.06827  0.52380  0.55560  Biso   1.000  C
  C19      1.0000 0.14210  0.54970  0.61480  Biso   1.000  C
  N2       1.0000 0.49500  0.42770  0.92760  Biso   1.000  N
  O12      1.0000 0.38220  0.33450  0.81130  Biso   1.000  O
  C20      1.0000 0.52560  0.33040  0.91050  Biso   1.000  C
  C21      1.0000 0.53280  0.50470  0.99470  Biso   1.000  C
  C22      1.0000 0.42440  0.44190  0.86590  Biso   1.000  C
  Mn3      1.0000 0.28494  0.42203  0.73594  Biso   1.000  Mn
  O13      1.0000 0.16356  0.65020  0.61526  Biso   1.000  O
  O14      1.0000 0.17719  0.46770  0.66030  Biso   1.000  O
  O15      1.0000 0.04680  0.70870  0.50200  Biso   1.000  O
  H6       1.0000 0.01850  0.74230  0.46060  Biso   1.000  H
  C23      1.0000 0.29351  0.53410  0.59379  Biso   1.000  C
  C24      1.0000 0.29580  0.49090  0.52341  Biso   1.000  C
  C25      1.0000 0.28865  0.56770  0.46468  Biso   1.000  C
  H7       1.0000 0.28550  0.64790  0.47120  Biso   1.000  H
  C26      1.0000 0.30170  0.37050  0.51570  Biso   1.000  C
  H8       1.0000 0.30900  0.31900  0.55620  Biso   1.000  H
  C27      1.0000 0.28605  0.52800  0.39548  Biso   1.000  C
  C28      1.0000 0.28893  0.40470  0.38732  Biso   1.000  C
  C29      1.0000 0.29657  0.32880  0.44700  Biso   1.000  C
  H9       1.0000 0.29820  0.24820  0.44040  Biso   1.000  H
  C30      1.0000 0.28214  0.35030  0.31538  Biso   1.000  C
  Mn4      1.0000 0.26361  0.72565  0.67474  Biso   1.000  Mn
  O16      1.0000 0.30045  0.46000  0.64350  Biso   1.000  O
  O17      1.0000 0.30402  0.40031  0.27687  Biso   1.000  O
  O18      1.0000 0.25544  0.25160  0.29300  Biso   1.000  O
  O19      1.0000 0.28398  0.64180  0.59730  Biso   1.000  O
  O20      1.0000 0.27851  0.60424  0.34120  Biso   1.000  O
  O21      1.0000 0.39320  0.38950  0.81290  Biso   1.000  O
  O22      1.0000 0.07720  0.33000  0.58760  Biso   1.000  O
  H10      1.0000 0.10710  0.35250  0.63240  Biso   1.000  H
  C31      1.0000 0.47479  0.11130  0.99510  Biso   1.000  C
  C32      1.0000 0.45776  0.91230  0.95090  Biso   1.000  C
  C33      1.0000 0.43173  0.02380  0.94440  Biso   1.000  C
  C34      1.0000 0.35790  0.04970  0.88520  Biso   1.000  C
  N3       1.0000 0.00500  0.92770  0.57240  Biso   1.000  N
  O23      1.0000 0.11780  0.83450  0.68870  Biso   1.000  O
  C35      1.0000 0.97440  0.83040  0.58950  Biso   1.000  C
  C36      1.0000 0.96720  0.00470  0.50530  Biso   1.000  C
  C37      1.0000 0.07560  0.94190  0.63410  Biso   1.000  C
  Mn5      1.0000 0.21506  0.92203  0.76406  Biso   1.000  Mn
  O24      1.0000 0.33644  0.15020  0.88474  Biso   1.000  O
  O25      1.0000 0.32281  0.96770  0.83970  Biso   1.000  O
  O26      1.0000 0.45320  0.20870  0.99800  Biso   1.000  O
  H11      1.0000 0.48150  0.24230  0.03940  Biso   1.000  H
  C38      1.0000 0.20649  0.03410  0.90621  Biso   1.000  C
  C39      1.0000 0.20420  0.99090  0.97659  Biso   1.000  C
  C40      1.0000 0.21135  0.06770  0.03532  Biso   1.000  C
  H12      1.0000 0.21450  0.14790  0.02880  Biso   1.000  H
  C41      1.0000 0.19830  0.87050  0.98430  Biso   1.000  C
  H13      1.0000 0.19100  0.81900  0.94380  Biso   1.000  H
  C42      1.0000 0.21395  0.02800  0.10452  Biso   1.000  C
  C43      1.0000 0.21107  0.90470  0.11268  Biso   1.000  C
  C44      1.0000 0.20343  0.82880  0.05300  Biso   1.000  C
  H14      1.0000 0.20180  0.74820  0.05960  Biso   1.000  H
  C45      1.0000 0.21786  0.85030  0.18462  Biso   1.000  C
  Mn6      1.0000 0.23639  0.22565  0.82526  Biso   1.000  Mn
  O27      1.0000 0.19955  0.96000  0.85650  Biso   1.000  O
  O28      1.0000 0.19598  0.90031  0.22313  Biso   1.000  O
  O29      1.0000 0.24456  0.75160  0.20700  Biso   1.000  O
  O30      1.0000 0.21602  0.14180  0.90270  Biso   1.000  O
  O31      1.0000 0.22149  0.10424  0.15880  Biso   1.000  O
  O32      1.0000 0.10680  0.88950  0.68710  Biso   1.000  O
  O33      1.0000 0.42280  0.83000  0.91240  Biso   1.000  O
  H15      1.0000 0.39290  0.85250  0.86760  Biso   1.000  H
  C46      1.0000 0.97479  0.61130  0.99510  Biso   1.000  C
  C47      1.0000 0.95776  0.41230  0.95090  Biso   1.000  C
  C48      1.0000 0.93173  0.52380  0.94440  Biso   1.000  C
  C49      1.0000 0.85790  0.54970  0.88520  Biso   1.000  C
  N4       1.0000 0.50500  0.42770  0.57240  Biso   1.000  N
  O34      1.0000 0.61780  0.33450  0.68870  Biso   1.000  O
  C50      1.0000 0.47440  0.33040  0.58950  Biso   1.000  C
  C51      1.0000 0.46720  0.50470  0.50530  Biso   1.000  C
  C52      1.0000 0.57560  0.44190  0.63410  Biso   1.000  C
  Mn7      1.0000 0.71506  0.42203  0.76406  Biso   1.000  Mn
  O35      1.0000 0.83644  0.65020  0.88474  Biso   1.000  O
  O36      1.0000 0.82281  0.46770  0.83970  Biso   1.000  O
  O37      1.0000 0.95320  0.70870  0.99800  Biso   1.000  O
  H16      1.0000 0.98150  0.74230  0.03940  Biso   1.000  H
  C53      1.0000 0.70649  0.53410  0.90621  Biso   1.000  C
  C54      1.0000 0.70420  0.49090  0.97659  Biso   1.000  C
  C55      1.0000 0.71135  0.56770  0.03532  Biso   1.000  C
  H17      1.0000 0.71450  0.64790  0.02880  Biso   1.000  H
  C56      1.0000 0.69830  0.37050  0.98430  Biso   1.000  C
  H18      1.0000 0.69100  0.31900  0.94380  Biso   1.000  H
  C57      1.0000 0.71395  0.52800  0.10452  Biso   1.000  C
  C58      1.0000 0.71107  0.40470  0.11268  Biso   1.000  C
  C59      1.0000 0.70343  0.32880  0.05300  Biso   1.000  C
  H19      1.0000 0.70180  0.24820  0.05960  Biso   1.000  H
  C60      1.0000 0.71786  0.35030  0.18462  Biso   1.000  C
  Mn8      1.0000 0.73639  0.72565  0.82526  Biso   1.000  Mn
  O38      1.0000 0.69955  0.46000  0.85650  Biso   1.000  O
  O39      1.0000 0.69598  0.40031  0.22313  Biso   1.000  O
  O40      1.0000 0.74456  0.25160  0.20700  Biso   1.000  O
  O41      1.0000 0.71602  0.64180  0.90270  Biso   1.000  O
  O42      1.0000 0.72149  0.60424  0.15880  Biso   1.000  O
  O43      1.0000 0.60680  0.38950  0.68710  Biso   1.000  O
  O44      1.0000 0.92280  0.33000  0.91240  Biso   1.000  O
  H20      1.0000 0.89290  0.35250  0.86760  Biso   1.000  H
  C61      1.0000 0.47479  0.88870  0.49510  Biso   1.000  C
  C62      1.0000 0.45776  0.08770  0.45090  Biso   1.000  C
  C63      1.0000 0.43173  0.97620  0.44440  Biso   1.000  C
  C64      1.0000 0.35790  0.95030  0.38520  Biso   1.000  C
  N5       1.0000 0.00500  0.07230  0.07240  Biso   1.000  N
  O45      1.0000 0.11780  0.16550  0.18870  Biso   1.000  O
  C65      1.0000 0.97440  0.16960  0.08950  Biso   1.000  C
  C66      1.0000 0.96720  0.99530  0.00530  Biso   1.000  C
  C67      1.0000 0.07560  0.05810  0.13410  Biso   1.000  C
  Mn9      1.0000 0.21506  0.07797  0.26406  Biso   1.000  Mn
  O46      1.0000 0.33644  0.84980  0.38474  Biso   1.000  O
  O47      1.0000 0.32281  0.03230  0.33970  Biso   1.000  O
  O48      1.0000 0.45320  0.79130  0.49800  Biso   1.000  O
  H21      1.0000 0.48150  0.75770  0.53940  Biso   1.000  H
  C68      1.0000 0.20649  0.96590  0.40621  Biso   1.000  C
  C69      1.0000 0.20420  0.00910  0.47659  Biso   1.000  C
  C70      1.0000 0.21135  0.93230  0.53532  Biso   1.000  C
  H22      1.0000 0.21450  0.85210  0.52880  Biso   1.000  H
  C71      1.0000 0.19830  0.12950  0.48430  Biso   1.000  C
  H23      1.0000 0.19100  0.18100  0.44380  Biso   1.000  H
  C72      1.0000 0.21395  0.97200  0.60452  Biso   1.000  C
  C73      1.0000 0.21107  0.09530  0.61268  Biso   1.000  C
  C74      1.0000 0.20343  0.17120  0.55300  Biso   1.000  C
  H24      1.0000 0.20180  0.25180  0.55960  Biso   1.000  H
  C75      1.0000 0.21786  0.14970  0.68462  Biso   1.000  C
  Mn10     1.0000 0.23639  0.77435  0.32526  Biso   1.000  Mn
  O49      1.0000 0.19955  0.04000  0.35650  Biso   1.000  O
  O50      1.0000 0.19598  0.09969  0.72313  Biso   1.000  O
  O51      1.0000 0.24456  0.24840  0.70700  Biso   1.000  O
  O52      1.0000 0.21602  0.85820  0.40270  Biso   1.000  O
  O53      1.0000 0.22149  0.89576  0.65880  Biso   1.000  O
  O54      1.0000 0.10680  0.11050  0.18710  Biso   1.000  O
  O55      1.0000 0.42280  0.17000  0.41240  Biso   1.000  O
  H25      1.0000 0.39290  0.14750  0.36760  Biso   1.000  H
  C76      1.0000 0.97479  0.38870  0.49510  Biso   1.000  C
  C77      1.0000 0.95776  0.58770  0.45090  Biso   1.000  C
  C78      1.0000 0.93173  0.47620  0.44440  Biso   1.000  C
  C79      1.0000 0.85790  0.45030  0.38520  Biso   1.000  C
  N6       1.0000 0.50500  0.57230  0.07240  Biso   1.000  N
  O56      1.0000 0.61780  0.66550  0.18870  Biso   1.000  O
  C80      1.0000 0.47440  0.66960  0.08950  Biso   1.000  C
  C81      1.0000 0.46720  0.49530  0.00530  Biso   1.000  C
  C82      1.0000 0.57560  0.55810  0.13410  Biso   1.000  C
  Mn11     1.0000 0.71506  0.57797  0.26406  Biso   1.000  Mn
  O57      1.0000 0.83644  0.34980  0.38474  Biso   1.000  O
  O58      1.0000 0.82281  0.53230  0.33970  Biso   1.000  O
  O59      1.0000 0.95320  0.29130  0.49800  Biso   1.000  O
  H26      1.0000 0.98150  0.25770  0.53940  Biso   1.000  H
  C83      1.0000 0.70649  0.46590  0.40621  Biso   1.000  C
  C84      1.0000 0.70420  0.50910  0.47659  Biso   1.000  C
  C85      1.0000 0.71135  0.43230  0.53532  Biso   1.000  C
  H27      1.0000 0.71450  0.35210  0.52880  Biso   1.000  H
  C86      1.0000 0.69830  0.62950  0.48430  Biso   1.000  C
  H28      1.0000 0.69100  0.68100  0.44380  Biso   1.000  H
  C87      1.0000 0.71395  0.47200  0.60452  Biso   1.000  C
  C88      1.0000 0.71107  0.59530  0.61268  Biso   1.000  C
  C89      1.0000 0.70343  0.67120  0.55300  Biso   1.000  C
  H29      1.0000 0.70180  0.75180  0.55960  Biso   1.000  H
  C90      1.0000 0.71786  0.64970  0.68462  Biso   1.000  C
  Mn12     1.0000 0.73639  0.27435  0.32526  Biso   1.000  Mn
  O60      1.0000 0.69955  0.54000  0.35650  Biso   1.000  O
  O61      1.0000 0.69598  0.59969  0.72313  Biso   1.000  O
  O62      1.0000 0.74456  0.74840  0.70700  Biso   1.000  O
  O63      1.0000 0.71602  0.35820  0.40270  Biso   1.000  O
  O64      1.0000 0.72149  0.39576  0.65880  Biso   1.000  O
  O65      1.0000 0.60680  0.61050  0.18710  Biso   1.000  O
  O66      1.0000 0.92280  0.67000  0.41240  Biso   1.000  O
  H30      1.0000 0.89290  0.64750  0.36760  Biso   1.000  H
  C91      1.0000 0.52521  0.88870  0.00490  Biso   1.000  C
  C92      1.0000 0.54224  0.08770  0.04910  Biso   1.000  C
  C93      1.0000 0.56827  0.97620  0.05560  Biso   1.000  C
  C94      1.0000 0.64210  0.95030  0.11480  Biso   1.000  C
  N7       1.0000 0.99500  0.07230  0.42760  Biso   1.000  N
  O67      1.0000 0.88220  0.16550  0.31130  Biso   1.000  O
  C95      1.0000 0.02560  0.16960  0.41050  Biso   1.000  C
  C96      1.0000 0.03280  0.99530  0.49470  Biso   1.000  C
  C97      1.0000 0.92440  0.05810  0.36590  Biso   1.000  C
  Mn13     1.0000 0.78494  0.07797  0.23594  Biso   1.000  Mn
  O68      1.0000 0.66356  0.84980  0.11526  Biso   1.000  O
  O69      1.0000 0.67719  0.03230  0.16030  Biso   1.000  O
  O70      1.0000 0.54680  0.79130  0.00200  Biso   1.000  O
  H31      1.0000 0.51850  0.75770  0.96060  Biso   1.000  H
  C98      1.0000 0.79351  0.96590  0.09379  Biso   1.000  C
  C99      1.0000 0.79580  0.00910  0.02341  Biso   1.000  C
  C100     1.0000 0.78865  0.93230  0.96468  Biso   1.000  C
  H32      1.0000 0.78550  0.85210  0.97120  Biso   1.000  H
  C101     1.0000 0.80170  0.12950  0.01570  Biso   1.000  C
  H33      1.0000 0.80900  0.18100  0.05620  Biso   1.000  H
  C102     1.0000 0.78605  0.97200  0.89548  Biso   1.000  C
  C103     1.0000 0.78893  0.09530  0.88732  Biso   1.000  C
  C104     1.0000 0.79657  0.17120  0.94700  Biso   1.000  C
  H34      1.0000 0.79820  0.25180  0.94040  Biso   1.000  H
  C105     1.0000 0.78214  0.14970  0.81538  Biso   1.000  C
  Mn14     1.0000 0.76361  0.77435  0.17474  Biso   1.000  Mn
  O71      1.0000 0.80045  0.04000  0.14350  Biso   1.000  O
  O72      1.0000 0.80402  0.09969  0.77687  Biso   1.000  O
  O73      1.0000 0.75544  0.24840  0.79300  Biso   1.000  O
  O74      1.0000 0.78398  0.85820  0.09730  Biso   1.000  O
  O75      1.0000 0.77851  0.89576  0.84120  Biso   1.000  O
  O76      1.0000 0.89320  0.11050  0.31290  Biso   1.000  O
  O77      1.0000 0.57720  0.17000  0.08760  Biso   1.000  O
  H35      1.0000 0.60710  0.14750  0.13240  Biso   1.000  H
  C106     1.0000 0.02521  0.38870  0.00490  Biso   1.000  C
  C107     1.0000 0.04224  0.58770  0.04910  Biso   1.000  C
  C108     1.0000 0.06827  0.47620  0.05560  Biso   1.000  C
  C109     1.0000 0.14210  0.45030  0.11480  Biso   1.000  C
  N8       1.0000 0.49500  0.57230  0.42760  Biso   1.000  N
  O78      1.0000 0.38220  0.66550  0.31130  Biso   1.000  O
  C110     1.0000 0.52560  0.66960  0.41050  Biso   1.000  C
  C111     1.0000 0.53280  0.49530  0.49470  Biso   1.000  C
  C112     1.0000 0.42440  0.55810  0.36590  Biso   1.000  C
  Mn15     1.0000 0.28494  0.57797  0.23594  Biso   1.000  Mn
  O79      1.0000 0.16356  0.34980  0.11526  Biso   1.000  O
  O80      1.0000 0.17719  0.53230  0.16030  Biso   1.000  O
  O81      1.0000 0.04680  0.29130  0.00200  Biso   1.000  O
  H36      1.0000 0.01850  0.25770  0.96060  Biso   1.000  H
  C113     1.0000 0.29351  0.46590  0.09379  Biso   1.000  C
  C114     1.0000 0.29580  0.50910  0.02341  Biso   1.000  C
  C115     1.0000 0.28865  0.43230  0.96468  Biso   1.000  C
  H37      1.0000 0.28550  0.35210  0.97120  Biso   1.000  H
  C116     1.0000 0.30170  0.62950  0.01570  Biso   1.000  C
  H38      1.0000 0.30900  0.68100  0.05620  Biso   1.000  H
  C117     1.0000 0.28605  0.47200  0.89548  Biso   1.000  C
  C118     1.0000 0.28893  0.59530  0.88732  Biso   1.000  C
  C119     1.0000 0.29657  0.67120  0.94700  Biso   1.000  C
  H39      1.0000 0.29820  0.75180  0.94040  Biso   1.000  H
  C120     1.0000 0.28214  0.64970  0.81538  Biso   1.000  C
  Mn16     1.0000 0.26361  0.27435  0.17474  Biso   1.000  Mn
  O82      1.0000 0.30045  0.54000  0.14350  Biso   1.000  O
  O83      1.0000 0.30402  0.59969  0.77687  Biso   1.000  O
  O84      1.0000 0.25544  0.74840  0.79300  Biso   1.000  O
  O85      1.0000 0.28398  0.35820  0.09730  Biso   1.000  O
  O86      1.0000 0.27851  0.39576  0.84120  Biso   1.000  O
  O87      1.0000 0.39320  0.61050  0.31290  Biso   1.000  O
  O88      1.0000 0.07720  0.67000  0.08760  Biso   1.000  O
  H40      1.0000 0.10710  0.64750  0.13240  Biso   1.000  H
