data_image0
_cell_length_a       9.42
_cell_length_b       9.42
_cell_length_c       10.242
_cell_angle_alpha    90
_cell_angle_beta     90
_cell_angle_gamma    120

_symmetry_space_group_name_H-M    "P 1"
_symmetry_int_tables_number       1

loop_
  _symmetry_equiv_pos_as_xyz
  'x, y, z'

loop_
  _atom_site_label
  _atom_site_occupancy
  _atom_site_fract_x
  _atom_site_fract_y
  _atom_site_fract_z
  _atom_site_thermal_displace_type
  _atom_site_B_iso_or_equiv
  _atom_site_type_symbol
  Co1      1.0000 0.66420  0.66520  0.50380  Biso   1.000  Co
  O1       1.0000 0.76630  0.88270  0.38030  Biso   1.000  O
  H1       1.0000 0.70580  0.85060  0.29760  Biso   1.000  H
  O2       1.0000 0.77790  0.55920  0.40020  Biso   1.000  O
  H2       1.0000 0.77580  0.55910  0.30450  Biso   1.000  H
  O3       1.0000 0.88900  0.44500  0.60590  Biso   1.000  O
  H3       1.0000 0.89010  0.44770  0.70160  Biso   1.000  H
  H4       1.0000 0.93590  0.89000  0.13200  Biso   1.000  H
  C1       1.0000 0.15000  0.09900  0.06790  Biso   1.000  C
  H5       1.0000 0.22000  0.19910  0.11520  Biso   1.000  H
  H6       1.0000 0.20840  0.03860  0.06000  Biso   1.000  H
  C2       1.0000 0.88100  0.85800  0.06790  Biso   1.000  C
  H7       1.0000 0.21900  0.13970  0.06000  Biso   1.000  H
  H8       1.0000 0.19640  0.97450  0.11520  Biso   1.000  H
  Co2      1.0000 0.33480  0.99900  0.50380  Biso   1.000  Co
  O4       1.0000 0.11730  0.88360  0.38030  Biso   1.000  O
  H9       1.0000 0.14940  0.85520  0.29760  Biso   1.000  H
  O5       1.0000 0.44080  0.21870  0.40020  Biso   1.000  O
  H10      1.0000 0.44090  0.21670  0.30450  Biso   1.000  H
  O6       1.0000 0.55500  0.44400  0.60590  Biso   1.000  O
  H11      1.0000 0.55230  0.44240  0.70160  Biso   1.000  H
  H12      1.0000 0.11000  0.04590  0.13200  Biso   1.000  H
  C3       1.0000 0.90100  0.05100  0.06790  Biso   1.000  C
  H13      1.0000 0.80090  0.02090  0.11520  Biso   1.000  H
  H14      1.0000 0.96140  0.16980  0.06000  Biso   1.000  H
  C4       1.0000 0.14200  0.02300  0.06790  Biso   1.000  C
  H15      1.0000 0.86030  0.07930  0.06000  Biso   1.000  H
  H16      1.0000 0.02550  0.22190  0.11520  Biso   1.000  H
  Co3      1.0000 0.00100  0.33580  0.50380  Biso   1.000  Co
  O7       1.0000 0.11640  0.23370  0.38030  Biso   1.000  O
  H17      1.0000 0.14480  0.29420  0.29760  Biso   1.000  H
  O8       1.0000 0.78130  0.22210  0.40020  Biso   1.000  O
  H18      1.0000 0.78330  0.22420  0.30450  Biso   1.000  H
  O9       1.0000 0.55600  0.11100  0.60590  Biso   1.000  O
  H19      1.0000 0.55760  0.10990  0.70160  Biso   1.000  H
  H20      1.0000 0.95410  0.06410  0.13200  Biso   1.000  H
  C5       1.0000 0.94900  0.85000  0.06790  Biso   1.000  C
  H21      1.0000 0.97910  0.78000  0.11520  Biso   1.000  H
  H22      1.0000 0.83020  0.79160  0.06000  Biso   1.000  H
  C6       1.0000 0.97700  0.11900  0.06790  Biso   1.000  C
  H23      1.0000 0.92070  0.78100  0.06000  Biso   1.000  H
  H24      1.0000 0.77810  0.80360  0.11520  Biso   1.000  H
  Co4      1.0000 0.33580  0.33480  0.49620  Biso   1.000  Co
  O10      1.0000 0.23370  0.11730  0.61970  Biso   1.000  O
  H25      1.0000 0.29420  0.14940  0.70240  Biso   1.000  H
  O11      1.0000 0.22210  0.44080  0.59980  Biso   1.000  O
  H26      1.0000 0.22420  0.44090  0.69550  Biso   1.000  H
  O12      1.0000 0.11100  0.55500  0.39410  Biso   1.000  O
  H27      1.0000 0.10990  0.55230  0.29840  Biso   1.000  H
  H28      1.0000 0.06410  0.11000  0.86800  Biso   1.000  H
  C7       1.0000 0.85000  0.90100  0.93210  Biso   1.000  C
  H29      1.0000 0.78000  0.80090  0.88480  Biso   1.000  H
  H30      1.0000 0.79160  0.96140  0.94000  Biso   1.000  H
  C8       1.0000 0.11900  0.14200  0.93210  Biso   1.000  C
  H31      1.0000 0.78100  0.86030  0.94000  Biso   1.000  H
  H32      1.0000 0.80360  0.02550  0.88480  Biso   1.000  H
  Co5      1.0000 0.66520  0.00100  0.49620  Biso   1.000  Co
  O13      1.0000 0.88270  0.11640  0.61970  Biso   1.000  O
  H33      1.0000 0.85060  0.14480  0.70240  Biso   1.000  H
  O14      1.0000 0.55920  0.78130  0.59980  Biso   1.000  O
  H34      1.0000 0.55910  0.78330  0.69550  Biso   1.000  H
  O15      1.0000 0.44500  0.55600  0.39410  Biso   1.000  O
  H35      1.0000 0.44770  0.55760  0.29840  Biso   1.000  H
  H36      1.0000 0.89000  0.95410  0.86800  Biso   1.000  H
  C9       1.0000 0.09900  0.94900  0.93210  Biso   1.000  C
  H37      1.0000 0.19910  0.97910  0.88480  Biso   1.000  H
  H38      1.0000 0.03860  0.83020  0.94000  Biso   1.000  H
  C10      1.0000 0.85800  0.97700  0.93210  Biso   1.000  C
  H39      1.0000 0.13970  0.92070  0.94000  Biso   1.000  H
  H40      1.0000 0.97450  0.77810  0.88480  Biso   1.000  H
  Co6      1.0000 0.99900  0.66420  0.49620  Biso   1.000  Co
  O16      1.0000 0.88360  0.76630  0.61970  Biso   1.000  O
  H41      1.0000 0.85520  0.70580  0.70240  Biso   1.000  H
  O17      1.0000 0.21870  0.77790  0.59980  Biso   1.000  O
  H42      1.0000 0.21670  0.77580  0.69550  Biso   1.000  H
  O18      1.0000 0.44400  0.88900  0.39410  Biso   1.000  O
  H43      1.0000 0.44240  0.89010  0.29840  Biso   1.000  H
  H44      1.0000 0.04590  0.93590  0.86800  Biso   1.000  H
  C11      1.0000 0.05100  0.15000  0.93210  Biso   1.000  C
  H45      1.0000 0.02090  0.22000  0.88480  Biso   1.000  H
  H46      1.0000 0.16980  0.20840  0.94000  Biso   1.000  H
  C12      1.0000 0.02300  0.88100  0.93210  Biso   1.000  C
  H47      1.0000 0.07930  0.21900  0.94000  Biso   1.000  H
  H48      1.0000 0.22190  0.19640  0.88480  Biso   1.000  H
  Co7      1.0000 0.66667  0.33333  0.50260  Biso   1.000  Co
  Co8      1.0000 0.33333  0.66667  0.49740  Biso   1.000  Co
  Co9      1.0000 0.00000  0.00000  0.33750  Biso   1.000  Co
  N1       1.0000 0.00000  0.00000  0.14400  Biso   1.000  N
  Co10     1.0000 0.00000  0.00000  0.66250  Biso   1.000  Co
  N2       1.0000 0.00000  0.00000  0.85600  Biso   1.000  N
