data_image0
_cell_length_a       18.794
_cell_length_b       18.794
_cell_length_c       18.794
_cell_angle_alpha    90
_cell_angle_beta     90
_cell_angle_gamma    90

_symmetry_space_group_name_H-M    "P 1"
_symmetry_int_tables_number       1

loop_
  _symmetry_equiv_pos_as_xyz
  'x, y, z'

loop_
  _atom_site_label
  _atom_site_occupancy
  _atom_site_fract_x
  _atom_site_fract_y
  _atom_site_fract_z
  _atom_site_thermal_displace_type
  _atom_site_B_iso_or_equiv
  _atom_site_type_symbol
  N1       1.0000 0.07569  0.42227  0.37154  Biso   1.000  N
  N2       1.0000 0.12670  0.40570  0.33010  Biso   1.000  N
  C1       1.0000 0.13710  0.41810  0.32830  Biso   1.000  C
  H1       1.0000 0.15340  0.44950  0.29210  Biso   1.000  H
  N3       1.0000 0.92431  0.57773  0.37154  Biso   1.000  N
  N4       1.0000 0.87330  0.59430  0.33010  Biso   1.000  N
  C2       1.0000 0.86290  0.58190  0.32830  Biso   1.000  C
  H2       1.0000 0.84660  0.55050  0.29210  Biso   1.000  H
  N5       1.0000 0.92431  0.42227  0.62846  Biso   1.000  N
  N6       1.0000 0.87330  0.40570  0.66990  Biso   1.000  N
  C3       1.0000 0.86290  0.41810  0.67170  Biso   1.000  C
  H3       1.0000 0.84660  0.44950  0.70790  Biso   1.000  H
  N7       1.0000 0.07569  0.57773  0.62846  Biso   1.000  N
  N8       1.0000 0.12670  0.59430  0.66990  Biso   1.000  N
  C4       1.0000 0.13710  0.58190  0.67170  Biso   1.000  C
  H4       1.0000 0.15340  0.55050  0.70790  Biso   1.000  H
  N9       1.0000 0.37154  0.07569  0.42227  Biso   1.000  N
  N10      1.0000 0.33010  0.12670  0.40570  Biso   1.000  N
  C5       1.0000 0.32830  0.13710  0.41810  Biso   1.000  C
  H5       1.0000 0.29210  0.15340  0.44950  Biso   1.000  H
  N11      1.0000 0.37154  0.92431  0.57773  Biso   1.000  N
  N12      1.0000 0.33010  0.87330  0.59430  Biso   1.000  N
  C6       1.0000 0.32830  0.86290  0.58190  Biso   1.000  C
  H6       1.0000 0.29210  0.84660  0.55050  Biso   1.000  H
  N13      1.0000 0.62846  0.92431  0.42227  Biso   1.000  N
  N14      1.0000 0.66990  0.87330  0.40570  Biso   1.000  N
  C7       1.0000 0.67170  0.86290  0.41810  Biso   1.000  C
  H7       1.0000 0.70790  0.84660  0.44950  Biso   1.000  H
  N15      1.0000 0.62846  0.07569  0.57773  Biso   1.000  N
  N16      1.0000 0.66990  0.12670  0.59430  Biso   1.000  N
  C8       1.0000 0.67170  0.13710  0.58190  Biso   1.000  C
  H8       1.0000 0.70790  0.15340  0.55050  Biso   1.000  H
  N17      1.0000 0.42227  0.37154  0.07569  Biso   1.000  N
  N18      1.0000 0.40570  0.33010  0.12670  Biso   1.000  N
  C9       1.0000 0.41810  0.32830  0.13710  Biso   1.000  C
  H9       1.0000 0.44950  0.29210  0.15340  Biso   1.000  H
  N19      1.0000 0.57773  0.37154  0.92431  Biso   1.000  N
  N20      1.0000 0.59430  0.33010  0.87330  Biso   1.000  N
  C10      1.0000 0.58190  0.32830  0.86290  Biso   1.000  C
  H10      1.0000 0.55050  0.29210  0.84660  Biso   1.000  H
  N21      1.0000 0.42227  0.62846  0.92431  Biso   1.000  N
  N22      1.0000 0.40570  0.66990  0.87330  Biso   1.000  N
  C11      1.0000 0.41810  0.67170  0.86290  Biso   1.000  C
  H11      1.0000 0.44950  0.70790  0.84660  Biso   1.000  H
  N23      1.0000 0.57773  0.62846  0.07569  Biso   1.000  N
  N24      1.0000 0.59430  0.66990  0.12670  Biso   1.000  N
  C12      1.0000 0.58190  0.67170  0.13710  Biso   1.000  C
  H12      1.0000 0.55050  0.70790  0.15340  Biso   1.000  H
  N25      1.0000 0.42227  0.07569  0.62846  Biso   1.000  N
  N26      1.0000 0.40570  0.12670  0.66990  Biso   1.000  N
  C13      1.0000 0.41810  0.13710  0.67170  Biso   1.000  C
  H13      1.0000 0.44950  0.15340  0.70790  Biso   1.000  H
  N27      1.0000 0.57773  0.92431  0.62846  Biso   1.000  N
  N28      1.0000 0.59430  0.87330  0.66990  Biso   1.000  N
  C14      1.0000 0.58190  0.86290  0.67170  Biso   1.000  C
  H14      1.0000 0.55050  0.84660  0.70790  Biso   1.000  H
  N29      1.0000 0.42227  0.92431  0.37154  Biso   1.000  N
  N30      1.0000 0.40570  0.87330  0.33010  Biso   1.000  N
  C15      1.0000 0.41810  0.86290  0.32830  Biso   1.000  C
  H15      1.0000 0.44950  0.84660  0.29210  Biso   1.000  H
  N31      1.0000 0.57773  0.07569  0.37154  Biso   1.000  N
  N32      1.0000 0.59430  0.12670  0.33010  Biso   1.000  N
  C16      1.0000 0.58190  0.13710  0.32830  Biso   1.000  C
  H16      1.0000 0.55050  0.15340  0.29210  Biso   1.000  H
  N33      1.0000 0.07569  0.37154  0.57773  Biso   1.000  N
  N34      1.0000 0.12670  0.33010  0.59430  Biso   1.000  N
  C17      1.0000 0.13710  0.32830  0.58190  Biso   1.000  C
  H17      1.0000 0.15340  0.29210  0.55050  Biso   1.000  H
  N35      1.0000 0.92431  0.37154  0.42227  Biso   1.000  N
  N36      1.0000 0.87330  0.33010  0.40570  Biso   1.000  N
  C18      1.0000 0.86290  0.32830  0.41810  Biso   1.000  C
  H18      1.0000 0.84660  0.29210  0.44950  Biso   1.000  H
  N37      1.0000 0.92431  0.62846  0.57773  Biso   1.000  N
  N38      1.0000 0.87330  0.66990  0.59430  Biso   1.000  N
  C19      1.0000 0.86290  0.67170  0.58190  Biso   1.000  C
  H19      1.0000 0.84660  0.70790  0.55050  Biso   1.000  H
  N39      1.0000 0.07569  0.62846  0.42227  Biso   1.000  N
  N40      1.0000 0.12670  0.66990  0.40570  Biso   1.000  N
  C20      1.0000 0.13710  0.67170  0.41810  Biso   1.000  C
  H20      1.0000 0.15340  0.70790  0.44950  Biso   1.000  H
  N41      1.0000 0.37154  0.42227  0.92431  Biso   1.000  N
  N42      1.0000 0.33010  0.40570  0.87330  Biso   1.000  N
  C21      1.0000 0.32830  0.41810  0.86290  Biso   1.000  C
  H21      1.0000 0.29210  0.44950  0.84660  Biso   1.000  H
  N43      1.0000 0.37154  0.57773  0.07569  Biso   1.000  N
  N44      1.0000 0.33010  0.59430  0.12670  Biso   1.000  N
  C22      1.0000 0.32830  0.58190  0.13710  Biso   1.000  C
  H22      1.0000 0.29210  0.55050  0.15340  Biso   1.000  H
  N45      1.0000 0.62846  0.42227  0.07569  Biso   1.000  N
  N46      1.0000 0.66990  0.40570  0.12670  Biso   1.000  N
  C23      1.0000 0.67170  0.41810  0.13710  Biso   1.000  C
  H23      1.0000 0.70790  0.44950  0.15340  Biso   1.000  H
  N47      1.0000 0.62846  0.57773  0.92431  Biso   1.000  N
  N48      1.0000 0.66990  0.59430  0.87330  Biso   1.000  N
  C24      1.0000 0.67170  0.58190  0.86290  Biso   1.000  C
  H24      1.0000 0.70790  0.55050  0.84660  Biso   1.000  H
  N49      1.0000 0.92431  0.57773  0.62846  Biso   1.000  N
  N50      1.0000 0.87330  0.59430  0.66990  Biso   1.000  N
  C25      1.0000 0.86290  0.58190  0.67170  Biso   1.000  C
  H25      1.0000 0.84660  0.55050  0.70790  Biso   1.000  H
  N51      1.0000 0.07569  0.42227  0.62846  Biso   1.000  N
  N52      1.0000 0.12670  0.40570  0.66990  Biso   1.000  N
  C26      1.0000 0.13710  0.41810  0.67170  Biso   1.000  C
  H26      1.0000 0.15340  0.44950  0.70790  Biso   1.000  H
  N53      1.0000 0.07569  0.57773  0.37154  Biso   1.000  N
  N54      1.0000 0.12670  0.59430  0.33010  Biso   1.000  N
  C27      1.0000 0.13710  0.58190  0.32830  Biso   1.000  C
  H27      1.0000 0.15340  0.55050  0.29210  Biso   1.000  H
  N55      1.0000 0.92431  0.42227  0.37154  Biso   1.000  N
  N56      1.0000 0.87330  0.40570  0.33010  Biso   1.000  N
  C28      1.0000 0.86290  0.41810  0.32830  Biso   1.000  C
  H28      1.0000 0.84660  0.44950  0.29210  Biso   1.000  H
  N57      1.0000 0.62846  0.92431  0.57773  Biso   1.000  N
  N58      1.0000 0.66990  0.87330  0.59430  Biso   1.000  N
  C29      1.0000 0.67170  0.86290  0.58190  Biso   1.000  C
  H29      1.0000 0.70790  0.84660  0.55050  Biso   1.000  H
  N59      1.0000 0.62846  0.07569  0.42227  Biso   1.000  N
  N60      1.0000 0.66990  0.12670  0.40570  Biso   1.000  N
  C30      1.0000 0.67170  0.13710  0.41810  Biso   1.000  C
  H30      1.0000 0.70790  0.15340  0.44950  Biso   1.000  H
  N61      1.0000 0.37154  0.07569  0.57773  Biso   1.000  N
  N62      1.0000 0.33010  0.12670  0.59430  Biso   1.000  N
  C31      1.0000 0.32830  0.13710  0.58190  Biso   1.000  C
  H31      1.0000 0.29210  0.15340  0.55050  Biso   1.000  H
  N63      1.0000 0.37154  0.92431  0.42227  Biso   1.000  N
  N64      1.0000 0.33010  0.87330  0.40570  Biso   1.000  N
  C32      1.0000 0.32830  0.86290  0.41810  Biso   1.000  C
  H32      1.0000 0.29210  0.84660  0.44950  Biso   1.000  H
  N65      1.0000 0.57773  0.62846  0.92431  Biso   1.000  N
  N66      1.0000 0.59430  0.66990  0.87330  Biso   1.000  N
  C33      1.0000 0.58190  0.67170  0.86290  Biso   1.000  C
  H33      1.0000 0.55050  0.70790  0.84660  Biso   1.000  H
  N67      1.0000 0.42227  0.62846  0.07569  Biso   1.000  N
  N68      1.0000 0.40570  0.66990  0.12670  Biso   1.000  N
  C34      1.0000 0.41810  0.67170  0.13710  Biso   1.000  C
  H34      1.0000 0.44950  0.70790  0.15340  Biso   1.000  H
  N69      1.0000 0.57773  0.37154  0.07569  Biso   1.000  N
  N70      1.0000 0.59430  0.33010  0.12670  Biso   1.000  N
  C35      1.0000 0.58190  0.32830  0.13710  Biso   1.000  C
  H35      1.0000 0.55050  0.29210  0.15340  Biso   1.000  H
  N71      1.0000 0.42227  0.37154  0.92431  Biso   1.000  N
  N72      1.0000 0.40570  0.33010  0.87330  Biso   1.000  N
  C36      1.0000 0.41810  0.32830  0.86290  Biso   1.000  C
  H36      1.0000 0.44950  0.29210  0.84660  Biso   1.000  H
  N73      1.0000 0.57773  0.92431  0.37154  Biso   1.000  N
  N74      1.0000 0.59430  0.87330  0.33010  Biso   1.000  N
  C37      1.0000 0.58190  0.86290  0.32830  Biso   1.000  C
  H37      1.0000 0.55050  0.84660  0.29210  Biso   1.000  H
  N75      1.0000 0.42227  0.07569  0.37154  Biso   1.000  N
  N76      1.0000 0.40570  0.12670  0.33010  Biso   1.000  N
  C38      1.0000 0.41810  0.13710  0.32830  Biso   1.000  C
  H38      1.0000 0.44950  0.15340  0.29210  Biso   1.000  H
  N77      1.0000 0.57773  0.07569  0.62846  Biso   1.000  N
  N78      1.0000 0.59430  0.12670  0.66990  Biso   1.000  N
  C39      1.0000 0.58190  0.13710  0.67170  Biso   1.000  C
  H39      1.0000 0.55050  0.15340  0.70790  Biso   1.000  H
  N79      1.0000 0.42227  0.92431  0.62846  Biso   1.000  N
  N80      1.0000 0.40570  0.87330  0.66990  Biso   1.000  N
  C40      1.0000 0.41810  0.86290  0.67170  Biso   1.000  C
  H40      1.0000 0.44950  0.84660  0.70790  Biso   1.000  H
  N81      1.0000 0.92431  0.62846  0.42227  Biso   1.000  N
  N82      1.0000 0.87330  0.66990  0.40570  Biso   1.000  N
  C41      1.0000 0.86290  0.67170  0.41810  Biso   1.000  C
  H41      1.0000 0.84660  0.70790  0.44950  Biso   1.000  H
  N83      1.0000 0.07569  0.62846  0.57773  Biso   1.000  N
  N84      1.0000 0.12670  0.66990  0.59430  Biso   1.000  N
  C42      1.0000 0.13710  0.67170  0.58190  Biso   1.000  C
  H42      1.0000 0.15340  0.70790  0.55050  Biso   1.000  H
  N85      1.0000 0.07569  0.37154  0.42227  Biso   1.000  N
  N86      1.0000 0.12670  0.33010  0.40570  Biso   1.000  N
  C43      1.0000 0.13710  0.32830  0.41810  Biso   1.000  C
  H43      1.0000 0.15340  0.29210  0.44950  Biso   1.000  H
  N87      1.0000 0.92431  0.37154  0.57773  Biso   1.000  N
  N88      1.0000 0.87330  0.33010  0.59430  Biso   1.000  N
  C44      1.0000 0.86290  0.32830  0.58190  Biso   1.000  C
  H44      1.0000 0.84660  0.29210  0.55050  Biso   1.000  H
  N89      1.0000 0.62846  0.57773  0.07569  Biso   1.000  N
  N90      1.0000 0.66990  0.59430  0.12670  Biso   1.000  N
  C45      1.0000 0.67170  0.58190  0.13710  Biso   1.000  C
  H45      1.0000 0.70790  0.55050  0.15340  Biso   1.000  H
  N91      1.0000 0.62846  0.42227  0.92431  Biso   1.000  N
  N92      1.0000 0.66990  0.40570  0.87330  Biso   1.000  N
  C46      1.0000 0.67170  0.41810  0.86290  Biso   1.000  C
  H46      1.0000 0.70790  0.44950  0.84660  Biso   1.000  H
  N93      1.0000 0.37154  0.57773  0.92431  Biso   1.000  N
  N94      1.0000 0.33010  0.59430  0.87330  Biso   1.000  N
  C47      1.0000 0.32830  0.58190  0.86290  Biso   1.000  C
  H47      1.0000 0.29210  0.55050  0.84660  Biso   1.000  H
  N95      1.0000 0.37154  0.42227  0.07569  Biso   1.000  N
  N96      1.0000 0.33010  0.40570  0.12670  Biso   1.000  N
  C48      1.0000 0.32830  0.41810  0.13710  Biso   1.000  C
  H48      1.0000 0.29210  0.44950  0.15340  Biso   1.000  H
  Co1      1.0000 0.00000  0.50000  0.36725  Biso   1.000  Co
  Co2      1.0000 0.00000  0.50000  0.63275  Biso   1.000  Co
  Co3      1.0000 0.36725  0.00000  0.50000  Biso   1.000  Co
  Co4      1.0000 0.63275  0.00000  0.50000  Biso   1.000  Co
  Co5      1.0000 0.50000  0.36725  0.00000  Biso   1.000  Co
  Co6      1.0000 0.50000  0.63275  0.00000  Biso   1.000  Co
  Co7      1.0000 0.50000  0.00000  0.63275  Biso   1.000  Co
  Co8      1.0000 0.50000  0.00000  0.36725  Biso   1.000  Co
  Co9      1.0000 0.00000  0.36725  0.50000  Biso   1.000  Co
  Co10     1.0000 0.00000  0.63275  0.50000  Biso   1.000  Co
  Co11     1.0000 0.36725  0.50000  0.00000  Biso   1.000  Co
  Co12     1.0000 0.63275  0.50000  0.00000  Biso   1.000  Co
  Cl1      1.0000 0.00000  0.50000  0.50000  Biso   1.000  Cl
  Cl2      1.0000 0.50000  0.00000  0.50000  Biso   1.000  Cl
  Cl3      1.0000 0.50000  0.50000  0.00000  Biso   1.000  Cl
  C49      1.0000 0.26235  0.35264  0.26235  Biso   1.000  C
  H49      1.0000 0.24130  0.39350  0.24130  Biso   1.000  H
  C50      1.0000 0.73765  0.64736  0.26235  Biso   1.000  C
  H50      1.0000 0.75870  0.60650  0.24130  Biso   1.000  H
  C51      1.0000 0.73765  0.35264  0.73765  Biso   1.000  C
  H51      1.0000 0.75870  0.39350  0.75870  Biso   1.000  H
  C52      1.0000 0.26235  0.64736  0.73765  Biso   1.000  C
  H52      1.0000 0.24130  0.60650  0.75870  Biso   1.000  H
  C53      1.0000 0.26235  0.26235  0.35264  Biso   1.000  C
  H53      1.0000 0.24130  0.24130  0.39350  Biso   1.000  H
  C54      1.0000 0.26235  0.73765  0.64736  Biso   1.000  C
  H54      1.0000 0.24130  0.75870  0.60650  Biso   1.000  H
  C55      1.0000 0.73765  0.73765  0.35264  Biso   1.000  C
  H55      1.0000 0.75870  0.75870  0.39350  Biso   1.000  H
  C56      1.0000 0.73765  0.26235  0.64736  Biso   1.000  C
  H56      1.0000 0.75870  0.24130  0.60650  Biso   1.000  H
  C57      1.0000 0.35264  0.26235  0.26235  Biso   1.000  C
  H57      1.0000 0.39350  0.24130  0.24130  Biso   1.000  H
  C58      1.0000 0.64736  0.26235  0.73765  Biso   1.000  C
  H58      1.0000 0.60650  0.24130  0.75870  Biso   1.000  H
  C59      1.0000 0.35264  0.73765  0.73765  Biso   1.000  C
  H59      1.0000 0.39350  0.75870  0.75870  Biso   1.000  H
  C60      1.0000 0.64736  0.73765  0.26235  Biso   1.000  C
  H60      1.0000 0.60650  0.75870  0.24130  Biso   1.000  H
  C61      1.0000 0.35264  0.26235  0.73765  Biso   1.000  C
  H61      1.0000 0.39350  0.24130  0.75870  Biso   1.000  H
  C62      1.0000 0.64736  0.73765  0.73765  Biso   1.000  C
  H62      1.0000 0.60650  0.75870  0.75870  Biso   1.000  H
  C63      1.0000 0.35264  0.73765  0.26235  Biso   1.000  C
  H63      1.0000 0.39350  0.75870  0.24130  Biso   1.000  H
  C64      1.0000 0.64736  0.26235  0.26235  Biso   1.000  C
  H64      1.0000 0.60650  0.24130  0.24130  Biso   1.000  H
  C65      1.0000 0.26235  0.26235  0.64736  Biso   1.000  C
  H65      1.0000 0.24130  0.24130  0.60650  Biso   1.000  H
  C66      1.0000 0.73765  0.26235  0.35264  Biso   1.000  C
  H66      1.0000 0.75870  0.24130  0.39350  Biso   1.000  H
  C67      1.0000 0.73765  0.73765  0.64736  Biso   1.000  C
  H67      1.0000 0.75870  0.75870  0.60650  Biso   1.000  H
  C68      1.0000 0.26235  0.73765  0.35264  Biso   1.000  C
  H68      1.0000 0.24130  0.75870  0.39350  Biso   1.000  H
  C69      1.0000 0.26235  0.35264  0.73765  Biso   1.000  C
  H69      1.0000 0.24130  0.39350  0.75870  Biso   1.000  H
  C70      1.0000 0.26235  0.64736  0.26235  Biso   1.000  C
  H70      1.0000 0.24130  0.60650  0.24130  Biso   1.000  H
  C71      1.0000 0.73765  0.35264  0.26235  Biso   1.000  C
  H71      1.0000 0.75870  0.39350  0.24130  Biso   1.000  H
  C72      1.0000 0.73765  0.64736  0.73765  Biso   1.000  C
  H72      1.0000 0.75870  0.60650  0.75870  Biso   1.000  H
  C73      1.0000 0.23188  0.32315  0.32315  Biso   1.000  C
  C74      1.0000 0.16761  0.35387  0.35387  Biso   1.000  C
  C75      1.0000 0.76812  0.67685  0.32315  Biso   1.000  C
  C76      1.0000 0.83239  0.64613  0.35387  Biso   1.000  C
  C77      1.0000 0.76812  0.32315  0.67685  Biso   1.000  C
  C78      1.0000 0.83239  0.35387  0.64613  Biso   1.000  C
  C79      1.0000 0.23188  0.67685  0.67685  Biso   1.000  C
  C80      1.0000 0.16761  0.64613  0.64613  Biso   1.000  C
  C81      1.0000 0.32315  0.23188  0.32315  Biso   1.000  C
  C82      1.0000 0.35387  0.16761  0.35387  Biso   1.000  C
  C83      1.0000 0.32315  0.76812  0.67685  Biso   1.000  C
  C84      1.0000 0.35387  0.83239  0.64613  Biso   1.000  C
  C85      1.0000 0.67685  0.76812  0.32315  Biso   1.000  C
  C86      1.0000 0.64613  0.83239  0.35387  Biso   1.000  C
  C87      1.0000 0.67685  0.23188  0.67685  Biso   1.000  C
  C88      1.0000 0.64613  0.16761  0.64613  Biso   1.000  C
  C89      1.0000 0.32315  0.32315  0.23188  Biso   1.000  C
  C90      1.0000 0.35387  0.35387  0.16761  Biso   1.000  C
  C91      1.0000 0.67685  0.32315  0.76812  Biso   1.000  C
  C92      1.0000 0.64613  0.35387  0.83239  Biso   1.000  C
  C93      1.0000 0.32315  0.67685  0.76812  Biso   1.000  C
  C94      1.0000 0.35387  0.64613  0.83239  Biso   1.000  C
  C95      1.0000 0.67685  0.67685  0.23188  Biso   1.000  C
  C96      1.0000 0.64613  0.64613  0.16761  Biso   1.000  C
  C97      1.0000 0.32315  0.23188  0.67685  Biso   1.000  C
  C98      1.0000 0.35387  0.16761  0.64613  Biso   1.000  C
  C99      1.0000 0.67685  0.76812  0.67685  Biso   1.000  C
  C100     1.0000 0.64613  0.83239  0.64613  Biso   1.000  C
  C101     1.0000 0.32315  0.76812  0.32315  Biso   1.000  C
  C102     1.0000 0.35387  0.83239  0.35387  Biso   1.000  C
  C103     1.0000 0.67685  0.23188  0.32315  Biso   1.000  C
  C104     1.0000 0.64613  0.16761  0.35387  Biso   1.000  C
  C105     1.0000 0.23188  0.32315  0.67685  Biso   1.000  C
  C106     1.0000 0.16761  0.35387  0.64613  Biso   1.000  C
  C107     1.0000 0.76812  0.32315  0.32315  Biso   1.000  C
  C108     1.0000 0.83239  0.35387  0.35387  Biso   1.000  C
  C109     1.0000 0.76812  0.67685  0.67685  Biso   1.000  C
  C110     1.0000 0.83239  0.64613  0.64613  Biso   1.000  C
  C111     1.0000 0.23188  0.67685  0.32315  Biso   1.000  C
  C112     1.0000 0.16761  0.64613  0.35387  Biso   1.000  C
  C113     1.0000 0.32315  0.32315  0.76812  Biso   1.000  C
  C114     1.0000 0.35387  0.35387  0.83239  Biso   1.000  C
  C115     1.0000 0.32315  0.67685  0.23188  Biso   1.000  C
  C116     1.0000 0.35387  0.64613  0.16761  Biso   1.000  C
  C117     1.0000 0.67685  0.32315  0.23188  Biso   1.000  C
  C118     1.0000 0.64613  0.35387  0.16761  Biso   1.000  C
  C119     1.0000 0.67685  0.67685  0.76812  Biso   1.000  C
  C120     1.0000 0.64613  0.64613  0.83239  Biso   1.000  C
