data_image0
_cell_length_a       7.17
_cell_length_b       7.17
_cell_length_c       13.662
_cell_angle_alpha    90
_cell_angle_beta     90
_cell_angle_gamma    90

_symmetry_space_group_name_H-M    "P 1"
_symmetry_int_tables_number       1

loop_
  _symmetry_equiv_pos_as_xyz
  'x, y, z'

loop_
  _atom_site_label
  _atom_site_occupancy
  _atom_site_fract_x
  _atom_site_fract_y
  _atom_site_fract_z
  _atom_site_thermal_displace_type
  _atom_site_B_iso_or_equiv
  _atom_site_type_symbol
  Pt1      1.0000 0.50000  0.50000  0.50000  Biso   1.000  Pt
  Fe1      1.0000 0.00000  0.00000  0.50000  Biso   1.000  Fe
  N1       1.0000 0.00000  0.00000  0.64610  Biso   1.000  N
  C1       1.0000 0.00000  0.00000  0.85180  Biso   1.000  C
  C2       1.0000 0.00000  0.00000  0.95760  Biso   1.000  C
  N2       1.0000 0.00000  0.00000  0.35390  Biso   1.000  N
  C3       1.0000 0.00000  0.00000  0.14820  Biso   1.000  C
  C4       1.0000 0.00000  0.00000  0.04240  Biso   1.000  C
  N3       1.0000 0.80920  0.19080  0.50000  Biso   1.000  N
  C5       1.0000 0.69560  0.30440  0.50000  Biso   1.000  C
  N4       1.0000 0.19080  0.80920  0.50000  Biso   1.000  N
  C6       1.0000 0.30440  0.69560  0.50000  Biso   1.000  C
  N5       1.0000 0.80920  0.80920  0.50000  Biso   1.000  N
  C7       1.0000 0.69560  0.69560  0.50000  Biso   1.000  C
  N6       1.0000 0.19080  0.19080  0.50000  Biso   1.000  N
  C8       1.0000 0.30440  0.30440  0.50000  Biso   1.000  C
  C9       1.0000 0.83870  0.00000  0.69500  Biso   1.000  C
  C10      1.0000 0.83420  0.00000  0.79890  Biso   1.000  C
  C11      1.0000 0.16130  0.00000  0.69500  Biso   1.000  C
  C12      1.0000 0.16580  0.00000  0.79890  Biso   1.000  C
  C13      1.0000 0.00000  0.83870  0.69500  Biso   1.000  C
  C14      1.0000 0.00000  0.83420  0.79890  Biso   1.000  C
  C15      1.0000 0.00000  0.16130  0.69500  Biso   1.000  C
  C16      1.0000 0.00000  0.16580  0.79890  Biso   1.000  C
  C17      1.0000 0.16130  0.00000  0.30500  Biso   1.000  C
  C18      1.0000 0.16580  0.00000  0.20110  Biso   1.000  C
  C19      1.0000 0.83870  0.00000  0.30500  Biso   1.000  C
  C20      1.0000 0.83420  0.00000  0.20110  Biso   1.000  C
  C21      1.0000 0.00000  0.83870  0.30500  Biso   1.000  C
  C22      1.0000 0.00000  0.83420  0.20110  Biso   1.000  C
  C23      1.0000 0.00000  0.16130  0.30500  Biso   1.000  C
  C24      1.0000 0.00000  0.16580  0.20110  Biso   1.000  C
