data_image0
_cell_length_a       10.9663
_cell_length_b       30.592
_cell_length_c       11.9322
_cell_angle_alpha    90
_cell_angle_beta     117.01
_cell_angle_gamma    90

_symmetry_space_group_name_H-M    "P 1"
_symmetry_int_tables_number       1

loop_
  _symmetry_equiv_pos_as_xyz
  'x, y, z'

loop_
  _atom_site_label
  _atom_site_occupancy
  _atom_site_fract_x
  _atom_site_fract_y
  _atom_site_fract_z
  _atom_site_thermal_displace_type
  _atom_site_B_iso_or_equiv
  _atom_site_type_symbol
  Cd1      1.0000 0.72857  0.23698  0.41926  Biso   1.000  Cd
  O1       1.0000 0.83240  0.27214  0.30420  Biso   1.000  O
  O2       1.0000 0.97640  0.24518  0.48540  Biso   1.000  O
  O3       1.0000 0.07830  0.28817  0.02170  Biso   1.000  O
  O4       1.0000 0.30130  0.28998  0.12000  Biso   1.000  O
  N1       1.0000 0.70910  0.30807  0.48360  Biso   1.000  N
  N2       1.0000 0.72560  0.16700  0.34370  Biso   1.000  N
  N3       1.0000 0.58100  0.01995  0.12180  Biso   1.000  N
  N4       1.0000 0.60330  0.46540  0.54440  Biso   1.000  N
  C1       1.0000 0.68550  0.34190  0.40590  Biso   1.000  C
  H1       1.0000 0.67440  0.33670  0.32340  Biso   1.000  H
  C2       1.0000 0.67650  0.38430  0.44130  Biso   1.000  C
  H2       1.0000 0.65870  0.40800  0.38430  Biso   1.000  H
  C3       1.0000 0.69440  0.39150  0.56340  Biso   1.000  C
  C4       1.0000 0.71770  0.35750  0.64010  Biso   1.000  C
  H3       1.0000 0.72930  0.36160  0.72330  Biso   1.000  H
  C5       1.0000 0.72450  0.31710  0.59800  Biso   1.000  C
  H4       1.0000 0.74150  0.29330  0.65450  Biso   1.000  H
  C6       1.0000 0.67800  0.43270  0.63460  Biso   1.000  C
  H5       1.0000 0.62830  0.42440  0.68310  Biso   1.000  H
  H6       1.0000 0.76910  0.44400  0.69410  Biso   1.000  H
  C7       1.0000 0.83530  0.14770  0.34330  Biso   1.000  C
  H7       1.0000 0.91820  0.16380  0.37260  Biso   1.000  H
  C8       1.0000 0.83240  0.10560  0.30210  Biso   1.000  C
  H8       1.0000 0.91220  0.09340  0.30240  Biso   1.000  H
  C9       1.0000 0.71630  0.08130  0.26090  Biso   1.000  C
  C10      1.0000 0.60320  0.10140  0.25600  Biso   1.000  C
  H9       1.0000 0.51820  0.08640  0.22190  Biso   1.000  H
  C11      1.0000 0.61140  0.14380  0.30040  Biso   1.000  C
  H10      1.0000 0.53220  0.15660  0.29960  Biso   1.000  H
  C12      1.0000 0.71400  0.03400  0.21940  Biso   1.000  C
  H11      1.0000 0.78280  0.03050  0.18780  Biso   1.000  H
  H12      1.0000 0.74110  0.01460  0.29340  Biso   1.000  H
  C13      1.0000 0.95190  0.26836  0.39050  Biso   1.000  C
  C14      1.0000 0.06690  0.29319  0.38030  Biso   1.000  C
  C15      1.0000 0.03490  0.34246  0.37290  Biso   1.000  C
  H13      1.0000 0.02860  0.35180  0.44960  Biso   1.000  H
  H14      1.0000 0.94590  0.34840  0.29920  Biso   1.000  H
  C16      1.0000 0.14950  0.36830  0.36100  Biso   1.000  C
  H15      1.0000 0.12860  0.40030  0.35770  Biso   1.000  H
  C17      1.0000 0.28300  0.35990  0.47080  Biso   1.000  C
  H16      1.0000 0.27950  0.36920  0.54880  Biso   1.000  H
  H17      1.0000 0.35540  0.37700  0.46290  Biso   1.000  H
  C18      1.0000 0.20660  0.28470  0.49240  Biso   1.000  C
  H18      1.0000 0.20390  0.29310  0.57140  Biso   1.000  H
  H19      1.0000 0.22870  0.25310  0.49710  Biso   1.000  H
  C19      1.0000 0.31600  0.31110  0.47780  Biso   1.000  C
  H20      1.0000 0.40680  0.30550  0.55170  Biso   1.000  H
  C20      1.0000 0.18640  0.29368  0.11970  Biso   1.000  C
  C21      1.0000 0.07220  0.27981  0.25820  Biso   1.000  C
  H21      1.0000 0.98240  0.28550  0.18520  Biso   1.000  H
  H22      1.0000 0.09140  0.24810  0.26030  Biso   1.000  H
  C22      1.0000 0.32250  0.29760  0.35710  Biso   1.000  C
  H23      1.0000 0.39470  0.31450  0.34860  Biso   1.000  H
  H24      1.0000 0.34610  0.26620  0.36140  Biso   1.000  H
  C23      1.0000 0.18480  0.30576  0.24310  Biso   1.000  C
  C24      1.0000 0.61900  0.50450  0.62200  Biso   1.000  C
  H25      1.0000 0.71730  0.51150  0.67390  Biso   1.000  H
  H26      1.0000 0.57690  0.49970  0.67890  Biso   1.000  H
  C25      1.0000 0.45620  0.45680  0.47390  Biso   1.000  C
  H27      1.0000 0.41660  0.45370  0.53330  Biso   1.000  H
  H28      1.0000 0.44150  0.42900  0.42710  Biso   1.000  H
  C26      1.0000 0.55240  0.04180  0.00300  Biso   1.000  C
  H29      1.0000 0.62470  0.03450  0.97810  Biso   1.000  H
  H30      1.0000 0.55220  0.07390  0.01390  Biso   1.000  H
  C27      1.0000 0.58520  0.97280  0.09850  Biso   1.000  C
  H31      1.0000 0.60800  0.95630  0.17690  Biso   1.000  H
  H32      1.0000 0.65690  0.96680  0.07190  Biso   1.000  H
  C28      1.0000 0.15040  0.35530  0.23870  Biso   1.000  C
  H33      1.0000 0.21960  0.37270  0.22660  Biso   1.000  H
  H34      1.0000 0.05960  0.36110  0.16720  Biso   1.000  H
  C29      1.0000 0.72600  0.44570  0.58680  Biso   1.000  C
  H35      1.0000 0.78330  0.45200  0.67730  Biso   1.000  H
  H36      1.0000 0.77540  0.45620  0.53970  Biso   1.000  H
  C30      1.0000 0.62700  0.51330  0.59700  Biso   1.000  C
  H37      1.0000 0.66340  0.53200  0.55120  Biso   1.000  H
  H38      1.0000 0.69330  0.51360  0.68770  Biso   1.000  H
  C31      1.0000 0.51950  0.47000  0.42410  Biso   1.000  C
  H39      1.0000 0.50940  0.44160  0.38100  Biso   1.000  H
  H40      1.0000 0.55860  0.49120  0.38650  Biso   1.000  H
  Cd2      1.0000 0.77143  0.73698  0.08074  Biso   1.000  Cd
  O5       1.0000 0.66760  0.77214  0.19580  Biso   1.000  O
  O6       1.0000 0.52360  0.74518  0.01460  Biso   1.000  O
  O7       1.0000 0.42170  0.78817  0.47830  Biso   1.000  O
  O8       1.0000 0.19870  0.78998  0.38000  Biso   1.000  O
  N5       1.0000 0.79090  0.80807  0.01640  Biso   1.000  N
  N6       1.0000 0.77440  0.66700  0.15630  Biso   1.000  N
  N7       1.0000 0.91900  0.51995  0.37820  Biso   1.000  N
  N8       1.0000 0.89670  0.96540  0.95560  Biso   1.000  N
  C32      1.0000 0.81450  0.84190  0.09410  Biso   1.000  C
  H41      1.0000 0.82560  0.83670  0.17660  Biso   1.000  H
  C33      1.0000 0.82350  0.88430  0.05870  Biso   1.000  C
  H42      1.0000 0.84130  0.90800  0.11570  Biso   1.000  H
  C34      1.0000 0.80560  0.89150  0.93660  Biso   1.000  C
  C35      1.0000 0.78230  0.85750  0.85990  Biso   1.000  C
  H43      1.0000 0.77070  0.86160  0.77670  Biso   1.000  H
  C36      1.0000 0.77550  0.81710  0.90200  Biso   1.000  C
  H44      1.0000 0.75850  0.79330  0.84550  Biso   1.000  H
  C37      1.0000 0.82200  0.93270  0.86540  Biso   1.000  C
  H45      1.0000 0.87170  0.92440  0.81690  Biso   1.000  H
  H46      1.0000 0.73090  0.94400  0.80590  Biso   1.000  H
  C38      1.0000 0.66470  0.64770  0.15670  Biso   1.000  C
  H47      1.0000 0.58180  0.66380  0.12740  Biso   1.000  H
  C39      1.0000 0.66760  0.60560  0.19790  Biso   1.000  C
  H48      1.0000 0.58780  0.59340  0.19760  Biso   1.000  H
  C40      1.0000 0.78370  0.58130  0.23910  Biso   1.000  C
  C41      1.0000 0.89680  0.60140  0.24400  Biso   1.000  C
  H49      1.0000 0.98180  0.58640  0.27810  Biso   1.000  H
  C42      1.0000 0.88860  0.64380  0.19960  Biso   1.000  C
  H50      1.0000 0.96780  0.65660  0.20040  Biso   1.000  H
  C43      1.0000 0.78600  0.53400  0.28060  Biso   1.000  C
  H51      1.0000 0.71720  0.53050  0.31220  Biso   1.000  H
  H52      1.0000 0.75890  0.51460  0.20660  Biso   1.000  H
  C44      1.0000 0.54810  0.76836  0.10950  Biso   1.000  C
  C45      1.0000 0.43310  0.79319  0.11970  Biso   1.000  C
  C46      1.0000 0.46510  0.84246  0.12710  Biso   1.000  C
  H53      1.0000 0.47140  0.85180  0.05040  Biso   1.000  H
  H54      1.0000 0.55410  0.84840  0.20080  Biso   1.000  H
  C47      1.0000 0.35050  0.86830  0.13900  Biso   1.000  C
  H55      1.0000 0.37140  0.90030  0.14230  Biso   1.000  H
  C48      1.0000 0.21700  0.85990  0.02920  Biso   1.000  C
  H56      1.0000 0.22050  0.86920  0.95120  Biso   1.000  H
  H57      1.0000 0.14460  0.87700  0.03710  Biso   1.000  H
  C49      1.0000 0.29340  0.78470  0.00760  Biso   1.000  C
  H58      1.0000 0.29610  0.79310  0.92860  Biso   1.000  H
  H59      1.0000 0.27130  0.75310  0.00290  Biso   1.000  H
  C50      1.0000 0.18400  0.81110  0.02220  Biso   1.000  C
  H60      1.0000 0.09320  0.80550  0.94830  Biso   1.000  H
  C51      1.0000 0.31360  0.79368  0.38030  Biso   1.000  C
  C52      1.0000 0.42780  0.77981  0.24180  Biso   1.000  C
  H61      1.0000 0.51760  0.78550  0.31480  Biso   1.000  H
  H62      1.0000 0.40860  0.74810  0.23970  Biso   1.000  H
  C53      1.0000 0.17750  0.79760  0.14290  Biso   1.000  C
  H63      1.0000 0.10530  0.81450  0.15140  Biso   1.000  H
  H64      1.0000 0.15390  0.76620  0.13860  Biso   1.000  H
  C54      1.0000 0.31520  0.80576  0.25690  Biso   1.000  C
  C55      1.0000 0.88100  0.00450  0.87800  Biso   1.000  C
  H65      1.0000 0.78270  0.01150  0.82610  Biso   1.000  H
  H66      1.0000 0.92310  0.99970  0.82110  Biso   1.000  H
  C56      1.0000 0.04380  0.95680  0.02610  Biso   1.000  C
  H67      1.0000 0.08340  0.95370  0.96670  Biso   1.000  H
  H68      1.0000 0.05850  0.92900  0.07290  Biso   1.000  H
  C57      1.0000 0.94760  0.54180  0.49700  Biso   1.000  C
  H69      1.0000 0.87530  0.53450  0.52190  Biso   1.000  H
  H70      1.0000 0.94780  0.57390  0.48610  Biso   1.000  H
  C58      1.0000 0.91480  0.47280  0.40150  Biso   1.000  C
  H71      1.0000 0.89200  0.45630  0.32310  Biso   1.000  H
  H72      1.0000 0.84310  0.46680  0.42810  Biso   1.000  H
  C59      1.0000 0.34960  0.85530  0.26130  Biso   1.000  C
  H73      1.0000 0.28040  0.87270  0.27340  Biso   1.000  H
  H74      1.0000 0.44040  0.86110  0.33280  Biso   1.000  H
  C60      1.0000 0.77400  0.94570  0.91320  Biso   1.000  C
  H75      1.0000 0.71670  0.95200  0.82270  Biso   1.000  H
  H76      1.0000 0.72460  0.95620  0.96030  Biso   1.000  H
  C61      1.0000 0.87300  0.01330  0.90300  Biso   1.000  C
  H77      1.0000 0.83660  0.03200  0.94880  Biso   1.000  H
  H78      1.0000 0.80670  0.01360  0.81230  Biso   1.000  H
  C62      1.0000 0.98050  0.97000  0.07590  Biso   1.000  C
  H79      1.0000 0.99060  0.94160  0.11900  Biso   1.000  H
  H80      1.0000 0.94140  0.99120  0.11350  Biso   1.000  H
  Cd3      1.0000 0.27143  0.76302  0.58074  Biso   1.000  Cd
  O9       1.0000 0.16760  0.72786  0.69580  Biso   1.000  O
  O10      1.0000 0.02360  0.75482  0.51460  Biso   1.000  O
  O11      1.0000 0.92170  0.71183  0.97830  Biso   1.000  O
  O12      1.0000 0.69870  0.71002  0.88000  Biso   1.000  O
  N9       1.0000 0.29090  0.69193  0.51640  Biso   1.000  N
  N10      1.0000 0.27440  0.83300  0.65630  Biso   1.000  N
  N11      1.0000 0.41900  0.98005  0.87820  Biso   1.000  N
  N12      1.0000 0.39670  0.53460  0.45560  Biso   1.000  N
  C63      1.0000 0.31450  0.65810  0.59410  Biso   1.000  C
  H81      1.0000 0.32560  0.66330  0.67660  Biso   1.000  H
  C64      1.0000 0.32350  0.61570  0.55870  Biso   1.000  C
  H82      1.0000 0.34130  0.59200  0.61570  Biso   1.000  H
  C65      1.0000 0.30560  0.60850  0.43660  Biso   1.000  C
  C66      1.0000 0.28230  0.64250  0.35990  Biso   1.000  C
  H83      1.0000 0.27070  0.63840  0.27670  Biso   1.000  H
  C67      1.0000 0.27550  0.68290  0.40200  Biso   1.000  C
  H84      1.0000 0.25850  0.70670  0.34550  Biso   1.000  H
  C68      1.0000 0.32200  0.56730  0.36540  Biso   1.000  C
  H85      1.0000 0.37170  0.57560  0.31690  Biso   1.000  H
  H86      1.0000 0.23090  0.55600  0.30590  Biso   1.000  H
  C69      1.0000 0.16470  0.85230  0.65670  Biso   1.000  C
  H87      1.0000 0.08180  0.83620  0.62740  Biso   1.000  H
  C70      1.0000 0.16760  0.89440  0.69790  Biso   1.000  C
  H88      1.0000 0.08780  0.90660  0.69760  Biso   1.000  H
  C71      1.0000 0.28370  0.91870  0.73910  Biso   1.000  C
  C72      1.0000 0.39680  0.89860  0.74400  Biso   1.000  C
  H89      1.0000 0.48180  0.91360  0.77810  Biso   1.000  H
  C73      1.0000 0.38860  0.85620  0.69960  Biso   1.000  C
  H90      1.0000 0.46780  0.84340  0.70040  Biso   1.000  H
  C74      1.0000 0.28600  0.96600  0.78060  Biso   1.000  C
  H91      1.0000 0.21720  0.96950  0.81220  Biso   1.000  H
  H92      1.0000 0.25890  0.98540  0.70660  Biso   1.000  H
  C75      1.0000 0.04810  0.73164  0.60950  Biso   1.000  C
  C76      1.0000 0.93310  0.70681  0.61970  Biso   1.000  C
  C77      1.0000 0.96510  0.65754  0.62710  Biso   1.000  C
  H93      1.0000 0.97140  0.64820  0.55040  Biso   1.000  H
  H94      1.0000 0.05410  0.65160  0.70080  Biso   1.000  H
  C78      1.0000 0.85050  0.63170  0.63900  Biso   1.000  C
  H95      1.0000 0.87140  0.59970  0.64230  Biso   1.000  H
  C79      1.0000 0.71700  0.64010  0.52920  Biso   1.000  C
  H96      1.0000 0.72050  0.63080  0.45120  Biso   1.000  H
  H97      1.0000 0.64460  0.62300  0.53710  Biso   1.000  H
  C80      1.0000 0.79340  0.71530  0.50760  Biso   1.000  C
  H98      1.0000 0.79610  0.70690  0.42860  Biso   1.000  H
  H99      1.0000 0.77130  0.74690  0.50290  Biso   1.000  H
  C81      1.0000 0.68400  0.68890  0.52220  Biso   1.000  C
  H100     1.0000 0.59320  0.69450  0.44830  Biso   1.000  H
  C82      1.0000 0.81360  0.70632  0.88030  Biso   1.000  C
  C83      1.0000 0.92780  0.72019  0.74180  Biso   1.000  C
  H101     1.0000 0.01760  0.71450  0.81480  Biso   1.000  H
  H102     1.0000 0.90860  0.75190  0.73970  Biso   1.000  H
  C84      1.0000 0.67750  0.70240  0.64290  Biso   1.000  C
  H103     1.0000 0.60530  0.68550  0.65140  Biso   1.000  H
  H104     1.0000 0.65390  0.73380  0.63860  Biso   1.000  H
  C85      1.0000 0.81520  0.69424  0.75690  Biso   1.000  C
  C86      1.0000 0.38100  0.49550  0.37800  Biso   1.000  C
  H105     1.0000 0.28270  0.48850  0.32610  Biso   1.000  H
  H106     1.0000 0.42310  0.50030  0.32110  Biso   1.000  H
  C87      1.0000 0.54380  0.54320  0.52610  Biso   1.000  C
  H107     1.0000 0.58340  0.54630  0.46670  Biso   1.000  H
  H108     1.0000 0.55850  0.57100  0.57290  Biso   1.000  H
  C88      1.0000 0.44760  0.95820  0.99700  Biso   1.000  C
  H109     1.0000 0.37530  0.96550  0.02190  Biso   1.000  H
  H110     1.0000 0.44780  0.92610  0.98610  Biso   1.000  H
  C89      1.0000 0.41480  0.02720  0.90150  Biso   1.000  C
  H111     1.0000 0.39200  0.04370  0.82310  Biso   1.000  H
  H112     1.0000 0.34310  0.03320  0.92810  Biso   1.000  H
  C90      1.0000 0.84960  0.64470  0.76130  Biso   1.000  C
  H113     1.0000 0.78040  0.62730  0.77340  Biso   1.000  H
  H114     1.0000 0.94040  0.63890  0.83280  Biso   1.000  H
  C91      1.0000 0.27400  0.55430  0.41320  Biso   1.000  C
  H115     1.0000 0.21670  0.54800  0.32270  Biso   1.000  H
  H116     1.0000 0.22460  0.54380  0.46030  Biso   1.000  H
  C92      1.0000 0.37300  0.48670  0.40300  Biso   1.000  C
  H117     1.0000 0.33660  0.46800  0.44880  Biso   1.000  H
  H118     1.0000 0.30670  0.48640  0.31230  Biso   1.000  H
  C93      1.0000 0.48050  0.53000  0.57590  Biso   1.000  C
  H119     1.0000 0.49060  0.55840  0.61900  Biso   1.000  H
  H120     1.0000 0.44140  0.50880  0.61350  Biso   1.000  H
  Cd4      1.0000 0.22857  0.26302  0.91926  Biso   1.000  Cd
  O13      1.0000 0.33240  0.22786  0.80420  Biso   1.000  O
  O14      1.0000 0.47640  0.25482  0.98540  Biso   1.000  O
  O15      1.0000 0.57830  0.21183  0.52170  Biso   1.000  O
  O16      1.0000 0.80130  0.21002  0.62000  Biso   1.000  O
  N13      1.0000 0.20910  0.19193  0.98360  Biso   1.000  N
  N14      1.0000 0.22560  0.33300  0.84370  Biso   1.000  N
  N15      1.0000 0.08100  0.48005  0.62180  Biso   1.000  N
  N16      1.0000 0.10330  0.03460  0.04440  Biso   1.000  N
  C94      1.0000 0.18550  0.15810  0.90590  Biso   1.000  C
  H121     1.0000 0.17440  0.16330  0.82340  Biso   1.000  H
  C95      1.0000 0.17650  0.11570  0.94130  Biso   1.000  C
  H122     1.0000 0.15870  0.09200  0.88430  Biso   1.000  H
  C96      1.0000 0.19440  0.10850  0.06340  Biso   1.000  C
  C97      1.0000 0.21770  0.14250  0.14010  Biso   1.000  C
  H123     1.0000 0.22930  0.13840  0.22330  Biso   1.000  H
  C98      1.0000 0.22450  0.18290  0.09800  Biso   1.000  C
  H124     1.0000 0.24150  0.20670  0.15450  Biso   1.000  H
  C99      1.0000 0.17800  0.06730  0.13460  Biso   1.000  C
  H125     1.0000 0.12830  0.07560  0.18310  Biso   1.000  H
  H126     1.0000 0.26910  0.05600  0.19410  Biso   1.000  H
  C100     1.0000 0.33530  0.35230  0.84330  Biso   1.000  C
  H127     1.0000 0.41820  0.33620  0.87260  Biso   1.000  H
  C101     1.0000 0.33240  0.39440  0.80210  Biso   1.000  C
  H128     1.0000 0.41220  0.40660  0.80240  Biso   1.000  H
  C102     1.0000 0.21630  0.41870  0.76090  Biso   1.000  C
  C103     1.0000 0.10320  0.39860  0.75600  Biso   1.000  C
  H129     1.0000 0.01820  0.41360  0.72190  Biso   1.000  H
  C104     1.0000 0.11140  0.35620  0.80040  Biso   1.000  C
  H130     1.0000 0.03220  0.34340  0.79960  Biso   1.000  H
  C105     1.0000 0.21400  0.46600  0.71940  Biso   1.000  C
  H131     1.0000 0.28280  0.46950  0.68780  Biso   1.000  H
  H132     1.0000 0.24110  0.48540  0.79340  Biso   1.000  H
  C106     1.0000 0.45190  0.23164  0.89050  Biso   1.000  C
  C107     1.0000 0.56690  0.20681  0.88030  Biso   1.000  C
  C108     1.0000 0.53490  0.15754  0.87290  Biso   1.000  C
  H133     1.0000 0.52860  0.14820  0.94960  Biso   1.000  H
  H134     1.0000 0.44590  0.15160  0.79920  Biso   1.000  H
  C109     1.0000 0.64950  0.13170  0.86100  Biso   1.000  C
  H135     1.0000 0.62860  0.09970  0.85770  Biso   1.000  H
  C110     1.0000 0.78300  0.14010  0.97080  Biso   1.000  C
  H136     1.0000 0.77950  0.13080  0.04880  Biso   1.000  H
  H137     1.0000 0.85540  0.12300  0.96290  Biso   1.000  H
  C111     1.0000 0.70660  0.21530  0.99240  Biso   1.000  C
  H138     1.0000 0.70390  0.20690  0.07140  Biso   1.000  H
  H139     1.0000 0.72870  0.24690  0.99710  Biso   1.000  H
  C112     1.0000 0.81600  0.18890  0.97780  Biso   1.000  C
  H140     1.0000 0.90680  0.19450  0.05170  Biso   1.000  H
  C113     1.0000 0.68640  0.20632  0.61970  Biso   1.000  C
  C114     1.0000 0.57220  0.22019  0.75820  Biso   1.000  C
  H141     1.0000 0.48240  0.21450  0.68520  Biso   1.000  H
  H142     1.0000 0.59140  0.25190  0.76030  Biso   1.000  H
  C115     1.0000 0.82250  0.20240  0.85710  Biso   1.000  C
  H143     1.0000 0.89470  0.18550  0.84860  Biso   1.000  H
  H144     1.0000 0.84610  0.23380  0.86140  Biso   1.000  H
  C116     1.0000 0.68480  0.19424  0.74310  Biso   1.000  C
  C117     1.0000 0.11900  0.99550  0.12200  Biso   1.000  C
  H145     1.0000 0.21730  0.98850  0.17390  Biso   1.000  H
  H146     1.0000 0.07690  0.00030  0.17890  Biso   1.000  H
  C118     1.0000 0.95620  0.04320  0.97390  Biso   1.000  C
  H147     1.0000 0.91660  0.04630  0.03330  Biso   1.000  H
  H148     1.0000 0.94150  0.07100  0.92710  Biso   1.000  H
  C119     1.0000 0.05240  0.45820  0.50300  Biso   1.000  C
  H149     1.0000 0.12470  0.46550  0.47810  Biso   1.000  H
  H150     1.0000 0.05220  0.42610  0.51390  Biso   1.000  H
  C120     1.0000 0.08520  0.52720  0.59850  Biso   1.000  C
  H151     1.0000 0.10800  0.54370  0.67690  Biso   1.000  H
  H152     1.0000 0.15690  0.53320  0.57190  Biso   1.000  H
  C121     1.0000 0.65040  0.14470  0.73870  Biso   1.000  C
  H153     1.0000 0.71960  0.12730  0.72660  Biso   1.000  H
  H154     1.0000 0.55960  0.13890  0.66720  Biso   1.000  H
  C122     1.0000 0.22600  0.05430  0.08680  Biso   1.000  C
  H155     1.0000 0.28330  0.04800  0.17730  Biso   1.000  H
  H156     1.0000 0.27540  0.04380  0.03970  Biso   1.000  H
  C123     1.0000 0.12700  0.98670  0.09700  Biso   1.000  C
  H157     1.0000 0.16340  0.96800  0.05120  Biso   1.000  H
  H158     1.0000 0.19330  0.98640  0.18770  Biso   1.000  H
  C124     1.0000 0.01950  0.03000  0.92410  Biso   1.000  C
  H159     1.0000 0.00940  0.05840  0.88100  Biso   1.000  H
  H160     1.0000 0.05860  0.00880  0.88650  Biso   1.000  H
