data_image0
_cell_length_a       10.608
_cell_length_b       24.651
_cell_length_c       7.239
_cell_angle_alpha    90
_cell_angle_beta     95.291
_cell_angle_gamma    90

_symmetry_space_group_name_H-M    "P 1"
_symmetry_int_tables_number       1

loop_
  _symmetry_equiv_pos_as_xyz
  'x, y, z'

loop_
  _atom_site_label
  _atom_site_occupancy
  _atom_site_fract_x
  _atom_site_fract_y
  _atom_site_fract_z
  _atom_site_thermal_displace_type
  _atom_site_B_iso_or_equiv
  _atom_site_type_symbol
  O1       1.0000 0.83400  0.69080  0.23420  Biso   1.000  O
  N1       1.0000 0.50140  0.86670  0.09860  Biso   1.000  N
  N2       1.0000 0.49920  0.91870  0.16100  Biso   1.000  N
  C1       1.0000 0.61330  0.69110  0.24310  Biso   1.000  C
  C2       1.0000 0.73530  0.66190  0.23560  Biso   1.000  C
  C3       1.0000 0.61210  0.74790  0.24290  Biso   1.000  C
  H1       1.0000 0.68770  0.76680  0.23790  Biso   1.000  H
  O2       1.0000 0.74030  0.61220  0.23370  Biso   1.000  O
  O3       1.0000 0.54520  0.94970  0.75690  Biso   1.000  O
  H2       1.0000 0.62570  0.94970  0.76780  Biso   1.000  H
  O4       1.0000 0.33400  0.19080  0.23420  Biso   1.000  O
  N3       1.0000 0.00140  0.36670  0.09860  Biso   1.000  N
  N4       1.0000 0.99920  0.41870  0.16100  Biso   1.000  N
  C4       1.0000 0.11330  0.19110  0.24310  Biso   1.000  C
  C5       1.0000 0.23530  0.16190  0.23560  Biso   1.000  C
  C6       1.0000 0.11210  0.24790  0.24290  Biso   1.000  C
  H3       1.0000 0.18770  0.26680  0.23790  Biso   1.000  H
  O5       1.0000 0.24030  0.11220  0.23370  Biso   1.000  O
  O6       1.0000 0.04520  0.44970  0.75690  Biso   1.000  O
  H4       1.0000 0.12570  0.44970  0.76780  Biso   1.000  H
  O7       1.0000 0.16600  0.69080  0.26580  Biso   1.000  O
  N5       1.0000 0.49860  0.86670  0.40140  Biso   1.000  N
  N6       1.0000 0.50080  0.91870  0.33900  Biso   1.000  N
  C7       1.0000 0.38670  0.69110  0.25690  Biso   1.000  C
  C8       1.0000 0.26470  0.66190  0.26440  Biso   1.000  C
  C9       1.0000 0.38790  0.74790  0.25710  Biso   1.000  C
  H5       1.0000 0.31230  0.76680  0.26210  Biso   1.000  H
  O8       1.0000 0.25970  0.61220  0.26630  Biso   1.000  O
  O9       1.0000 0.45480  0.94970  0.74310  Biso   1.000  O
  H6       1.0000 0.37430  0.94970  0.73220  Biso   1.000  H
  O10      1.0000 0.66600  0.19080  0.26580  Biso   1.000  O
  N7       1.0000 0.99860  0.36670  0.40140  Biso   1.000  N
  N8       1.0000 0.00080  0.41870  0.33900  Biso   1.000  N
  C10      1.0000 0.88670  0.19110  0.25690  Biso   1.000  C
  C11      1.0000 0.76470  0.16190  0.26440  Biso   1.000  C
  C12      1.0000 0.88790  0.24790  0.25710  Biso   1.000  C
  H7       1.0000 0.81230  0.26680  0.26210  Biso   1.000  H
  O11      1.0000 0.75970  0.11220  0.26630  Biso   1.000  O
  O12      1.0000 0.95480  0.44970  0.74310  Biso   1.000  O
  H8       1.0000 0.87430  0.44970  0.73220  Biso   1.000  H
  O13      1.0000 0.16600  0.30920  0.76580  Biso   1.000  O
  N9       1.0000 0.49860  0.13330  0.90140  Biso   1.000  N
  N10      1.0000 0.50080  0.08130  0.83900  Biso   1.000  N
  C13      1.0000 0.38670  0.30890  0.75690  Biso   1.000  C
  C14      1.0000 0.26470  0.33810  0.76440  Biso   1.000  C
  C15      1.0000 0.38790  0.25210  0.75710  Biso   1.000  C
  H9       1.0000 0.31230  0.23320  0.76210  Biso   1.000  H
  O14      1.0000 0.25970  0.38780  0.76630  Biso   1.000  O
  O15      1.0000 0.45480  0.05030  0.24310  Biso   1.000  O
  H10      1.0000 0.37430  0.05030  0.23220  Biso   1.000  H
  O16      1.0000 0.66600  0.80920  0.76580  Biso   1.000  O
  N11      1.0000 0.99860  0.63330  0.90140  Biso   1.000  N
  N12      1.0000 0.00080  0.58130  0.83900  Biso   1.000  N
  C16      1.0000 0.88670  0.80890  0.75690  Biso   1.000  C
  C17      1.0000 0.76470  0.83810  0.76440  Biso   1.000  C
  C18      1.0000 0.88790  0.75210  0.75710  Biso   1.000  C
  H11      1.0000 0.81230  0.73320  0.76210  Biso   1.000  H
  O17      1.0000 0.75970  0.88780  0.76630  Biso   1.000  O
  O18      1.0000 0.95480  0.55030  0.24310  Biso   1.000  O
  H12      1.0000 0.87430  0.55030  0.23220  Biso   1.000  H
  O19      1.0000 0.83400  0.30920  0.73420  Biso   1.000  O
  N13      1.0000 0.50140  0.13330  0.59860  Biso   1.000  N
  N14      1.0000 0.49920  0.08130  0.66100  Biso   1.000  N
  C19      1.0000 0.61330  0.30890  0.74310  Biso   1.000  C
  C20      1.0000 0.73530  0.33810  0.73560  Biso   1.000  C
  C21      1.0000 0.61210  0.25210  0.74290  Biso   1.000  C
  H13      1.0000 0.68770  0.23320  0.73790  Biso   1.000  H
  O20      1.0000 0.74030  0.38780  0.73370  Biso   1.000  O
  O21      1.0000 0.54520  0.05030  0.25690  Biso   1.000  O
  H14      1.0000 0.62570  0.05030  0.26780  Biso   1.000  H
  O22      1.0000 0.33400  0.80920  0.73420  Biso   1.000  O
  N15      1.0000 0.00140  0.63330  0.59860  Biso   1.000  N
  N16      1.0000 0.99920  0.58130  0.66100  Biso   1.000  N
  C22      1.0000 0.11330  0.80890  0.74310  Biso   1.000  C
  C23      1.0000 0.23530  0.83810  0.73560  Biso   1.000  C
  C24      1.0000 0.11210  0.75210  0.74290  Biso   1.000  C
  H15      1.0000 0.18770  0.73320  0.73790  Biso   1.000  H
  O23      1.0000 0.24030  0.88780  0.73370  Biso   1.000  O
  O24      1.0000 0.04520  0.55030  0.25690  Biso   1.000  O
  H16      1.0000 0.12570  0.55030  0.26780  Biso   1.000  H
  Cd1      1.0000 0.50000  0.86152  0.75000  Biso   1.000  Cd
  Cd2      1.0000 0.00000  0.36152  0.75000  Biso   1.000  Cd
  Cd3      1.0000 0.50000  0.13848  0.25000  Biso   1.000  Cd
  Cd4      1.0000 0.00000  0.63848  0.25000  Biso   1.000  Cd
  Cd5      1.0000 0.50000  0.00000  0.00000  Biso   1.000  Cd
  Cd6      1.0000 0.00000  0.50000  0.00000  Biso   1.000  Cd
  Cd7      1.0000 0.50000  0.00000  0.50000  Biso   1.000  Cd
  Cd8      1.0000 0.00000  0.50000  0.50000  Biso   1.000  Cd
  C25      1.0000 0.50000  0.77650  0.25000  Biso   1.000  C
  C26      1.0000 0.50000  0.66370  0.25000  Biso   1.000  C
  H17      1.0000 0.50000  0.62600  0.25000  Biso   1.000  H
  C27      1.0000 0.50000  0.83640  0.25000  Biso   1.000  C
  C28      1.0000 0.00000  0.27650  0.25000  Biso   1.000  C
  C29      1.0000 0.00000  0.16370  0.25000  Biso   1.000  C
  H18      1.0000 0.00000  0.12600  0.25000  Biso   1.000  H
  C30      1.0000 0.00000  0.33640  0.25000  Biso   1.000  C
  C31      1.0000 0.50000  0.22350  0.75000  Biso   1.000  C
  C32      1.0000 0.50000  0.33630  0.75000  Biso   1.000  C
  H19      1.0000 0.50000  0.37400  0.75000  Biso   1.000  H
  C33      1.0000 0.50000  0.16360  0.75000  Biso   1.000  C
  C34      1.0000 0.00000  0.72350  0.75000  Biso   1.000  C
  C35      1.0000 0.00000  0.83630  0.75000  Biso   1.000  C
  H20      1.0000 0.00000  0.87400  0.75000  Biso   1.000  H
  C36      1.0000 0.00000  0.66360  0.75000  Biso   1.000  C
