data_image0
_cell_length_a       13.967
_cell_length_b       15.48
_cell_length_c       20.893
_cell_angle_alpha    89.948
_cell_angle_beta     83.096
_cell_angle_gamma    89.209

_symmetry_space_group_name_H-M    "P 1"
_symmetry_int_tables_number       1

loop_
  _symmetry_equiv_pos_as_xyz
  'x, y, z'

loop_
  _atom_site_label
  _atom_site_occupancy
  _atom_site_fract_x
  _atom_site_fract_y
  _atom_site_fract_z
  _atom_site_thermal_displace_type
  _atom_site_B_iso_or_equiv
  _atom_site_type_symbol
  C1       1.0000 0.79170  0.23910  0.52680  Biso   1.000  C
  C2       1.0000 0.85650  0.16940  0.53280  Biso   1.000  C
  H1       1.0000 0.90040  0.15200  0.49670  Biso   1.000  H
  C3       1.0000 0.85650  0.12670  0.59030  Biso   1.000  C
  H2       1.0000 0.90420  0.08330  0.59430  Biso   1.000  H
  C4       1.0000 0.78860  0.14500  0.64300  Biso   1.000  C
  C5       1.0000 0.71980  0.21000  0.63950  Biso   1.000  C
  H3       1.0000 0.67280  0.22310  0.67500  Biso   1.000  H
  C6       1.0000 0.72250  0.25630  0.58010  Biso   1.000  C
  H4       1.0000 0.67570  0.30050  0.57650  Biso   1.000  H
  C7       1.0000 0.79100  0.08890  0.70460  Biso   1.000  C
  C8       1.0000 0.84890  0.01720  0.70620  Biso   1.000  C
  H5       1.0000 0.88790  0.99850  0.66830  Biso   1.000  H
  C9       1.0000 0.85070  0.97230  0.76260  Biso   1.000  C
  H6       1.0000 0.89090  0.92250  0.76370  Biso   1.000  H
  C10      1.0000 0.79450  0.99920  0.81730  Biso   1.000  C
  C11      1.0000 0.73660  0.07100  0.81570  Biso   1.000  C
  C12      1.0000 0.73480  0.11580  0.75930  Biso   1.000  C
  H7       1.0000 0.69450  0.16570  0.75820  Biso   1.000  H
  C13      1.0000 0.79970  0.22930  0.40610  Biso   1.000  C
  C14      1.0000 0.86940  0.24030  0.35420  Biso   1.000  C
  H8       1.0000 0.91850  0.28170  0.35630  Biso   1.000  H
  C15      1.0000 0.86790  0.19110  0.29940  Biso   1.000  C
  H9       1.0000 0.91590  0.19870  0.26360  Biso   1.000  H
  C16      1.0000 0.79670  0.13090  0.29640  Biso   1.000  C
  C17      1.0000 0.72690  0.11990  0.34830  Biso   1.000  C
  H10      1.0000 0.67790  0.07850  0.34620  Biso   1.000  H
  C18      1.0000 0.72850  0.16920  0.40310  Biso   1.000  C
  H11      1.0000 0.68040  0.16160  0.43880  Biso   1.000  H
  C19      1.0000 0.78860  0.07790  0.23590  Biso   1.000  C
  C20      1.0000 0.87390  0.05070  0.20050  Biso   1.000  C
  H12      1.0000 0.93410  0.06410  0.21470  Biso   1.000  H
  C21      1.0000 0.87090  0.00430  0.14510  Biso   1.000  C
  H13      1.0000 0.93010  0.98800  0.12060  Biso   1.000  H
  C22      1.0000 0.78600  0.98000  0.12330  Biso   1.000  C
  C23      1.0000 0.70210  0.00830  0.15910  Biso   1.000  C
  C24      1.0000 0.70140  0.05760  0.21510  Biso   1.000  C
  H14      1.0000 0.64230  0.07660  0.23850  Biso   1.000  H
  C25      1.0000 0.79060  0.42350  0.40220  Biso   1.000  C
  C26      1.0000 0.85670  0.48760  0.38700  Biso   1.000  C
  H15      1.0000 0.90120  0.50170  0.41630  Biso   1.000  H
  C27      1.0000 0.85850  0.53120  0.32960  Biso   1.000  C
  H16      1.0000 0.90420  0.57540  0.31910  Biso   1.000  H
  C28      1.0000 0.79420  0.51070  0.28730  Biso   1.000  C
  C29      1.0000 0.72810  0.44670  0.30240  Biso   1.000  C
  H17      1.0000 0.68360  0.43250  0.27310  Biso   1.000  H
  C30      1.0000 0.72630  0.40310  0.35980  Biso   1.000  C
  H18      1.0000 0.68060  0.35880  0.37030  Biso   1.000  H
  C31      1.0000 0.79770  0.55760  0.22400  Biso   1.000  C
  C32      1.0000 0.88590  0.57750  0.18780  Biso   1.000  C
  H19      1.0000 0.94480  0.55970  0.20240  Biso   1.000  H
  C33      1.0000 0.88680  0.62290  0.13130  Biso   1.000  C
  C34      1.0000 0.80110  0.64890  0.10720  Biso   1.000  C
  C35      1.0000 0.71780  0.62540  0.14140  Biso   1.000  C
  H20      1.0000 0.65890  0.64040  0.12540  Biso   1.000  H
  C36      1.0000 0.71380  0.58040  0.19890  Biso   1.000  C
  H21      1.0000 0.65310  0.56520  0.22130  Biso   1.000  H
  C37      1.0000 0.81210  0.42910  0.52180  Biso   1.000  C
  C38      1.0000 0.74660  0.49460  0.53620  Biso   1.000  C
  H22      1.0000 0.69930  0.50680  0.50820  Biso   1.000  H
  C39      1.0000 0.74930  0.54270  0.59070  Biso   1.000  C
  H23      1.0000 0.70370  0.58830  0.60070  Biso   1.000  H
  C40      1.0000 0.81730  0.52520  0.63080  Biso   1.000  C
  C41      1.0000 0.88270  0.45960  0.61650  Biso   1.000  C
  H24      1.0000 0.93000  0.44740  0.64440  Biso   1.000  H
  C42      1.0000 0.88010  0.41160  0.56200  Biso   1.000  C
  H25      1.0000 0.92560  0.36590  0.55200  Biso   1.000  H
  C43      1.0000 0.81690  0.57530  0.69230  Biso   1.000  C
  C44      1.0000 0.73270  0.60050  0.73090  Biso   1.000  C
  H26      1.0000 0.67190  0.58400  0.71910  Biso   1.000  H
  C45      1.0000 0.73650  0.64900  0.78590  Biso   1.000  C
  H27      1.0000 0.67780  0.66630  0.81050  Biso   1.000  H
  C46      1.0000 0.82220  0.67330  0.80640  Biso   1.000  C
  C47      1.0000 0.90640  0.64450  0.77070  Biso   1.000  C
  C48      1.0000 0.90470  0.59680  0.71520  Biso   1.000  C
  H28      1.0000 0.96390  0.57810  0.69180  Biso   1.000  H
  C49      1.0000 0.79160  0.28640  0.46680  Biso   1.000  C
  C50      1.0000 0.79620  0.37240  0.46370  Biso   1.000  C
  C51      1.0000 0.79720  0.94870  0.88120  Biso   1.000  C
  C52      1.0000 0.78940  0.92870  0.06230  Biso   1.000  C
  C53      1.0000 0.80120  0.70670  0.04890  Biso   1.000  C
  C54      1.0000 0.82010  0.72570  0.86640  Biso   1.000  C
  C55      1.0000 0.11030  0.79090  0.91260  Biso   1.000  C
  H29      1.0000 0.08310  0.76390  0.87830  Biso   1.000  H
  C56      1.0000 0.20970  0.78380  0.91420  Biso   1.000  C
  H30      1.0000 0.24860  0.74970  0.88320  Biso   1.000  H
  C57      1.0000 0.25090  0.82780  0.96220  Biso   1.000  C
  C58      1.0000 0.18860  0.87390  0.00700  Biso   1.000  C
  H31      1.0000 0.21310  0.90350  0.04120  Biso   1.000  H
  C59      1.0000 0.09100  0.87650  0.00180  Biso   1.000  C
  H32      1.0000 0.04970  0.91040  0.03160  Biso   1.000  H
  C60      1.0000 0.50960  0.75490  0.94420  Biso   1.000  C
  H33      1.0000 0.54740  0.70740  0.92630  Biso   1.000  H
  C61      1.0000 0.41300  0.75660  0.94060  Biso   1.000  C
  H34      1.0000 0.38450  0.70970  0.92090  Biso   1.000  H
  C62      1.0000 0.35610  0.82460  0.96500  Biso   1.000  C
  C63      1.0000 0.39990  0.88920  0.99620  Biso   1.000  C
  H35      1.0000 0.36330  0.93720  0.01440  Biso   1.000  H
  C64      1.0000 0.49840  0.88290  0.00070  Biso   1.000  C
  H36      1.0000 0.52740  0.92540  0.02460  Biso   1.000  H
  F1       1.0000 0.61530  0.99380  0.13965  Biso   1.000  F
  F2       1.0000 0.97500  0.65380  0.10490  Biso   1.000  F
  F3       1.0000 0.99260  0.65960  0.78810  Biso   1.000  F
  N1       1.0000 0.05280  0.83320  0.95639  Biso   1.000  N
  N2       1.0000 0.55290  0.81990  0.97278  Biso   1.000  N
  O1       1.0000 0.87870  0.92440  0.89249  Biso   1.000  O
  O2       1.0000 0.71960  0.92960  0.91147  Biso   1.000  O
  O3       1.0000 0.86890  0.91600  0.03133  Biso   1.000  O
  O4       1.0000 0.71000  0.90130  0.04735  Biso   1.000  O
  O5       1.0000 0.88100  0.73640  0.02385  Biso   1.000  O
  O6       1.0000 0.72180  0.72170  0.03062  Biso   1.000  O
  O7       1.0000 0.89830  0.74500  0.88614  Biso   1.000  O
  O8       1.0000 0.73920  0.74950  0.89322  Biso   1.000  O
  Zn1      1.0000 0.90769  0.83162  0.95736  Biso   1.000  Zn
  Zn2      1.0000 0.69778  0.82237  0.97173  Biso   1.000  Zn
  F4       1.0000 0.62230  0.03900  0.84720  Biso   1.000  F
  C65      1.0000 0.78240  0.23390  0.53190  Biso   1.000  C
  C66      1.0000 0.86750  0.22390  0.55820  Biso   1.000  C
  H37      1.0000 0.92530  0.24740  0.53700  Biso   1.000  H
  C67      1.0000 0.86910  0.17980  0.61530  Biso   1.000  C
  H38      1.0000 0.92790  0.17290  0.63340  Biso   1.000  H
  C68      1.0000 0.78540  0.14570  0.64600  Biso   1.000  C
  C69      1.0000 0.70030  0.15570  0.61980  Biso   1.000  C
  H39      1.0000 0.64250  0.13220  0.64100  Biso   1.000  H
  C70      1.0000 0.69870  0.19980  0.56270  Biso   1.000  C
  H40      1.0000 0.63990  0.20670  0.54450  Biso   1.000  H
  C71      1.0000 0.78640  0.10190  0.70930  Biso   1.000  C
  C72      1.0000 0.87310  0.06290  0.72300  Biso   1.000  C
  H41      1.0000 0.93000  0.06840  0.69350  Biso   1.000  H
  C73      1.0000 0.87570  0.01570  0.78040  Biso   1.000  C
  H42      1.0000 0.93440  0.98940  0.78960  Biso   1.000  H
  C74      1.0000 0.79150  0.00760  0.82410  Biso   1.000  C
  C75      1.0000 0.70480  0.04660  0.81040  Biso   1.000  C
  C76      1.0000 0.70220  0.09370  0.75300  Biso   1.000  C
  H43      1.0000 0.64350  0.12010  0.74380  Biso   1.000  H
  C77      1.0000 0.77300  0.23040  0.40940  Biso   1.000  C
  C78      1.0000 0.82970  0.15450  0.40220  Biso   1.000  C
  H44      1.0000 0.86780  0.13770  0.43490  Biso   1.000  H
  C79      1.0000 0.83000  0.10360  0.34660  Biso   1.000  C
  H45      1.0000 0.86830  0.05230  0.34170  Biso   1.000  H
  C80      1.0000 0.77370  0.12850  0.29810  Biso   1.000  C
  C81      1.0000 0.71700  0.20430  0.30530  Biso   1.000  C
  H46      1.0000 0.67890  0.22110  0.27260  Biso   1.000  H
  C82      1.0000 0.71670  0.25530  0.36100  Biso   1.000  C
  H47      1.0000 0.67830  0.30660  0.36580  Biso   1.000  H
  C83      1.0000 0.79600  0.41930  0.40410  Biso   1.000  C
  C84      1.0000 0.84660  0.38430  0.34680  Biso   1.000  C
  H48      1.0000 0.88030  0.33080  0.34810  Biso   1.000  H
  C85      1.0000 0.84670  0.42930  0.28760  Biso   1.000  C
  H49      1.0000 0.88050  0.40590  0.24920  Biso   1.000  H
  C86      1.0000 0.79630  0.50930  0.28570  Biso   1.000  C
  C87      1.0000 0.74570  0.54430  0.34300  Biso   1.000  C
  H50      1.0000 0.71200  0.59790  0.34180  Biso   1.000  H
  C88      1.0000 0.74560  0.49930  0.40220  Biso   1.000  C
  H51      1.0000 0.71170  0.52270  0.44060  Biso   1.000  H
  C89      1.0000 0.79840  0.42120  0.52410  Biso   1.000  C
  C90      1.0000 0.72930  0.41240  0.58090  Biso   1.000  C
  H52      1.0000 0.67840  0.37220  0.58120  Biso   1.000  H
  C91      1.0000 0.73750  0.46470  0.63710  Biso   1.000  C
  H53      1.0000 0.69200  0.45890  0.67440  Biso   1.000  H
  C92      1.0000 0.81470  0.52580  0.63660  Biso   1.000  C
  C93      1.0000 0.88380  0.53460  0.57980  Biso   1.000  C
  H54      1.0000 0.93470  0.57480  0.57940  Biso   1.000  H
  C94      1.0000 0.87570  0.48230  0.52360  Biso   1.000  C
  H55      1.0000 0.92110  0.48810  0.48620  Biso   1.000  H
  F5       1.0000 0.96970  0.62280  0.09320  Biso   1.000  F
  F6       1.0000 0.67810  0.09530  0.86640  Biso   1.000  F
  C95      1.0000 0.20830  0.76090  0.47320  Biso   1.000  C
  C96      1.0000 0.14350  0.83060  0.46720  Biso   1.000  C
  H56      1.0000 0.09960  0.84800  0.50330  Biso   1.000  H
  C97      1.0000 0.14350  0.87330  0.40970  Biso   1.000  C
  H57      1.0000 0.09580  0.91670  0.40570  Biso   1.000  H
  C98      1.0000 0.21140  0.85500  0.35700  Biso   1.000  C
  C99      1.0000 0.28020  0.79000  0.36050  Biso   1.000  C
  H58      1.0000 0.32720  0.77690  0.32500  Biso   1.000  H
  C100     1.0000 0.27750  0.74370  0.41990  Biso   1.000  C
  H59      1.0000 0.32430  0.69950  0.42350  Biso   1.000  H
  C101     1.0000 0.20900  0.91110  0.29540  Biso   1.000  C
  C102     1.0000 0.15110  0.98280  0.29380  Biso   1.000  C
  H60      1.0000 0.11210  0.00150  0.33170  Biso   1.000  H
  C103     1.0000 0.14930  0.02770  0.23740  Biso   1.000  C
  H61      1.0000 0.10910  0.07750  0.23630  Biso   1.000  H
  C104     1.0000 0.20550  0.00080  0.18270  Biso   1.000  C
  C105     1.0000 0.26340  0.92900  0.18430  Biso   1.000  C
  C106     1.0000 0.26520  0.88420  0.24070  Biso   1.000  C
  H62      1.0000 0.30550  0.83430  0.24180  Biso   1.000  H
  C107     1.0000 0.20030  0.77070  0.59390  Biso   1.000  C
  C108     1.0000 0.13060  0.75970  0.64580  Biso   1.000  C
  H63      1.0000 0.08150  0.71830  0.64370  Biso   1.000  H
  C109     1.0000 0.13210  0.80890  0.70060  Biso   1.000  C
  H64      1.0000 0.08410  0.80130  0.73640  Biso   1.000  H
  C110     1.0000 0.20330  0.86910  0.70360  Biso   1.000  C
  C111     1.0000 0.27310  0.88010  0.65170  Biso   1.000  C
  H65      1.0000 0.32210  0.92150  0.65380  Biso   1.000  H
  C112     1.0000 0.27150  0.83080  0.59690  Biso   1.000  C
  H66      1.0000 0.31960  0.83840  0.56120  Biso   1.000  H
  C113     1.0000 0.21140  0.92210  0.76410  Biso   1.000  C
  C114     1.0000 0.12610  0.94930  0.79950  Biso   1.000  C
  H67      1.0000 0.06590  0.93590  0.78530  Biso   1.000  H
  C115     1.0000 0.12910  0.99570  0.85490  Biso   1.000  C
  H68      1.0000 0.06990  0.01200  0.87940  Biso   1.000  H
  C116     1.0000 0.21400  0.02000  0.87670  Biso   1.000  C
  C117     1.0000 0.29790  0.99170  0.84090  Biso   1.000  C
  C118     1.0000 0.29860  0.94240  0.78490  Biso   1.000  C
  H69      1.0000 0.35770  0.92340  0.76150  Biso   1.000  H
  C119     1.0000 0.20940  0.57650  0.59780  Biso   1.000  C
  C120     1.0000 0.14330  0.51240  0.61300  Biso   1.000  C
  H70      1.0000 0.09880  0.49830  0.58370  Biso   1.000  H
  C121     1.0000 0.14150  0.46880  0.67040  Biso   1.000  C
  H71      1.0000 0.09580  0.42460  0.68090  Biso   1.000  H
  C122     1.0000 0.20580  0.48930  0.71270  Biso   1.000  C
  C123     1.0000 0.27190  0.55330  0.69760  Biso   1.000  C
  H72      1.0000 0.31640  0.56750  0.72690  Biso   1.000  H
  C124     1.0000 0.27370  0.59690  0.64020  Biso   1.000  C
  H73      1.0000 0.31940  0.64120  0.62970  Biso   1.000  H
  C125     1.0000 0.20230  0.44240  0.77600  Biso   1.000  C
  C126     1.0000 0.11410  0.42250  0.81220  Biso   1.000  C
  H74      1.0000 0.05520  0.44030  0.79760  Biso   1.000  H
  C127     1.0000 0.11320  0.37710  0.86870  Biso   1.000  C
  C128     1.0000 0.19890  0.35110  0.89280  Biso   1.000  C
  C129     1.0000 0.28220  0.37460  0.85860  Biso   1.000  C
  H75      1.0000 0.34110  0.35960  0.87460  Biso   1.000  H
  C130     1.0000 0.28620  0.41960  0.80110  Biso   1.000  C
  H76      1.0000 0.34690  0.43480  0.77870  Biso   1.000  H
  C131     1.0000 0.18790  0.57090  0.47820  Biso   1.000  C
  C132     1.0000 0.25340  0.50540  0.46380  Biso   1.000  C
  H77      1.0000 0.30070  0.49320  0.49180  Biso   1.000  H
  C133     1.0000 0.25070  0.45730  0.40930  Biso   1.000  C
  H78      1.0000 0.29630  0.41170  0.39930  Biso   1.000  H
  C134     1.0000 0.18270  0.47480  0.36920  Biso   1.000  C
  C135     1.0000 0.11730  0.54040  0.38350  Biso   1.000  C
  H79      1.0000 0.07000  0.55260  0.35560  Biso   1.000  H
  C136     1.0000 0.11990  0.58840  0.43800  Biso   1.000  C
  H80      1.0000 0.07440  0.63410  0.44800  Biso   1.000  H
  C137     1.0000 0.18310  0.42470  0.30770  Biso   1.000  C
  C138     1.0000 0.26730  0.39950  0.26910  Biso   1.000  C
  H81      1.0000 0.32810  0.41600  0.28090  Biso   1.000  H
  C139     1.0000 0.26350  0.35100  0.21410  Biso   1.000  C
  H82      1.0000 0.32220  0.33370  0.18950  Biso   1.000  H
  C140     1.0000 0.17780  0.32670  0.19360  Biso   1.000  C
  C141     1.0000 0.09360  0.35550  0.22930  Biso   1.000  C
  C142     1.0000 0.09530  0.40320  0.28480  Biso   1.000  C
  H83      1.0000 0.03610  0.42190  0.30820  Biso   1.000  H
  C143     1.0000 0.20840  0.71360  0.53320  Biso   1.000  C
  C144     1.0000 0.20380  0.62760  0.53630  Biso   1.000  C
  C145     1.0000 0.20280  0.05130  0.11880  Biso   1.000  C
  C146     1.0000 0.21060  0.07130  0.93770  Biso   1.000  C
  C147     1.0000 0.19880  0.29330  0.95110  Biso   1.000  C
  C148     1.0000 0.17990  0.27430  0.13360  Biso   1.000  C
  C149     1.0000 0.88970  0.20910  0.08740  Biso   1.000  C
  H84      1.0000 0.91690  0.23610  0.12170  Biso   1.000  H
  C150     1.0000 0.79030  0.21620  0.08580  Biso   1.000  C
  H85      1.0000 0.75140  0.25030  0.11680  Biso   1.000  H
  C151     1.0000 0.74910  0.17220  0.03780  Biso   1.000  C
  C152     1.0000 0.81140  0.12610  0.99300  Biso   1.000  C
  H86      1.0000 0.78690  0.09650  0.95880  Biso   1.000  H
  C153     1.0000 0.90900  0.12350  0.99820  Biso   1.000  C
  H87      1.0000 0.95030  0.08960  0.96840  Biso   1.000  H
  C154     1.0000 0.49040  0.24510  0.05580  Biso   1.000  C
  H88      1.0000 0.45260  0.29260  0.07370  Biso   1.000  H
  C155     1.0000 0.58700  0.24340  0.05940  Biso   1.000  C
  H89      1.0000 0.61550  0.29030  0.07910  Biso   1.000  H
  C156     1.0000 0.64390  0.17540  0.03500  Biso   1.000  C
  C157     1.0000 0.60010  0.11080  0.00380  Biso   1.000  C
  H90      1.0000 0.63670  0.06280  0.98560  Biso   1.000  H
  C158     1.0000 0.50160  0.11710  0.99930  Biso   1.000  C
  H91      1.0000 0.47260  0.07460  0.97540  Biso   1.000  H
  F7       1.0000 0.38470  0.00620  0.86035  Biso   1.000  F
  F8       1.0000 0.02500  0.34620  0.89510  Biso   1.000  F
  F9       1.0000 0.00740  0.34040  0.21190  Biso   1.000  F
  N3       1.0000 0.94720  0.16680  0.04361  Biso   1.000  N
  N4       1.0000 0.44710  0.18010  0.02722  Biso   1.000  N
  O9       1.0000 0.12130  0.07560  0.10751  Biso   1.000  O
  O10      1.0000 0.28040  0.07040  0.08853  Biso   1.000  O
  O11      1.0000 0.13110  0.08400  0.96867  Biso   1.000  O
  O12      1.0000 0.29000  0.09870  0.95265  Biso   1.000  O
  O13      1.0000 0.11900  0.26360  0.97615  Biso   1.000  O
  O14      1.0000 0.27820  0.27830  0.96938  Biso   1.000  O
  O15      1.0000 0.10170  0.25500  0.11386  Biso   1.000  O
  O16      1.0000 0.26080  0.25050  0.10678  Biso   1.000  O
  Zn3      1.0000 0.09231  0.16838  0.04264  Biso   1.000  Zn
  Zn4      1.0000 0.30222  0.17763  0.02827  Biso   1.000  Zn
  F10      1.0000 0.37770  0.96100  0.15280  Biso   1.000  F
  C159     1.0000 0.21760  0.76610  0.46810  Biso   1.000  C
  C160     1.0000 0.13250  0.77610  0.44180  Biso   1.000  C
  H92      1.0000 0.07470  0.75260  0.46300  Biso   1.000  H
  C161     1.0000 0.13090  0.82020  0.38470  Biso   1.000  C
  H93      1.0000 0.07210  0.82710  0.36660  Biso   1.000  H
  C162     1.0000 0.21460  0.85430  0.35400  Biso   1.000  C
  C163     1.0000 0.29970  0.84430  0.38020  Biso   1.000  C
  H94      1.0000 0.35750  0.86780  0.35900  Biso   1.000  H
  C164     1.0000 0.30130  0.80020  0.43730  Biso   1.000  C
  H95      1.0000 0.36010  0.79330  0.45550  Biso   1.000  H
  C165     1.0000 0.21360  0.89810  0.29070  Biso   1.000  C
  C166     1.0000 0.12690  0.93710  0.27700  Biso   1.000  C
  H96      1.0000 0.07000  0.93160  0.30650  Biso   1.000  H
  C167     1.0000 0.12430  0.98430  0.21960  Biso   1.000  C
  H97      1.0000 0.06560  0.01060  0.21040  Biso   1.000  H
  C168     1.0000 0.20850  0.99240  0.17590  Biso   1.000  C
  C169     1.0000 0.29520  0.95340  0.18960  Biso   1.000  C
  C170     1.0000 0.29780  0.90630  0.24700  Biso   1.000  C
  H98      1.0000 0.35650  0.87990  0.25620  Biso   1.000  H
  C171     1.0000 0.22700  0.76960  0.59060  Biso   1.000  C
  C172     1.0000 0.17030  0.84550  0.59780  Biso   1.000  C
  H99      1.0000 0.13220  0.86230  0.56510  Biso   1.000  H
  C173     1.0000 0.17000  0.89640  0.65340  Biso   1.000  C
  H100     1.0000 0.13170  0.94770  0.65830  Biso   1.000  H
  C174     1.0000 0.22630  0.87150  0.70190  Biso   1.000  C
  C175     1.0000 0.28300  0.79570  0.69470  Biso   1.000  C
  H101     1.0000 0.32110  0.77890  0.72740  Biso   1.000  H
  C176     1.0000 0.28330  0.74470  0.63900  Biso   1.000  C
  H102     1.0000 0.32170  0.69340  0.63420  Biso   1.000  H
  C177     1.0000 0.20400  0.58070  0.59590  Biso   1.000  C
  C178     1.0000 0.15340  0.61570  0.65320  Biso   1.000  C
  H103     1.0000 0.11970  0.66920  0.65190  Biso   1.000  H
  C179     1.0000 0.15330  0.57070  0.71240  Biso   1.000  C
  H104     1.0000 0.11950  0.59410  0.75080  Biso   1.000  H
  C180     1.0000 0.20370  0.49070  0.71430  Biso   1.000  C
  C181     1.0000 0.25430  0.45570  0.65700  Biso   1.000  C
  H105     1.0000 0.28800  0.40210  0.65820  Biso   1.000  H
  C182     1.0000 0.25440  0.50070  0.59780  Biso   1.000  C
  H106     1.0000 0.28830  0.47730  0.55940  Biso   1.000  H
  C183     1.0000 0.20160  0.57880  0.47590  Biso   1.000  C
  C184     1.0000 0.27070  0.58760  0.41910  Biso   1.000  C
  H107     1.0000 0.32160  0.62780  0.41880  Biso   1.000  H
  C185     1.0000 0.26250  0.53530  0.36290  Biso   1.000  C
  H108     1.0000 0.30800  0.54110  0.32560  Biso   1.000  H
  C186     1.0000 0.18530  0.47420  0.36340  Biso   1.000  C
  C187     1.0000 0.11620  0.46540  0.42020  Biso   1.000  C
  H109     1.0000 0.06530  0.42520  0.42060  Biso   1.000  H
  C188     1.0000 0.12430  0.51770  0.47640  Biso   1.000  C
  H110     1.0000 0.07890  0.51190  0.51380  Biso   1.000  H
  F11      1.0000 0.03030  0.37720  0.90680  Biso   1.000  F
  F12      1.0000 0.32190  0.90470  0.13360  Biso   1.000  F
