data_image0
_cell_length_a       9.5412
_cell_length_b       12.842
_cell_length_c       14.455
_cell_angle_alpha    116.316
_cell_angle_beta     109.199
_cell_angle_gamma    90.15

_symmetry_space_group_name_H-M    "P 1"
_symmetry_int_tables_number       1

loop_
  _symmetry_equiv_pos_as_xyz
  'x, y, z'

loop_
  _atom_site_label
  _atom_site_occupancy
  _atom_site_fract_x
  _atom_site_fract_y
  _atom_site_fract_z
  _atom_site_thermal_displace_type
  _atom_site_B_iso_or_equiv
  _atom_site_type_symbol
  Gd1      1.0000 0.76872  0.51858  0.53731  Biso   1.000  Gd
  O1       1.0000 0.40460  0.63630  0.64800  Biso   1.000  O
  O2       1.0000 0.24200  0.51280  0.64950  Biso   1.000  O
  O3       1.0000 0.32870  0.60510  0.40770  Biso   1.000  O
  O4       1.0000 0.57230  0.60880  0.48650  Biso   1.000  O
  O5       1.0000 0.91500  0.37760  0.48600  Biso   1.000  O
  O6       1.0000 0.07980  0.30100  0.40820  Biso   1.000  O
  C1       1.0000 0.34810  0.59920  0.69700  Biso   1.000  C
  C2       1.0000 0.41180  0.66130  0.82350  Biso   1.000  C
  C3       1.0000 0.45950  0.78290  0.88160  Biso   1.000  C
  H1       1.0000 0.45790  0.82480  0.84280  Biso   1.000  H
  C4       1.0000 0.50960  0.84300  0.99700  Biso   1.000  C
  H2       1.0000 0.53080  0.92500  0.03460  Biso   1.000  H
  C5       1.0000 0.52800  0.77810  0.05620  Biso   1.000  C
  C6       1.0000 0.48320  0.65450  0.99690  Biso   1.000  C
  H3       1.0000 0.49350  0.61070  0.03480  Biso   1.000  H
  C7       1.0000 0.42320  0.59840  0.88130  Biso   1.000  C
  H4       1.0000 0.39040  0.51720  0.84250  Biso   1.000  H
  C8       1.0000 0.67730  0.78060  0.32130  Biso   1.000  C
  H5       1.0000 0.77820  0.81640  0.34070  Biso   1.000  H
  C9       1.0000 0.64350  0.03980  0.31970  Biso   1.000  C
  H6       1.0000 0.56460  0.02430  0.34170  Biso   1.000  H
  N1       1.0000 0.58530  0.83610  0.17210  Biso   1.000  N
  C10      1.0000 0.46190  0.62850  0.41980  Biso   1.000  C
  C11      1.0000 0.49360  0.68510  0.35720  Biso   1.000  C
  C12      1.0000 0.37270  0.68780  0.27080  Biso   1.000  C
  H7       1.0000 0.27420  0.65870  0.25620  Biso   1.000  H
  C13      1.0000 0.40200  0.73330  0.20920  Biso   1.000  C
  H8       1.0000 0.32270  0.73100  0.14960  Biso   1.000  H
  C14      1.0000 0.54980  0.78420  0.23270  Biso   1.000  C
  C15      1.0000 0.64410  0.73040  0.38040  Biso   1.000  C
  H9       1.0000 0.72240  0.72620  0.43680  Biso   1.000  H
  C16      1.0000 0.96200  0.29370  0.42300  Biso   1.000  C
  C17      1.0000 0.86370  0.17190  0.35640  Biso   1.000  C
  C18      1.0000 0.73750  0.15000  0.37950  Biso   1.000  C
  H10      1.0000 0.71620  0.21070  0.43620  Biso   1.000  H
  C19      1.0000 0.67170  0.95070  0.23160  Biso   1.000  C
  C20      1.0000 0.80160  0.97330  0.20690  Biso   1.000  C
  H11      1.0000 0.82070  0.91430  0.14790  Biso   1.000  H
  C21      1.0000 0.89930  0.08450  0.27220  Biso   1.000  C
  H12      1.0000 0.98460  0.09830  0.25880  Biso   1.000  H
  O7       1.0000 0.71600  0.65220  0.70120  Biso   1.000  O
  O8       1.0000 0.98380  0.54710  0.70170  Biso   1.000  O
  O9       1.0000 0.40440  0.51610  0.65180  Biso   1.000  O
  O10      1.0000 0.24510  0.63620  0.64770  Biso   1.000  O
  O11      1.0000 0.91380  0.60460  0.47940  Biso   1.000  O
  O12      1.0000 0.08000  0.60390  0.40770  Biso   1.000  O
  O13      1.0000 0.56800  0.37480  0.48120  Biso   1.000  O
  O14      1.0000 0.32800  0.30050  0.40470  Biso   1.000  O
  H13      1.0000 0.59800  0.81550  0.33880  Biso   1.000  H
  H14      1.0000 0.73750  0.01870  0.34080  Biso   1.000  H
  C22      1.0000 0.95400  0.62320  0.42340  Biso   1.000  C
  C23      1.0000 0.87100  0.68600  0.35910  Biso   1.000  C
  C24      1.0000 0.90400  0.68500  0.27400  Biso   1.000  C
  H15      1.0000 0.98020  0.64880  0.25260  Biso   1.000  H
  C25      1.0000 0.80600  0.74800  0.22000  Biso   1.000  C
  H16      1.0000 0.82860  0.76380  0.16910  Biso   1.000  H
  C26      1.0000 0.74800  0.74400  0.37500  Biso   1.000  C
  H17      1.0000 0.72380  0.75300  0.43480  Biso   1.000  H
  C27      1.0000 0.46700  0.29610  0.42110  Biso   1.000  C
  C28      1.0000 0.48400  0.16700  0.35600  Biso   1.000  C
  C29      1.0000 0.63300  0.13900  0.37400  Biso   1.000  C
  H18      1.0000 0.71710  0.19640  0.42690  Biso   1.000  H
  C30      1.0000 0.40800  0.97400  0.21900  Biso   1.000  C
  H19      1.0000 0.33090  0.90960  0.16770  Biso   1.000  H
  C31      1.0000 0.37800  0.08200  0.27400  Biso   1.000  C
  H20      1.0000 0.27960  0.09550  0.25360  Biso   1.000  H
  C32      1.0000 0.69800  0.77700  0.24300  Biso   1.000  C
  C33      1.0000 0.54400  0.96400  0.23900  Biso   1.000  C
  O15      1.0000 0.71100  0.54510  0.69620  Biso   1.000  O
  O16      1.0000 0.98700  0.64690  0.69500  Biso   1.000  O
  Gd2      1.0000 0.23128  0.48142  0.46269  Biso   1.000  Gd
  O17      1.0000 0.59540  0.36370  0.35200  Biso   1.000  O
  O18      1.0000 0.75800  0.48720  0.35050  Biso   1.000  O
  O19      1.0000 0.67130  0.39490  0.59230  Biso   1.000  O
  O20      1.0000 0.42770  0.39120  0.51350  Biso   1.000  O
  O21      1.0000 0.08500  0.62240  0.51400  Biso   1.000  O
  O22      1.0000 0.92020  0.69900  0.59180  Biso   1.000  O
  C34      1.0000 0.65190  0.40080  0.30300  Biso   1.000  C
  C35      1.0000 0.58820  0.33870  0.17650  Biso   1.000  C
  C36      1.0000 0.54050  0.21710  0.11840  Biso   1.000  C
  H21      1.0000 0.54210  0.17520  0.15720  Biso   1.000  H
  C37      1.0000 0.49040  0.15700  0.00300  Biso   1.000  C
  H22      1.0000 0.46920  0.07500  0.96540  Biso   1.000  H
  C38      1.0000 0.47200  0.22190  0.94380  Biso   1.000  C
  C39      1.0000 0.51680  0.34550  0.00310  Biso   1.000  C
  H23      1.0000 0.50650  0.38930  0.96520  Biso   1.000  H
  C40      1.0000 0.57680  0.40160  0.11870  Biso   1.000  C
  H24      1.0000 0.60960  0.48280  0.15750  Biso   1.000  H
  C41      1.0000 0.32270  0.21940  0.67870  Biso   1.000  C
  H25      1.0000 0.22180  0.18360  0.65930  Biso   1.000  H
  C42      1.0000 0.35650  0.96020  0.68030  Biso   1.000  C
  H26      1.0000 0.43540  0.97570  0.65830  Biso   1.000  H
  N2       1.0000 0.41470  0.16390  0.82790  Biso   1.000  N
  C43      1.0000 0.53810  0.37150  0.58020  Biso   1.000  C
  C44      1.0000 0.50640  0.31490  0.64280  Biso   1.000  C
  C45      1.0000 0.62730  0.31220  0.72920  Biso   1.000  C
  H27      1.0000 0.72580  0.34130  0.74380  Biso   1.000  H
  C46      1.0000 0.59800  0.26670  0.79080  Biso   1.000  C
  H28      1.0000 0.67730  0.26900  0.85040  Biso   1.000  H
  C47      1.0000 0.45020  0.21580  0.76730  Biso   1.000  C
  C48      1.0000 0.35590  0.26960  0.61960  Biso   1.000  C
  H29      1.0000 0.27760  0.27380  0.56320  Biso   1.000  H
  C49      1.0000 0.03800  0.70630  0.57700  Biso   1.000  C
  C50      1.0000 0.13630  0.82810  0.64360  Biso   1.000  C
  C51      1.0000 0.26250  0.85000  0.62050  Biso   1.000  C
  H30      1.0000 0.28380  0.78930  0.56380  Biso   1.000  H
  C52      1.0000 0.32830  0.04930  0.76840  Biso   1.000  C
  C53      1.0000 0.19840  0.02670  0.79310  Biso   1.000  C
  H31      1.0000 0.17930  0.08570  0.85210  Biso   1.000  H
  C54      1.0000 0.10070  0.91550  0.72780  Biso   1.000  C
  H32      1.0000 0.01540  0.90170  0.74120  Biso   1.000  H
  O23      1.0000 0.28400  0.34780  0.29880  Biso   1.000  O
  O24      1.0000 0.01620  0.45290  0.29830  Biso   1.000  O
  O25      1.0000 0.59560  0.48390  0.34820  Biso   1.000  O
  O26      1.0000 0.75490  0.36380  0.35230  Biso   1.000  O
  O27      1.0000 0.08620  0.39540  0.52060  Biso   1.000  O
  O28      1.0000 0.92000  0.39610  0.59230  Biso   1.000  O
  O29      1.0000 0.43200  0.62520  0.51880  Biso   1.000  O
  O30      1.0000 0.67200  0.69950  0.59530  Biso   1.000  O
  H33      1.0000 0.40200  0.18450  0.66120  Biso   1.000  H
  H34      1.0000 0.26250  0.98130  0.65920  Biso   1.000  H
  C55      1.0000 0.04600  0.37680  0.57660  Biso   1.000  C
  C56      1.0000 0.12900  0.31400  0.64090  Biso   1.000  C
  C57      1.0000 0.09600  0.31500  0.72600  Biso   1.000  C
  H35      1.0000 0.01980  0.35120  0.74740  Biso   1.000  H
  C58      1.0000 0.19400  0.25200  0.78000  Biso   1.000  C
  H36      1.0000 0.17140  0.23620  0.83090  Biso   1.000  H
  C59      1.0000 0.25200  0.25600  0.62500  Biso   1.000  C
  H37      1.0000 0.27620  0.24700  0.56520  Biso   1.000  H
  C60      1.0000 0.53300  0.70390  0.57890  Biso   1.000  C
  C61      1.0000 0.51600  0.83300  0.64400  Biso   1.000  C
  C62      1.0000 0.36700  0.86100  0.62600  Biso   1.000  C
  H38      1.0000 0.28290  0.80360  0.57310  Biso   1.000  H
  C63      1.0000 0.59200  0.02600  0.78100  Biso   1.000  C
  H39      1.0000 0.66910  0.09040  0.83230  Biso   1.000  H
  C64      1.0000 0.62200  0.91800  0.72600  Biso   1.000  C
  H40      1.0000 0.72040  0.90450  0.74640  Biso   1.000  H
  C65      1.0000 0.30200  0.22300  0.75700  Biso   1.000  C
  C66      1.0000 0.45600  0.03600  0.76100  Biso   1.000  C
  O31      1.0000 0.28900  0.45490  0.30380  Biso   1.000  O
  O32      1.0000 0.01300  0.35310  0.30500  Biso   1.000  O
