data_image0
_cell_length_a       32.485
_cell_length_b       29.089
_cell_length_c       17.629
_cell_angle_alpha    90
_cell_angle_beta     104.347
_cell_angle_gamma    90

_symmetry_space_group_name_H-M    "P 1"
_symmetry_int_tables_number       1

loop_
  _symmetry_equiv_pos_as_xyz
  'x, y, z'

loop_
  _atom_site_label
  _atom_site_occupancy
  _atom_site_fract_x
  _atom_site_fract_y
  _atom_site_fract_z
  _atom_site_thermal_displace_type
  _atom_site_B_iso_or_equiv
  _atom_site_type_symbol
  Yb1      1.0000 0.01464  0.22814  0.54257  Biso   1.000  Yb
  O1       1.0000 0.03580  0.20750  0.66440  Biso   1.000  O
  O2       1.0000 0.04629  0.24657  0.77300  Biso   1.000  O
  O3       1.0000 0.46409  0.18190  0.13040  Biso   1.000  O
  O4       1.0000 0.45290  0.23490  0.03810  Biso   1.000  O
  O5       1.0000 0.08130  0.77680  0.01670  Biso   1.000  O
  O6       1.0000 0.04720  0.83990  0.01390  Biso   1.000  O
  O7       1.0000 0.45490  0.79310  0.91740  Biso   1.000  O
  O8       1.0000 0.44548  0.82970  0.80180  Biso   1.000  O
  C1       1.0000 0.24540  0.04130  0.89720  Biso   1.000  C
  C2       1.0000 0.20780  0.06330  0.86130  Biso   1.000  C
  H1       1.0000 0.18380  0.04730  0.83450  Biso   1.000  H
  C3       1.0000 0.20840  0.11370  0.86840  Biso   1.000  C
  C4       1.0000 0.24440  0.13660  0.90190  Biso   1.000  C
  H2       1.0000 0.24410  0.16850  0.90210  Biso   1.000  H
  C5       1.0000 0.28170  0.11390  0.93570  Biso   1.000  C
  C6       1.0000 0.28190  0.06590  0.93290  Biso   1.000  C
  H3       1.0000 0.30680  0.05010  0.95540  Biso   1.000  H
  C7       1.0000 0.16730  0.13850  0.82930  Biso   1.000  C
  C8       1.0000 0.15520  0.17530  0.86900  Biso   1.000  C
  H4       1.0000 0.17230  0.18360  0.91760  Biso   1.000  H
  C9       1.0000 0.11900  0.19950  0.83920  Biso   1.000  C
  H5       1.0000 0.11130  0.22390  0.86700  Biso   1.000  H
  C10      1.0000 0.09410  0.18740  0.76770  Biso   1.000  C
  C11      1.0000 0.10410  0.15080  0.72460  Biso   1.000  C
  H6       1.0000 0.08670  0.14320  0.67590  Biso   1.000  H
  C12      1.0000 0.14130  0.12580  0.75740  Biso   1.000  C
  H7       1.0000 0.14850  0.10070  0.73080  Biso   1.000  H
  C13      1.0000 0.05560  0.21710  0.73720  Biso   1.000  C
  C14      1.0000 0.32210  0.14050  0.97160  Biso   1.000  C
  C15      1.0000 0.34960  0.12070  0.03730  Biso   1.000  C
  H8       1.0000 0.34230  0.09360  0.05870  Biso   1.000  H
  C16      1.0000 0.38710  0.14180  0.06920  Biso   1.000  C
  H9       1.0000 0.40500  0.12930  0.11390  Biso   1.000  H
  C17      1.0000 0.39900  0.17960  0.03840  Biso   1.000  C
  C18      1.0000 0.37130  0.20050  0.96950  Biso   1.000  C
  H10      1.0000 0.37890  0.22720  0.94750  Biso   1.000  H
  C19      1.0000 0.33250  0.17790  0.93800  Biso   1.000  C
  H11      1.0000 0.31400  0.18950  0.89310  Biso   1.000  H
  C20      1.0000 0.44100  0.20220  0.06790  Biso   1.000  C
  C21      1.0000 0.24760  0.99050  0.90310  Biso   1.000  C
  C22      1.0000 0.28370  0.96600  0.89430  Biso   1.000  C
  H12      1.0000 0.30550  0.98210  0.88080  Biso   1.000  H
  C23      1.0000 0.28760  0.91930  0.90500  Biso   1.000  C
  C24      1.0000 0.25330  0.89500  0.92210  Biso   1.000  C
  H13      1.0000 0.25490  0.86320  0.92740  Biso   1.000  H
  C25      1.0000 0.21780  0.91760  0.93110  Biso   1.000  C
  C26      1.0000 0.21480  0.96560  0.92310  Biso   1.000  C
  H14      1.0000 0.19110  0.98090  0.93110  Biso   1.000  H
  C27      1.0000 0.18250  0.89160  0.95070  Biso   1.000  C
  C28      1.0000 0.17450  0.84850  0.92750  Biso   1.000  C
  H15      1.0000 0.19060  0.83480  0.89690  Biso   1.000  H
  C29      1.0000 0.14250  0.82310  0.94790  Biso   1.000  C
  H16      1.0000 0.13870  0.79210  0.93530  Biso   1.000  H
  C30      1.0000 0.12450  0.88990  0.00910  Biso   1.000  C
  H17      1.0000 0.10700  0.90450  0.03610  Biso   1.000  H
  C31      1.0000 0.15710  0.91490  0.99340  Biso   1.000  C
  H18      1.0000 0.16220  0.94520  0.00970  Biso   1.000  H
  C32      1.0000 0.11590  0.84590  0.98840  Biso   1.000  C
  C33      1.0000 0.07950  0.81910  0.00600  Biso   1.000  C
  C34      1.0000 0.32530  0.89510  0.89430  Biso   1.000  C
  C35      1.0000 0.34140  0.85600  0.93820  Biso   1.000  C
  H19      1.0000 0.32690  0.84550  0.97430  Biso   1.000  H
  C36      1.0000 0.37680  0.83190  0.93190  Biso   1.000  C
  H20      1.0000 0.38680  0.80700  0.96410  Biso   1.000  H
  C37      1.0000 0.39790  0.84700  0.87330  Biso   1.000  C
  C38      1.0000 0.38140  0.88450  0.82860  Biso   1.000  C
  H21      1.0000 0.39420  0.89420  0.78960  Biso   1.000  H
  C39      1.0000 0.34670  0.90820  0.83960  Biso   1.000  C
  H22      1.0000 0.33730  0.93390  0.80890  Biso   1.000  H
  C40      1.0000 0.43580  0.82170  0.86300  Biso   1.000  C
  C41      1.0000 0.18690  0.84990  0.98760  Biso   1.000  C
  H23      1.0000 0.21330  0.83580  0.99680  Biso   1.000  H
  C42      1.0000 0.15500  0.82690  0.01240  Biso   1.000  C
  H24      1.0000 0.16020  0.80050  0.04310  Biso   1.000  H
  C43      1.0000 0.10890  0.88880  0.95320  Biso   1.000  C
  H25      1.0000 0.08430  0.90520  0.95280  Biso   1.000  H
  C44      1.0000 0.13850  0.90630  0.91950  Biso   1.000  C
  H26      1.0000 0.13130  0.92690  0.87800  Biso   1.000  H
  Yb2      1.0000 0.51464  0.72814  0.54257  Biso   1.000  Yb
  O9       1.0000 0.53580  0.70750  0.66440  Biso   1.000  O
  O10      1.0000 0.54629  0.74657  0.77300  Biso   1.000  O
  O11      1.0000 0.96409  0.68190  0.13040  Biso   1.000  O
  O12      1.0000 0.95290  0.73490  0.03810  Biso   1.000  O
  O13      1.0000 0.58130  0.27680  0.01670  Biso   1.000  O
  O14      1.0000 0.54720  0.33990  0.01390  Biso   1.000  O
  O15      1.0000 0.95490  0.29310  0.91740  Biso   1.000  O
  O16      1.0000 0.94548  0.32970  0.80180  Biso   1.000  O
  C45      1.0000 0.74540  0.54130  0.89720  Biso   1.000  C
  C46      1.0000 0.70780  0.56330  0.86130  Biso   1.000  C
  H27      1.0000 0.68380  0.54730  0.83450  Biso   1.000  H
  C47      1.0000 0.70840  0.61370  0.86840  Biso   1.000  C
  C48      1.0000 0.74440  0.63660  0.90190  Biso   1.000  C
  H28      1.0000 0.74410  0.66850  0.90210  Biso   1.000  H
  C49      1.0000 0.78170  0.61390  0.93570  Biso   1.000  C
  C50      1.0000 0.78190  0.56590  0.93290  Biso   1.000  C
  H29      1.0000 0.80680  0.55010  0.95540  Biso   1.000  H
  C51      1.0000 0.66730  0.63850  0.82930  Biso   1.000  C
  C52      1.0000 0.65520  0.67530  0.86900  Biso   1.000  C
  H30      1.0000 0.67230  0.68360  0.91760  Biso   1.000  H
  C53      1.0000 0.61900  0.69950  0.83920  Biso   1.000  C
  H31      1.0000 0.61130  0.72390  0.86700  Biso   1.000  H
  C54      1.0000 0.59410  0.68740  0.76770  Biso   1.000  C
  C55      1.0000 0.60410  0.65080  0.72460  Biso   1.000  C
  H32      1.0000 0.58670  0.64320  0.67590  Biso   1.000  H
  C56      1.0000 0.64130  0.62580  0.75740  Biso   1.000  C
  H33      1.0000 0.64850  0.60070  0.73080  Biso   1.000  H
  C57      1.0000 0.55560  0.71710  0.73720  Biso   1.000  C
  C58      1.0000 0.82210  0.64050  0.97160  Biso   1.000  C
  C59      1.0000 0.84960  0.62070  0.03730  Biso   1.000  C
  H34      1.0000 0.84230  0.59360  0.05870  Biso   1.000  H
  C60      1.0000 0.88710  0.64180  0.06920  Biso   1.000  C
  H35      1.0000 0.90500  0.62930  0.11390  Biso   1.000  H
  C61      1.0000 0.89900  0.67960  0.03840  Biso   1.000  C
  C62      1.0000 0.87130  0.70050  0.96950  Biso   1.000  C
  H36      1.0000 0.87890  0.72720  0.94750  Biso   1.000  H
  C63      1.0000 0.83250  0.67790  0.93800  Biso   1.000  C
  H37      1.0000 0.81400  0.68950  0.89310  Biso   1.000  H
  C64      1.0000 0.94100  0.70220  0.06790  Biso   1.000  C
  C65      1.0000 0.74760  0.49050  0.90310  Biso   1.000  C
  C66      1.0000 0.78370  0.46600  0.89430  Biso   1.000  C
  H38      1.0000 0.80550  0.48210  0.88080  Biso   1.000  H
  C67      1.0000 0.78760  0.41930  0.90500  Biso   1.000  C
  C68      1.0000 0.75330  0.39500  0.92210  Biso   1.000  C
  H39      1.0000 0.75490  0.36320  0.92740  Biso   1.000  H
  C69      1.0000 0.71780  0.41760  0.93110  Biso   1.000  C
  C70      1.0000 0.71480  0.46560  0.92310  Biso   1.000  C
  H40      1.0000 0.69110  0.48090  0.93110  Biso   1.000  H
  C71      1.0000 0.68250  0.39160  0.95070  Biso   1.000  C
  C72      1.0000 0.67450  0.34850  0.92750  Biso   1.000  C
  H41      1.0000 0.69060  0.33480  0.89690  Biso   1.000  H
  C73      1.0000 0.64250  0.32310  0.94790  Biso   1.000  C
  H42      1.0000 0.63870  0.29210  0.93530  Biso   1.000  H
  C74      1.0000 0.62450  0.38990  0.00910  Biso   1.000  C
  H43      1.0000 0.60700  0.40450  0.03610  Biso   1.000  H
  C75      1.0000 0.65710  0.41490  0.99340  Biso   1.000  C
  H44      1.0000 0.66220  0.44520  0.00970  Biso   1.000  H
  C76      1.0000 0.61590  0.34590  0.98840  Biso   1.000  C
  C77      1.0000 0.57950  0.31910  0.00600  Biso   1.000  C
  C78      1.0000 0.82530  0.39510  0.89430  Biso   1.000  C
  C79      1.0000 0.84140  0.35600  0.93820  Biso   1.000  C
  H45      1.0000 0.82690  0.34550  0.97430  Biso   1.000  H
  C80      1.0000 0.87680  0.33190  0.93190  Biso   1.000  C
  H46      1.0000 0.88680  0.30700  0.96410  Biso   1.000  H
  C81      1.0000 0.89790  0.34700  0.87330  Biso   1.000  C
  C82      1.0000 0.88140  0.38450  0.82860  Biso   1.000  C
  H47      1.0000 0.89420  0.39420  0.78960  Biso   1.000  H
  C83      1.0000 0.84670  0.40820  0.83960  Biso   1.000  C
  H48      1.0000 0.83730  0.43390  0.80890  Biso   1.000  H
  C84      1.0000 0.93580  0.32170  0.86300  Biso   1.000  C
  C85      1.0000 0.68690  0.34990  0.98760  Biso   1.000  C
  H49      1.0000 0.71330  0.33580  0.99680  Biso   1.000  H
  C86      1.0000 0.65500  0.32690  0.01240  Biso   1.000  C
  H50      1.0000 0.66020  0.30050  0.04310  Biso   1.000  H
  C87      1.0000 0.60890  0.38880  0.95320  Biso   1.000  C
  H51      1.0000 0.58430  0.40520  0.95280  Biso   1.000  H
  C88      1.0000 0.63850  0.40630  0.91950  Biso   1.000  C
  H52      1.0000 0.63130  0.42690  0.87800  Biso   1.000  H
  Yb3      1.0000 0.98536  0.22814  0.95743  Biso   1.000  Yb
  O17      1.0000 0.96420  0.20750  0.83560  Biso   1.000  O
  O18      1.0000 0.95371  0.24657  0.72700  Biso   1.000  O
  O19      1.0000 0.53591  0.18190  0.36960  Biso   1.000  O
  O20      1.0000 0.54710  0.23490  0.46190  Biso   1.000  O
  O21      1.0000 0.91870  0.77680  0.48330  Biso   1.000  O
  O22      1.0000 0.95280  0.83990  0.48610  Biso   1.000  O
  O23      1.0000 0.54510  0.79310  0.58260  Biso   1.000  O
  O24      1.0000 0.55452  0.82970  0.69820  Biso   1.000  O
  C89      1.0000 0.75460  0.04130  0.60280  Biso   1.000  C
  C90      1.0000 0.79220  0.06330  0.63870  Biso   1.000  C
  H53      1.0000 0.81620  0.04730  0.66550  Biso   1.000  H
  C91      1.0000 0.79160  0.11370  0.63160  Biso   1.000  C
  C92      1.0000 0.75560  0.13660  0.59810  Biso   1.000  C
  H54      1.0000 0.75590  0.16850  0.59790  Biso   1.000  H
  C93      1.0000 0.71830  0.11390  0.56430  Biso   1.000  C
  C94      1.0000 0.71810  0.06590  0.56710  Biso   1.000  C
  H55      1.0000 0.69320  0.05010  0.54460  Biso   1.000  H
  C95      1.0000 0.83270  0.13850  0.67070  Biso   1.000  C
  C96      1.0000 0.84480  0.17530  0.63100  Biso   1.000  C
  H56      1.0000 0.82770  0.18360  0.58240  Biso   1.000  H
  C97      1.0000 0.88100  0.19950  0.66080  Biso   1.000  C
  H57      1.0000 0.88870  0.22390  0.63300  Biso   1.000  H
  C98      1.0000 0.90590  0.18740  0.73230  Biso   1.000  C
  C99      1.0000 0.89590  0.15080  0.77540  Biso   1.000  C
  H58      1.0000 0.91330  0.14320  0.82410  Biso   1.000  H
  C100     1.0000 0.85870  0.12580  0.74260  Biso   1.000  C
  H59      1.0000 0.85150  0.10070  0.76920  Biso   1.000  H
  C101     1.0000 0.94440  0.21710  0.76280  Biso   1.000  C
  C102     1.0000 0.67790  0.14050  0.52840  Biso   1.000  C
  C103     1.0000 0.65040  0.12070  0.46270  Biso   1.000  C
  H60      1.0000 0.65770  0.09360  0.44130  Biso   1.000  H
  C104     1.0000 0.61290  0.14180  0.43080  Biso   1.000  C
  H61      1.0000 0.59500  0.12930  0.38610  Biso   1.000  H
  C105     1.0000 0.60100  0.17960  0.46160  Biso   1.000  C
  C106     1.0000 0.62870  0.20050  0.53050  Biso   1.000  C
  H62      1.0000 0.62110  0.22720  0.55250  Biso   1.000  H
  C107     1.0000 0.66750  0.17790  0.56200  Biso   1.000  C
  H63      1.0000 0.68600  0.18950  0.60690  Biso   1.000  H
  C108     1.0000 0.55900  0.20220  0.43210  Biso   1.000  C
  C109     1.0000 0.75240  0.99050  0.59690  Biso   1.000  C
  C110     1.0000 0.71630  0.96600  0.60570  Biso   1.000  C
  H64      1.0000 0.69450  0.98210  0.61920  Biso   1.000  H
  C111     1.0000 0.71240  0.91930  0.59500  Biso   1.000  C
  C112     1.0000 0.74670  0.89500  0.57790  Biso   1.000  C
  H65      1.0000 0.74510  0.86320  0.57260  Biso   1.000  H
  C113     1.0000 0.78220  0.91760  0.56890  Biso   1.000  C
  C114     1.0000 0.78520  0.96560  0.57690  Biso   1.000  C
  H66      1.0000 0.80890  0.98090  0.56890  Biso   1.000  H
  C115     1.0000 0.81750  0.89160  0.54930  Biso   1.000  C
  C116     1.0000 0.82550  0.84850  0.57250  Biso   1.000  C
  H67      1.0000 0.80940  0.83480  0.60310  Biso   1.000  H
  C117     1.0000 0.85750  0.82310  0.55210  Biso   1.000  C
  H68      1.0000 0.86130  0.79210  0.56470  Biso   1.000  H
  C118     1.0000 0.87550  0.88990  0.49090  Biso   1.000  C
  H69      1.0000 0.89300  0.90450  0.46390  Biso   1.000  H
  C119     1.0000 0.84290  0.91490  0.50660  Biso   1.000  C
  H70      1.0000 0.83780  0.94520  0.49030  Biso   1.000  H
  C120     1.0000 0.88410  0.84590  0.51160  Biso   1.000  C
  C121     1.0000 0.92050  0.81910  0.49400  Biso   1.000  C
  C122     1.0000 0.67470  0.89510  0.60570  Biso   1.000  C
  C123     1.0000 0.65860  0.85600  0.56180  Biso   1.000  C
  H71      1.0000 0.67310  0.84550  0.52570  Biso   1.000  H
  C124     1.0000 0.62320  0.83190  0.56810  Biso   1.000  C
  H72      1.0000 0.61320  0.80700  0.53590  Biso   1.000  H
  C125     1.0000 0.60210  0.84700  0.62670  Biso   1.000  C
  C126     1.0000 0.61860  0.88450  0.67140  Biso   1.000  C
  H73      1.0000 0.60580  0.89420  0.71040  Biso   1.000  H
  C127     1.0000 0.65330  0.90820  0.66040  Biso   1.000  C
  H74      1.0000 0.66270  0.93390  0.69110  Biso   1.000  H
  C128     1.0000 0.56420  0.82170  0.63700  Biso   1.000  C
  C129     1.0000 0.81310  0.84990  0.51240  Biso   1.000  C
  H75      1.0000 0.78670  0.83580  0.50320  Biso   1.000  H
  C130     1.0000 0.84500  0.82690  0.48760  Biso   1.000  C
  H76      1.0000 0.83980  0.80050  0.45690  Biso   1.000  H
  C131     1.0000 0.89110  0.88880  0.54680  Biso   1.000  C
  H77      1.0000 0.91570  0.90520  0.54720  Biso   1.000  H
  C132     1.0000 0.86150  0.90630  0.58050  Biso   1.000  C
  H78      1.0000 0.86870  0.92690  0.62200  Biso   1.000  H
  Yb4      1.0000 0.48536  0.72814  0.95743  Biso   1.000  Yb
  O25      1.0000 0.46420  0.70750  0.83560  Biso   1.000  O
  O26      1.0000 0.45371  0.74657  0.72700  Biso   1.000  O
  O27      1.0000 0.03591  0.68190  0.36960  Biso   1.000  O
  O28      1.0000 0.04710  0.73490  0.46190  Biso   1.000  O
  O29      1.0000 0.41870  0.27680  0.48330  Biso   1.000  O
  O30      1.0000 0.45280  0.33990  0.48610  Biso   1.000  O
  O31      1.0000 0.04510  0.29310  0.58260  Biso   1.000  O
  O32      1.0000 0.05452  0.32970  0.69820  Biso   1.000  O
  C133     1.0000 0.25460  0.54130  0.60280  Biso   1.000  C
  C134     1.0000 0.29220  0.56330  0.63870  Biso   1.000  C
  H79      1.0000 0.31620  0.54730  0.66550  Biso   1.000  H
  C135     1.0000 0.29160  0.61370  0.63160  Biso   1.000  C
  C136     1.0000 0.25560  0.63660  0.59810  Biso   1.000  C
  H80      1.0000 0.25590  0.66850  0.59790  Biso   1.000  H
  C137     1.0000 0.21830  0.61390  0.56430  Biso   1.000  C
  C138     1.0000 0.21810  0.56590  0.56710  Biso   1.000  C
  H81      1.0000 0.19320  0.55010  0.54460  Biso   1.000  H
  C139     1.0000 0.33270  0.63850  0.67070  Biso   1.000  C
  C140     1.0000 0.34480  0.67530  0.63100  Biso   1.000  C
  H82      1.0000 0.32770  0.68360  0.58240  Biso   1.000  H
  C141     1.0000 0.38100  0.69950  0.66080  Biso   1.000  C
  H83      1.0000 0.38870  0.72390  0.63300  Biso   1.000  H
  C142     1.0000 0.40590  0.68740  0.73230  Biso   1.000  C
  C143     1.0000 0.39590  0.65080  0.77540  Biso   1.000  C
  H84      1.0000 0.41330  0.64320  0.82410  Biso   1.000  H
  C144     1.0000 0.35870  0.62580  0.74260  Biso   1.000  C
  H85      1.0000 0.35150  0.60070  0.76920  Biso   1.000  H
  C145     1.0000 0.44440  0.71710  0.76280  Biso   1.000  C
  C146     1.0000 0.17790  0.64050  0.52840  Biso   1.000  C
  C147     1.0000 0.15040  0.62070  0.46270  Biso   1.000  C
  H86      1.0000 0.15770  0.59360  0.44130  Biso   1.000  H
  C148     1.0000 0.11290  0.64180  0.43080  Biso   1.000  C
  H87      1.0000 0.09500  0.62930  0.38610  Biso   1.000  H
  C149     1.0000 0.10100  0.67960  0.46160  Biso   1.000  C
  C150     1.0000 0.12870  0.70050  0.53050  Biso   1.000  C
  H88      1.0000 0.12110  0.72720  0.55250  Biso   1.000  H
  C151     1.0000 0.16750  0.67790  0.56200  Biso   1.000  C
  H89      1.0000 0.18600  0.68950  0.60690  Biso   1.000  H
  C152     1.0000 0.05900  0.70220  0.43210  Biso   1.000  C
  C153     1.0000 0.25240  0.49050  0.59690  Biso   1.000  C
  C154     1.0000 0.21630  0.46600  0.60570  Biso   1.000  C
  H90      1.0000 0.19450  0.48210  0.61920  Biso   1.000  H
  C155     1.0000 0.21240  0.41930  0.59500  Biso   1.000  C
  C156     1.0000 0.24670  0.39500  0.57790  Biso   1.000  C
  H91      1.0000 0.24510  0.36320  0.57260  Biso   1.000  H
  C157     1.0000 0.28220  0.41760  0.56890  Biso   1.000  C
  C158     1.0000 0.28520  0.46560  0.57690  Biso   1.000  C
  H92      1.0000 0.30890  0.48090  0.56890  Biso   1.000  H
  C159     1.0000 0.31750  0.39160  0.54930  Biso   1.000  C
  C160     1.0000 0.32550  0.34850  0.57250  Biso   1.000  C
  H93      1.0000 0.30940  0.33480  0.60310  Biso   1.000  H
  C161     1.0000 0.35750  0.32310  0.55210  Biso   1.000  C
  H94      1.0000 0.36130  0.29210  0.56470  Biso   1.000  H
  C162     1.0000 0.37550  0.38990  0.49090  Biso   1.000  C
  H95      1.0000 0.39300  0.40450  0.46390  Biso   1.000  H
  C163     1.0000 0.34290  0.41490  0.50660  Biso   1.000  C
  H96      1.0000 0.33780  0.44520  0.49030  Biso   1.000  H
  C164     1.0000 0.38410  0.34590  0.51160  Biso   1.000  C
  C165     1.0000 0.42050  0.31910  0.49400  Biso   1.000  C
  C166     1.0000 0.17470  0.39510  0.60570  Biso   1.000  C
  C167     1.0000 0.15860  0.35600  0.56180  Biso   1.000  C
  H97      1.0000 0.17310  0.34550  0.52570  Biso   1.000  H
  C168     1.0000 0.12320  0.33190  0.56810  Biso   1.000  C
  H98      1.0000 0.11320  0.30700  0.53590  Biso   1.000  H
  C169     1.0000 0.10210  0.34700  0.62670  Biso   1.000  C
  C170     1.0000 0.11860  0.38450  0.67140  Biso   1.000  C
  H99      1.0000 0.10580  0.39420  0.71040  Biso   1.000  H
  C171     1.0000 0.15330  0.40820  0.66040  Biso   1.000  C
  H100     1.0000 0.16270  0.43390  0.69110  Biso   1.000  H
  C172     1.0000 0.06420  0.32170  0.63700  Biso   1.000  C
  C173     1.0000 0.31310  0.34990  0.51240  Biso   1.000  C
  H101     1.0000 0.28670  0.33580  0.50320  Biso   1.000  H
  C174     1.0000 0.34500  0.32690  0.48760  Biso   1.000  C
  H102     1.0000 0.33980  0.30050  0.45690  Biso   1.000  H
  C175     1.0000 0.39110  0.38880  0.54680  Biso   1.000  C
  H103     1.0000 0.41570  0.40520  0.54720  Biso   1.000  H
  C176     1.0000 0.36150  0.40630  0.58050  Biso   1.000  C
  H104     1.0000 0.36870  0.42690  0.62200  Biso   1.000  H
  Yb5      1.0000 0.98536  0.77186  0.45743  Biso   1.000  Yb
  O33      1.0000 0.96420  0.79250  0.33560  Biso   1.000  O
  O34      1.0000 0.95371  0.75343  0.22700  Biso   1.000  O
  O35      1.0000 0.53591  0.81810  0.86960  Biso   1.000  O
  O36      1.0000 0.54710  0.76510  0.96190  Biso   1.000  O
  O37      1.0000 0.91870  0.22320  0.98330  Biso   1.000  O
  O38      1.0000 0.95280  0.16010  0.98610  Biso   1.000  O
  O39      1.0000 0.54510  0.20690  0.08260  Biso   1.000  O
  O40      1.0000 0.55452  0.17030  0.19820  Biso   1.000  O
  C177     1.0000 0.75460  0.95870  0.10280  Biso   1.000  C
  C178     1.0000 0.79220  0.93670  0.13870  Biso   1.000  C
  H105     1.0000 0.81620  0.95270  0.16550  Biso   1.000  H
  C179     1.0000 0.79160  0.88630  0.13160  Biso   1.000  C
  C180     1.0000 0.75560  0.86340  0.09810  Biso   1.000  C
  H106     1.0000 0.75590  0.83150  0.09790  Biso   1.000  H
  C181     1.0000 0.71830  0.88610  0.06430  Biso   1.000  C
  C182     1.0000 0.71810  0.93410  0.06710  Biso   1.000  C
  H107     1.0000 0.69320  0.94990  0.04460  Biso   1.000  H
  C183     1.0000 0.83270  0.86150  0.17070  Biso   1.000  C
  C184     1.0000 0.84480  0.82470  0.13100  Biso   1.000  C
  H108     1.0000 0.82770  0.81640  0.08240  Biso   1.000  H
  C185     1.0000 0.88100  0.80050  0.16080  Biso   1.000  C
  H109     1.0000 0.88870  0.77610  0.13300  Biso   1.000  H
  C186     1.0000 0.90590  0.81260  0.23230  Biso   1.000  C
  C187     1.0000 0.89590  0.84920  0.27540  Biso   1.000  C
  H110     1.0000 0.91330  0.85680  0.32410  Biso   1.000  H
  C188     1.0000 0.85870  0.87420  0.24260  Biso   1.000  C
  H111     1.0000 0.85150  0.89930  0.26920  Biso   1.000  H
  C189     1.0000 0.94440  0.78290  0.26280  Biso   1.000  C
  C190     1.0000 0.67790  0.85950  0.02840  Biso   1.000  C
  C191     1.0000 0.65040  0.87930  0.96270  Biso   1.000  C
  H112     1.0000 0.65770  0.90640  0.94130  Biso   1.000  H
  C192     1.0000 0.61290  0.85820  0.93080  Biso   1.000  C
  H113     1.0000 0.59500  0.87070  0.88610  Biso   1.000  H
  C193     1.0000 0.60100  0.82040  0.96160  Biso   1.000  C
  C194     1.0000 0.62870  0.79950  0.03050  Biso   1.000  C
  H114     1.0000 0.62110  0.77280  0.05250  Biso   1.000  H
  C195     1.0000 0.66750  0.82210  0.06200  Biso   1.000  C
  H115     1.0000 0.68600  0.81050  0.10690  Biso   1.000  H
  C196     1.0000 0.55900  0.79780  0.93210  Biso   1.000  C
  C197     1.0000 0.75240  0.00950  0.09690  Biso   1.000  C
  C198     1.0000 0.71630  0.03400  0.10570  Biso   1.000  C
  H116     1.0000 0.69450  0.01790  0.11920  Biso   1.000  H
  C199     1.0000 0.71240  0.08070  0.09500  Biso   1.000  C
  C200     1.0000 0.74670  0.10500  0.07790  Biso   1.000  C
  H117     1.0000 0.74510  0.13680  0.07260  Biso   1.000  H
  C201     1.0000 0.78220  0.08240  0.06890  Biso   1.000  C
  C202     1.0000 0.78520  0.03440  0.07690  Biso   1.000  C
  H118     1.0000 0.80890  0.01910  0.06890  Biso   1.000  H
  C203     1.0000 0.81750  0.10840  0.04930  Biso   1.000  C
  C204     1.0000 0.82550  0.15150  0.07250  Biso   1.000  C
  H119     1.0000 0.80940  0.16520  0.10310  Biso   1.000  H
  C205     1.0000 0.85750  0.17690  0.05210  Biso   1.000  C
  H120     1.0000 0.86130  0.20790  0.06470  Biso   1.000  H
  C206     1.0000 0.87550  0.11010  0.99090  Biso   1.000  C
  H121     1.0000 0.89300  0.09550  0.96390  Biso   1.000  H
  C207     1.0000 0.84290  0.08510  0.00660  Biso   1.000  C
  H122     1.0000 0.83780  0.05480  0.99030  Biso   1.000  H
  C208     1.0000 0.88410  0.15410  0.01160  Biso   1.000  C
  C209     1.0000 0.92050  0.18090  0.99400  Biso   1.000  C
  C210     1.0000 0.67470  0.10490  0.10570  Biso   1.000  C
  C211     1.0000 0.65860  0.14400  0.06180  Biso   1.000  C
  H123     1.0000 0.67310  0.15450  0.02570  Biso   1.000  H
  C212     1.0000 0.62320  0.16810  0.06810  Biso   1.000  C
  H124     1.0000 0.61320  0.19300  0.03590  Biso   1.000  H
  C213     1.0000 0.60210  0.15300  0.12670  Biso   1.000  C
  C214     1.0000 0.61860  0.11550  0.17140  Biso   1.000  C
  H125     1.0000 0.60580  0.10580  0.21040  Biso   1.000  H
  C215     1.0000 0.65330  0.09180  0.16040  Biso   1.000  C
  H126     1.0000 0.66270  0.06610  0.19110  Biso   1.000  H
  C216     1.0000 0.56420  0.17830  0.13700  Biso   1.000  C
  C217     1.0000 0.81310  0.15010  0.01240  Biso   1.000  C
  H127     1.0000 0.78670  0.16420  0.00320  Biso   1.000  H
  C218     1.0000 0.84500  0.17310  0.98760  Biso   1.000  C
  H128     1.0000 0.83980  0.19950  0.95690  Biso   1.000  H
  C219     1.0000 0.89110  0.11120  0.04680  Biso   1.000  C
  H129     1.0000 0.91570  0.09480  0.04720  Biso   1.000  H
  C220     1.0000 0.86150  0.09370  0.08050  Biso   1.000  C
  H130     1.0000 0.86870  0.07310  0.12200  Biso   1.000  H
  Yb6      1.0000 0.48536  0.27186  0.45743  Biso   1.000  Yb
  O41      1.0000 0.46420  0.29250  0.33560  Biso   1.000  O
  O42      1.0000 0.45371  0.25343  0.22700  Biso   1.000  O
  O43      1.0000 0.03591  0.31810  0.86960  Biso   1.000  O
  O44      1.0000 0.04710  0.26510  0.96190  Biso   1.000  O
  O45      1.0000 0.41870  0.72320  0.98330  Biso   1.000  O
  O46      1.0000 0.45280  0.66010  0.98610  Biso   1.000  O
  O47      1.0000 0.04510  0.70690  0.08260  Biso   1.000  O
  O48      1.0000 0.05452  0.67030  0.19820  Biso   1.000  O
  C221     1.0000 0.25460  0.45870  0.10280  Biso   1.000  C
  C222     1.0000 0.29220  0.43670  0.13870  Biso   1.000  C
  H131     1.0000 0.31620  0.45270  0.16550  Biso   1.000  H
  C223     1.0000 0.29160  0.38630  0.13160  Biso   1.000  C
  C224     1.0000 0.25560  0.36340  0.09810  Biso   1.000  C
  H132     1.0000 0.25590  0.33150  0.09790  Biso   1.000  H
  C225     1.0000 0.21830  0.38610  0.06430  Biso   1.000  C
  C226     1.0000 0.21810  0.43410  0.06710  Biso   1.000  C
  H133     1.0000 0.19320  0.44990  0.04460  Biso   1.000  H
  C227     1.0000 0.33270  0.36150  0.17070  Biso   1.000  C
  C228     1.0000 0.34480  0.32470  0.13100  Biso   1.000  C
  H134     1.0000 0.32770  0.31640  0.08240  Biso   1.000  H
  C229     1.0000 0.38100  0.30050  0.16080  Biso   1.000  C
  H135     1.0000 0.38870  0.27610  0.13300  Biso   1.000  H
  C230     1.0000 0.40590  0.31260  0.23230  Biso   1.000  C
  C231     1.0000 0.39590  0.34920  0.27540  Biso   1.000  C
  H136     1.0000 0.41330  0.35680  0.32410  Biso   1.000  H
  C232     1.0000 0.35870  0.37420  0.24260  Biso   1.000  C
  H137     1.0000 0.35150  0.39930  0.26920  Biso   1.000  H
  C233     1.0000 0.44440  0.28290  0.26280  Biso   1.000  C
  C234     1.0000 0.17790  0.35950  0.02840  Biso   1.000  C
  C235     1.0000 0.15040  0.37930  0.96270  Biso   1.000  C
  H138     1.0000 0.15770  0.40640  0.94130  Biso   1.000  H
  C236     1.0000 0.11290  0.35820  0.93080  Biso   1.000  C
  H139     1.0000 0.09500  0.37070  0.88610  Biso   1.000  H
  C237     1.0000 0.10100  0.32040  0.96160  Biso   1.000  C
  C238     1.0000 0.12870  0.29950  0.03050  Biso   1.000  C
  H140     1.0000 0.12110  0.27280  0.05250  Biso   1.000  H
  C239     1.0000 0.16750  0.32210  0.06200  Biso   1.000  C
  H141     1.0000 0.18600  0.31050  0.10690  Biso   1.000  H
  C240     1.0000 0.05900  0.29780  0.93210  Biso   1.000  C
  C241     1.0000 0.25240  0.50950  0.09690  Biso   1.000  C
  C242     1.0000 0.21630  0.53400  0.10570  Biso   1.000  C
  H142     1.0000 0.19450  0.51790  0.11920  Biso   1.000  H
  C243     1.0000 0.21240  0.58070  0.09500  Biso   1.000  C
  C244     1.0000 0.24670  0.60500  0.07790  Biso   1.000  C
  H143     1.0000 0.24510  0.63680  0.07260  Biso   1.000  H
  C245     1.0000 0.28220  0.58240  0.06890  Biso   1.000  C
  C246     1.0000 0.28520  0.53440  0.07690  Biso   1.000  C
  H144     1.0000 0.30890  0.51910  0.06890  Biso   1.000  H
  C247     1.0000 0.31750  0.60840  0.04930  Biso   1.000  C
  C248     1.0000 0.32550  0.65150  0.07250  Biso   1.000  C
  H145     1.0000 0.30940  0.66520  0.10310  Biso   1.000  H
  C249     1.0000 0.35750  0.67690  0.05210  Biso   1.000  C
  H146     1.0000 0.36130  0.70790  0.06470  Biso   1.000  H
  C250     1.0000 0.37550  0.61010  0.99090  Biso   1.000  C
  H147     1.0000 0.39300  0.59550  0.96390  Biso   1.000  H
  C251     1.0000 0.34290  0.58510  0.00660  Biso   1.000  C
  H148     1.0000 0.33780  0.55480  0.99030  Biso   1.000  H
  C252     1.0000 0.38410  0.65410  0.01160  Biso   1.000  C
  C253     1.0000 0.42050  0.68090  0.99400  Biso   1.000  C
  C254     1.0000 0.17470  0.60490  0.10570  Biso   1.000  C
  C255     1.0000 0.15860  0.64400  0.06180  Biso   1.000  C
  H149     1.0000 0.17310  0.65450  0.02570  Biso   1.000  H
  C256     1.0000 0.12320  0.66810  0.06810  Biso   1.000  C
  H150     1.0000 0.11320  0.69300  0.03590  Biso   1.000  H
  C257     1.0000 0.10210  0.65300  0.12670  Biso   1.000  C
  C258     1.0000 0.11860  0.61550  0.17140  Biso   1.000  C
  H151     1.0000 0.10580  0.60580  0.21040  Biso   1.000  H
  C259     1.0000 0.15330  0.59180  0.16040  Biso   1.000  C
  H152     1.0000 0.16270  0.56610  0.19110  Biso   1.000  H
  C260     1.0000 0.06420  0.67830  0.13700  Biso   1.000  C
  C261     1.0000 0.31310  0.65010  0.01240  Biso   1.000  C
  H153     1.0000 0.28670  0.66420  0.00320  Biso   1.000  H
  C262     1.0000 0.34500  0.67310  0.98760  Biso   1.000  C
  H154     1.0000 0.33980  0.69950  0.95690  Biso   1.000  H
  C263     1.0000 0.39110  0.61120  0.04680  Biso   1.000  C
  H155     1.0000 0.41570  0.59480  0.04720  Biso   1.000  H
  C264     1.0000 0.36150  0.59370  0.08050  Biso   1.000  C
  H156     1.0000 0.36870  0.57310  0.12200  Biso   1.000  H
  Yb7      1.0000 0.01464  0.77186  0.04257  Biso   1.000  Yb
  O49      1.0000 0.03580  0.79250  0.16440  Biso   1.000  O
  O50      1.0000 0.04629  0.75343  0.27300  Biso   1.000  O
  O51      1.0000 0.46409  0.81810  0.63040  Biso   1.000  O
  O52      1.0000 0.45290  0.76510  0.53810  Biso   1.000  O
  O53      1.0000 0.08130  0.22320  0.51670  Biso   1.000  O
  O54      1.0000 0.04720  0.16010  0.51390  Biso   1.000  O
  O55      1.0000 0.45490  0.20690  0.41740  Biso   1.000  O
  O56      1.0000 0.44548  0.17030  0.30180  Biso   1.000  O
  C265     1.0000 0.24540  0.95870  0.39720  Biso   1.000  C
  C266     1.0000 0.20780  0.93670  0.36130  Biso   1.000  C
  H157     1.0000 0.18380  0.95270  0.33450  Biso   1.000  H
  C267     1.0000 0.20840  0.88630  0.36840  Biso   1.000  C
  C268     1.0000 0.24440  0.86340  0.40190  Biso   1.000  C
  H158     1.0000 0.24410  0.83150  0.40210  Biso   1.000  H
  C269     1.0000 0.28170  0.88610  0.43570  Biso   1.000  C
  C270     1.0000 0.28190  0.93410  0.43290  Biso   1.000  C
  H159     1.0000 0.30680  0.94990  0.45540  Biso   1.000  H
  C271     1.0000 0.16730  0.86150  0.32930  Biso   1.000  C
  C272     1.0000 0.15520  0.82470  0.36900  Biso   1.000  C
  H160     1.0000 0.17230  0.81640  0.41760  Biso   1.000  H
  C273     1.0000 0.11900  0.80050  0.33920  Biso   1.000  C
  H161     1.0000 0.11130  0.77610  0.36700  Biso   1.000  H
  C274     1.0000 0.09410  0.81260  0.26770  Biso   1.000  C
  C275     1.0000 0.10410  0.84920  0.22460  Biso   1.000  C
  H162     1.0000 0.08670  0.85680  0.17590  Biso   1.000  H
  C276     1.0000 0.14130  0.87420  0.25740  Biso   1.000  C
  H163     1.0000 0.14850  0.89930  0.23080  Biso   1.000  H
  C277     1.0000 0.05560  0.78290  0.23720  Biso   1.000  C
  C278     1.0000 0.32210  0.85950  0.47160  Biso   1.000  C
  C279     1.0000 0.34960  0.87930  0.53730  Biso   1.000  C
  H164     1.0000 0.34230  0.90640  0.55870  Biso   1.000  H
  C280     1.0000 0.38710  0.85820  0.56920  Biso   1.000  C
  H165     1.0000 0.40500  0.87070  0.61390  Biso   1.000  H
  C281     1.0000 0.39900  0.82040  0.53840  Biso   1.000  C
  C282     1.0000 0.37130  0.79950  0.46950  Biso   1.000  C
  H166     1.0000 0.37890  0.77280  0.44750  Biso   1.000  H
  C283     1.0000 0.33250  0.82210  0.43800  Biso   1.000  C
  H167     1.0000 0.31400  0.81050  0.39310  Biso   1.000  H
  C284     1.0000 0.44100  0.79780  0.56790  Biso   1.000  C
  C285     1.0000 0.24760  0.00950  0.40310  Biso   1.000  C
  C286     1.0000 0.28370  0.03400  0.39430  Biso   1.000  C
  H168     1.0000 0.30550  0.01790  0.38080  Biso   1.000  H
  C287     1.0000 0.28760  0.08070  0.40500  Biso   1.000  C
  C288     1.0000 0.25330  0.10500  0.42210  Biso   1.000  C
  H169     1.0000 0.25490  0.13680  0.42740  Biso   1.000  H
  C289     1.0000 0.21780  0.08240  0.43110  Biso   1.000  C
  C290     1.0000 0.21480  0.03440  0.42310  Biso   1.000  C
  H170     1.0000 0.19110  0.01910  0.43110  Biso   1.000  H
  C291     1.0000 0.18250  0.10840  0.45070  Biso   1.000  C
  C292     1.0000 0.17450  0.15150  0.42750  Biso   1.000  C
  H171     1.0000 0.19060  0.16520  0.39690  Biso   1.000  H
  C293     1.0000 0.14250  0.17690  0.44790  Biso   1.000  C
  H172     1.0000 0.13870  0.20790  0.43530  Biso   1.000  H
  C294     1.0000 0.12450  0.11010  0.50910  Biso   1.000  C
  H173     1.0000 0.10700  0.09550  0.53610  Biso   1.000  H
  C295     1.0000 0.15710  0.08510  0.49340  Biso   1.000  C
  H174     1.0000 0.16220  0.05480  0.50970  Biso   1.000  H
  C296     1.0000 0.11590  0.15410  0.48840  Biso   1.000  C
  C297     1.0000 0.07950  0.18090  0.50600  Biso   1.000  C
  C298     1.0000 0.32530  0.10490  0.39430  Biso   1.000  C
  C299     1.0000 0.34140  0.14400  0.43820  Biso   1.000  C
  H175     1.0000 0.32690  0.15450  0.47430  Biso   1.000  H
  C300     1.0000 0.37680  0.16810  0.43190  Biso   1.000  C
  H176     1.0000 0.38680  0.19300  0.46410  Biso   1.000  H
  C301     1.0000 0.39790  0.15300  0.37330  Biso   1.000  C
  C302     1.0000 0.38140  0.11550  0.32860  Biso   1.000  C
  H177     1.0000 0.39420  0.10580  0.28960  Biso   1.000  H
  C303     1.0000 0.34670  0.09180  0.33960  Biso   1.000  C
  H178     1.0000 0.33730  0.06610  0.30890  Biso   1.000  H
  C304     1.0000 0.43580  0.17830  0.36300  Biso   1.000  C
  C305     1.0000 0.18690  0.15010  0.48760  Biso   1.000  C
  H179     1.0000 0.21330  0.16420  0.49680  Biso   1.000  H
  C306     1.0000 0.15500  0.17310  0.51240  Biso   1.000  C
  H180     1.0000 0.16020  0.19950  0.54310  Biso   1.000  H
  C307     1.0000 0.10890  0.11120  0.45320  Biso   1.000  C
  H181     1.0000 0.08430  0.09480  0.45280  Biso   1.000  H
  C308     1.0000 0.13850  0.09370  0.41950  Biso   1.000  C
  H182     1.0000 0.13130  0.07310  0.37800  Biso   1.000  H
  Yb8      1.0000 0.51464  0.27186  0.04257  Biso   1.000  Yb
  O57      1.0000 0.53580  0.29250  0.16440  Biso   1.000  O
  O58      1.0000 0.54629  0.25343  0.27300  Biso   1.000  O
  O59      1.0000 0.96409  0.31810  0.63040  Biso   1.000  O
  O60      1.0000 0.95290  0.26510  0.53810  Biso   1.000  O
  O61      1.0000 0.58130  0.72320  0.51670  Biso   1.000  O
  O62      1.0000 0.54720  0.66010  0.51390  Biso   1.000  O
  O63      1.0000 0.95490  0.70690  0.41740  Biso   1.000  O
  O64      1.0000 0.94548  0.67030  0.30180  Biso   1.000  O
  C309     1.0000 0.74540  0.45870  0.39720  Biso   1.000  C
  C310     1.0000 0.70780  0.43670  0.36130  Biso   1.000  C
  H183     1.0000 0.68380  0.45270  0.33450  Biso   1.000  H
  C311     1.0000 0.70840  0.38630  0.36840  Biso   1.000  C
  C312     1.0000 0.74440  0.36340  0.40190  Biso   1.000  C
  H184     1.0000 0.74410  0.33150  0.40210  Biso   1.000  H
  C313     1.0000 0.78170  0.38610  0.43570  Biso   1.000  C
  C314     1.0000 0.78190  0.43410  0.43290  Biso   1.000  C
  H185     1.0000 0.80680  0.44990  0.45540  Biso   1.000  H
  C315     1.0000 0.66730  0.36150  0.32930  Biso   1.000  C
  C316     1.0000 0.65520  0.32470  0.36900  Biso   1.000  C
  H186     1.0000 0.67230  0.31640  0.41760  Biso   1.000  H
  C317     1.0000 0.61900  0.30050  0.33920  Biso   1.000  C
  H187     1.0000 0.61130  0.27610  0.36700  Biso   1.000  H
  C318     1.0000 0.59410  0.31260  0.26770  Biso   1.000  C
  C319     1.0000 0.60410  0.34920  0.22460  Biso   1.000  C
  H188     1.0000 0.58670  0.35680  0.17590  Biso   1.000  H
  C320     1.0000 0.64130  0.37420  0.25740  Biso   1.000  C
  H189     1.0000 0.64850  0.39930  0.23080  Biso   1.000  H
  C321     1.0000 0.55560  0.28290  0.23720  Biso   1.000  C
  C322     1.0000 0.82210  0.35950  0.47160  Biso   1.000  C
  C323     1.0000 0.84960  0.37930  0.53730  Biso   1.000  C
  H190     1.0000 0.84230  0.40640  0.55870  Biso   1.000  H
  C324     1.0000 0.88710  0.35820  0.56920  Biso   1.000  C
  H191     1.0000 0.90500  0.37070  0.61390  Biso   1.000  H
  C325     1.0000 0.89900  0.32040  0.53840  Biso   1.000  C
  C326     1.0000 0.87130  0.29950  0.46950  Biso   1.000  C
  H192     1.0000 0.87890  0.27280  0.44750  Biso   1.000  H
  C327     1.0000 0.83250  0.32210  0.43800  Biso   1.000  C
  H193     1.0000 0.81400  0.31050  0.39310  Biso   1.000  H
  C328     1.0000 0.94100  0.29780  0.56790  Biso   1.000  C
  C329     1.0000 0.74760  0.50950  0.40310  Biso   1.000  C
  C330     1.0000 0.78370  0.53400  0.39430  Biso   1.000  C
  H194     1.0000 0.80550  0.51790  0.38080  Biso   1.000  H
  C331     1.0000 0.78760  0.58070  0.40500  Biso   1.000  C
  C332     1.0000 0.75330  0.60500  0.42210  Biso   1.000  C
  H195     1.0000 0.75490  0.63680  0.42740  Biso   1.000  H
  C333     1.0000 0.71780  0.58240  0.43110  Biso   1.000  C
  C334     1.0000 0.71480  0.53440  0.42310  Biso   1.000  C
  H196     1.0000 0.69110  0.51910  0.43110  Biso   1.000  H
  C335     1.0000 0.68250  0.60840  0.45070  Biso   1.000  C
  C336     1.0000 0.67450  0.65150  0.42750  Biso   1.000  C
  H197     1.0000 0.69060  0.66520  0.39690  Biso   1.000  H
  C337     1.0000 0.64250  0.67690  0.44790  Biso   1.000  C
  H198     1.0000 0.63870  0.70790  0.43530  Biso   1.000  H
  C338     1.0000 0.62450  0.61010  0.50910  Biso   1.000  C
  H199     1.0000 0.60700  0.59550  0.53610  Biso   1.000  H
  C339     1.0000 0.65710  0.58510  0.49340  Biso   1.000  C
  H200     1.0000 0.66220  0.55480  0.50970  Biso   1.000  H
  C340     1.0000 0.61590  0.65410  0.48840  Biso   1.000  C
  C341     1.0000 0.57950  0.68090  0.50600  Biso   1.000  C
  C342     1.0000 0.82530  0.60490  0.39430  Biso   1.000  C
  C343     1.0000 0.84140  0.64400  0.43820  Biso   1.000  C
  H201     1.0000 0.82690  0.65450  0.47430  Biso   1.000  H
  C344     1.0000 0.87680  0.66810  0.43190  Biso   1.000  C
  H202     1.0000 0.88680  0.69300  0.46410  Biso   1.000  H
  C345     1.0000 0.89790  0.65300  0.37330  Biso   1.000  C
  C346     1.0000 0.88140  0.61550  0.32860  Biso   1.000  C
  H203     1.0000 0.89420  0.60580  0.28960  Biso   1.000  H
  C347     1.0000 0.84670  0.59180  0.33960  Biso   1.000  C
  H204     1.0000 0.83730  0.56610  0.30890  Biso   1.000  H
  C348     1.0000 0.93580  0.67830  0.36300  Biso   1.000  C
  C349     1.0000 0.68690  0.65010  0.48760  Biso   1.000  C
  H205     1.0000 0.71330  0.66420  0.49680  Biso   1.000  H
  C350     1.0000 0.65500  0.67310  0.51240  Biso   1.000  C
  H206     1.0000 0.66020  0.69950  0.54310  Biso   1.000  H
  C351     1.0000 0.60890  0.61120  0.45320  Biso   1.000  C
  H207     1.0000 0.58430  0.59480  0.45280  Biso   1.000  H
  C352     1.0000 0.63850  0.59370  0.41950  Biso   1.000  C
  H208     1.0000 0.63130  0.57310  0.37800  Biso   1.000  H
  Yb9      1.0000 0.00000  0.30699  0.75000  Biso   1.000  Yb
  Yb10     1.0000 0.50000  0.80699  0.75000  Biso   1.000  Yb
  Yb11     1.0000 0.00000  0.69301  0.25000  Biso   1.000  Yb
  Yb12     1.0000 0.50000  0.19301  0.25000  Biso   1.000  Yb
