data_image0
_cell_length_a       32.301
_cell_length_b       28.825
_cell_length_c       18.692
_cell_angle_alpha    90
_cell_angle_beta     104.24
_cell_angle_gamma    90

_symmetry_space_group_name_H-M    "P 1"
_symmetry_int_tables_number       1

loop_
  _symmetry_equiv_pos_as_xyz
  'x, y, z'

loop_
  _atom_site_label
  _atom_site_occupancy
  _atom_site_fract_x
  _atom_site_fract_y
  _atom_site_fract_z
  _atom_site_thermal_displace_type
  _atom_site_B_iso_or_equiv
  _atom_site_type_symbol
  Lu1      1.0000 0.01456  0.22588  0.54907  Biso   1.000  Lu
  O1       1.0000 0.03834  0.20350  0.66460  Biso   1.000  O
  O2       1.0000 0.04538  0.24440  0.76670  Biso   1.000  O
  O3       1.0000 0.46058  0.18520  0.13910  Biso   1.000  O
  O4       1.0000 0.45376  0.23570  0.04740  Biso   1.000  O
  O5       1.0000 0.08510  0.78060  0.03280  Biso   1.000  O
  O6       1.0000 0.04720  0.84270  0.02010  Biso   1.000  O
  O7       1.0000 0.45369  0.79143  0.91170  Biso   1.000  O
  O8       1.0000 0.44677  0.82550  0.80200  Biso   1.000  O
  C1       1.0000 0.24788  0.04070  0.89860  Biso   1.000  C
  C2       1.0000 0.21077  0.06450  0.86580  Biso   1.000  C
  H1       1.0000 0.18630  0.04800  0.84290  Biso   1.000  H
  C3       1.0000 0.20980  0.11190  0.86660  Biso   1.000  C
  C4       1.0000 0.24616  0.13550  0.89950  Biso   1.000  C
  H2       1.0000 0.24570  0.16770  0.89900  Biso   1.000  H
  C5       1.0000 0.28380  0.11280  0.93380  Biso   1.000  C
  C6       1.0000 0.28369  0.06610  0.93200  Biso   1.000  C
  H3       1.0000 0.30870  0.05040  0.95410  Biso   1.000  H
  C7       1.0000 0.16924  0.13750  0.82930  Biso   1.000  C
  C8       1.0000 0.15640  0.17330  0.86500  Biso   1.000  C
  H4       1.0000 0.17310  0.18200  0.91090  Biso   1.000  H
  C9       1.0000 0.11880  0.19760  0.83530  Biso   1.000  C
  H5       1.0000 0.10920  0.22040  0.86260  Biso   1.000  H
  C10      1.0000 0.09570  0.18690  0.76280  Biso   1.000  C
  C11      1.0000 0.10790  0.14970  0.72590  Biso   1.000  C
  H6       1.0000 0.09220  0.14120  0.67910  Biso   1.000  H
  C12      1.0000 0.14500  0.12480  0.76160  Biso   1.000  C
  H7       1.0000 0.15320  0.09910  0.73830  Biso   1.000  H
  C13      1.0000 0.05630  0.21370  0.73040  Biso   1.000  C
  C14      1.0000 0.32306  0.13800  0.97110  Biso   1.000  C
  C15      1.0000 0.34870  0.12130  0.03790  Biso   1.000  C
  H8       1.0000 0.34080  0.09450  0.05900  Biso   1.000  H
  C16      1.0000 0.38570  0.14470  0.07260  Biso   1.000  C
  H9       1.0000 0.40170  0.13370  0.11780  Biso   1.000  H
  C17      1.0000 0.39908  0.18200  0.04360  Biso   1.000  C
  C18      1.0000 0.37380  0.19990  0.97850  Biso   1.000  C
  H10      1.0000 0.38190  0.22730  0.95950  Biso   1.000  H
  C19      1.0000 0.33610  0.17720  0.94050  Biso   1.000  C
  H11      1.0000 0.32030  0.18850  0.89550  Biso   1.000  H
  C20      1.0000 0.44023  0.20370  0.07910  Biso   1.000  C
  C21      1.0000 0.24915  0.98970  0.90220  Biso   1.000  C
  C22      1.0000 0.28524  0.96630  0.89460  Biso   1.000  C
  H12      1.0000 0.30790  0.98280  0.88480  Biso   1.000  H
  C23      1.0000 0.28785  0.91880  0.90160  Biso   1.000  C
  C24      1.0000 0.25401  0.89560  0.92060  Biso   1.000  C
  H13      1.0000 0.25570  0.86360  0.92710  Biso   1.000  H
  C25      1.0000 0.21781  0.91900  0.93000  Biso   1.000  C
  C26      1.0000 0.21516  0.96550  0.91970  Biso   1.000  C
  H14      1.0000 0.19090  0.98140  0.92430  Biso   1.000  H
  C27      1.0000 0.18210  0.89350  0.95360  Biso   1.000  C
  C28      1.0000 0.17510  0.84890  0.93650  Biso   1.000  C
  H15      1.0000 0.19240  0.83360  0.91110  Biso   1.000  H
  C29      1.0000 0.14150  0.82450  0.95650  Biso   1.000  C
  H16      1.0000 0.13690  0.79320  0.94470  Biso   1.000  H
  C30      1.0000 0.11970  0.89220  0.99930  Biso   1.000  C
  H17      1.0000 0.09850  0.90880  0.01380  Biso   1.000  H
  C31      1.0000 0.15400  0.91660  0.98500  Biso   1.000  C
  H18      1.0000 0.15770  0.94790  0.99650  Biso   1.000  H
  C32      1.0000 0.11590  0.84770  0.99350  Biso   1.000  C
  C33      1.0000 0.07950  0.82060  0.01490  Biso   1.000  C
  C34      1.0000 0.32630  0.89440  0.89340  Biso   1.000  C
  C35      1.0000 0.34210  0.85670  0.93820  Biso   1.000  C
  H19      1.0000 0.32830  0.84710  0.97380  Biso   1.000  H
  C36      1.0000 0.37920  0.83250  0.93060  Biso   1.000  C
  H20      1.0000 0.39010  0.80790  0.96180  Biso   1.000  H
  C37      1.0000 0.39883  0.84600  0.87660  Biso   1.000  C
  C38      1.0000 0.38350  0.88260  0.83010  Biso   1.000  C
  H21      1.0000 0.39660  0.89110  0.79300  Biso   1.000  H
  C39      1.0000 0.34770  0.90680  0.84020  Biso   1.000  C
  H22      1.0000 0.33780  0.93210  0.81010  Biso   1.000  H
  C40      1.0000 0.43600  0.81770  0.86510  Biso   1.000  C
  C41      1.0000 0.19040  0.85600  0.00100  Biso   1.000  C
  H23      1.0000 0.21860  0.84860  0.02390  Biso   1.000  H
  C42      1.0000 0.15820  0.82920  0.01510  Biso   1.000  C
  H24      1.0000 0.16360  0.80030  0.03780  Biso   1.000  H
  C43      1.0000 0.10540  0.88510  0.94210  Biso   1.000  C
  H25      1.0000 0.07740  0.89400  0.92140  Biso   1.000  H
  C44      1.0000 0.14000  0.90720  0.92510  Biso   1.000  C
  H26      1.0000 0.13470  0.93230  0.89300  Biso   1.000  H
  Lu2      1.0000 0.51456  0.72588  0.54907  Biso   1.000  Lu
  O9       1.0000 0.53834  0.70350  0.66460  Biso   1.000  O
  O10      1.0000 0.54538  0.74440  0.76670  Biso   1.000  O
  O11      1.0000 0.96058  0.68520  0.13910  Biso   1.000  O
  O12      1.0000 0.95376  0.73570  0.04740  Biso   1.000  O
  O13      1.0000 0.58510  0.28060  0.03280  Biso   1.000  O
  O14      1.0000 0.54720  0.34270  0.02010  Biso   1.000  O
  O15      1.0000 0.95369  0.29143  0.91170  Biso   1.000  O
  O16      1.0000 0.94677  0.32550  0.80200  Biso   1.000  O
  C45      1.0000 0.74788  0.54070  0.89860  Biso   1.000  C
  C46      1.0000 0.71077  0.56450  0.86580  Biso   1.000  C
  H27      1.0000 0.68630  0.54800  0.84290  Biso   1.000  H
  C47      1.0000 0.70980  0.61190  0.86660  Biso   1.000  C
  C48      1.0000 0.74616  0.63550  0.89950  Biso   1.000  C
  H28      1.0000 0.74570  0.66770  0.89900  Biso   1.000  H
  C49      1.0000 0.78380  0.61280  0.93380  Biso   1.000  C
  C50      1.0000 0.78369  0.56610  0.93200  Biso   1.000  C
  H29      1.0000 0.80870  0.55040  0.95410  Biso   1.000  H
  C51      1.0000 0.66924  0.63750  0.82930  Biso   1.000  C
  C52      1.0000 0.65640  0.67330  0.86500  Biso   1.000  C
  H30      1.0000 0.67310  0.68200  0.91090  Biso   1.000  H
  C53      1.0000 0.61880  0.69760  0.83530  Biso   1.000  C
  H31      1.0000 0.60920  0.72040  0.86260  Biso   1.000  H
  C54      1.0000 0.59570  0.68690  0.76280  Biso   1.000  C
  C55      1.0000 0.60790  0.64970  0.72590  Biso   1.000  C
  H32      1.0000 0.59220  0.64120  0.67910  Biso   1.000  H
  C56      1.0000 0.64500  0.62480  0.76160  Biso   1.000  C
  H33      1.0000 0.65320  0.59910  0.73830  Biso   1.000  H
  C57      1.0000 0.55630  0.71370  0.73040  Biso   1.000  C
  C58      1.0000 0.82306  0.63800  0.97110  Biso   1.000  C
  C59      1.0000 0.84870  0.62130  0.03790  Biso   1.000  C
  H34      1.0000 0.84080  0.59450  0.05900  Biso   1.000  H
  C60      1.0000 0.88570  0.64470  0.07260  Biso   1.000  C
  H35      1.0000 0.90170  0.63370  0.11780  Biso   1.000  H
  C61      1.0000 0.89908  0.68200  0.04360  Biso   1.000  C
  C62      1.0000 0.87380  0.69990  0.97850  Biso   1.000  C
  H36      1.0000 0.88190  0.72730  0.95950  Biso   1.000  H
  C63      1.0000 0.83610  0.67720  0.94050  Biso   1.000  C
  H37      1.0000 0.82030  0.68850  0.89550  Biso   1.000  H
  C64      1.0000 0.94023  0.70370  0.07910  Biso   1.000  C
  C65      1.0000 0.74915  0.48970  0.90220  Biso   1.000  C
  C66      1.0000 0.78524  0.46630  0.89460  Biso   1.000  C
  H38      1.0000 0.80790  0.48280  0.88480  Biso   1.000  H
  C67      1.0000 0.78785  0.41880  0.90160  Biso   1.000  C
  C68      1.0000 0.75401  0.39560  0.92060  Biso   1.000  C
  H39      1.0000 0.75570  0.36360  0.92710  Biso   1.000  H
  C69      1.0000 0.71781  0.41900  0.93000  Biso   1.000  C
  C70      1.0000 0.71516  0.46550  0.91970  Biso   1.000  C
  H40      1.0000 0.69090  0.48140  0.92430  Biso   1.000  H
  C71      1.0000 0.68210  0.39350  0.95360  Biso   1.000  C
  C72      1.0000 0.67510  0.34890  0.93650  Biso   1.000  C
  H41      1.0000 0.69240  0.33360  0.91110  Biso   1.000  H
  C73      1.0000 0.64150  0.32450  0.95650  Biso   1.000  C
  H42      1.0000 0.63690  0.29320  0.94470  Biso   1.000  H
  C74      1.0000 0.61970  0.39220  0.99930  Biso   1.000  C
  H43      1.0000 0.59850  0.40880  0.01380  Biso   1.000  H
  C75      1.0000 0.65400  0.41660  0.98500  Biso   1.000  C
  H44      1.0000 0.65770  0.44790  0.99650  Biso   1.000  H
  C76      1.0000 0.61590  0.34770  0.99350  Biso   1.000  C
  C77      1.0000 0.57950  0.32060  0.01490  Biso   1.000  C
  C78      1.0000 0.82630  0.39440  0.89340  Biso   1.000  C
  C79      1.0000 0.84210  0.35670  0.93820  Biso   1.000  C
  H45      1.0000 0.82830  0.34710  0.97380  Biso   1.000  H
  C80      1.0000 0.87920  0.33250  0.93060  Biso   1.000  C
  H46      1.0000 0.89010  0.30790  0.96180  Biso   1.000  H
  C81      1.0000 0.89883  0.34600  0.87660  Biso   1.000  C
  C82      1.0000 0.88350  0.38260  0.83010  Biso   1.000  C
  H47      1.0000 0.89660  0.39110  0.79300  Biso   1.000  H
  C83      1.0000 0.84770  0.40680  0.84020  Biso   1.000  C
  H48      1.0000 0.83780  0.43210  0.81010  Biso   1.000  H
  C84      1.0000 0.93600  0.31770  0.86510  Biso   1.000  C
  C85      1.0000 0.69040  0.35600  0.00100  Biso   1.000  C
  H49      1.0000 0.71860  0.34860  0.02390  Biso   1.000  H
  C86      1.0000 0.65820  0.32920  0.01510  Biso   1.000  C
  H50      1.0000 0.66360  0.30030  0.03780  Biso   1.000  H
  C87      1.0000 0.60540  0.38510  0.94210  Biso   1.000  C
  H51      1.0000 0.57740  0.39400  0.92140  Biso   1.000  H
  C88      1.0000 0.64000  0.40720  0.92510  Biso   1.000  C
  H52      1.0000 0.63470  0.43230  0.89300  Biso   1.000  H
  Lu3      1.0000 0.98544  0.22588  0.95093  Biso   1.000  Lu
  O17      1.0000 0.96166  0.20350  0.83540  Biso   1.000  O
  O18      1.0000 0.95462  0.24440  0.73330  Biso   1.000  O
  O19      1.0000 0.53942  0.18520  0.36090  Biso   1.000  O
  O20      1.0000 0.54624  0.23570  0.45260  Biso   1.000  O
  O21      1.0000 0.91490  0.78060  0.46720  Biso   1.000  O
  O22      1.0000 0.95280  0.84270  0.47990  Biso   1.000  O
  O23      1.0000 0.54631  0.79143  0.58830  Biso   1.000  O
  O24      1.0000 0.55323  0.82550  0.69800  Biso   1.000  O
  C89      1.0000 0.75212  0.04070  0.60140  Biso   1.000  C
  C90      1.0000 0.78923  0.06450  0.63420  Biso   1.000  C
  H53      1.0000 0.81370  0.04800  0.65710  Biso   1.000  H
  C91      1.0000 0.79020  0.11190  0.63340  Biso   1.000  C
  C92      1.0000 0.75384  0.13550  0.60050  Biso   1.000  C
  H54      1.0000 0.75430  0.16770  0.60100  Biso   1.000  H
  C93      1.0000 0.71620  0.11280  0.56620  Biso   1.000  C
  C94      1.0000 0.71631  0.06610  0.56800  Biso   1.000  C
  H55      1.0000 0.69130  0.05040  0.54590  Biso   1.000  H
  C95      1.0000 0.83076  0.13750  0.67070  Biso   1.000  C
  C96      1.0000 0.84360  0.17330  0.63500  Biso   1.000  C
  H56      1.0000 0.82690  0.18200  0.58910  Biso   1.000  H
  C97      1.0000 0.88120  0.19760  0.66470  Biso   1.000  C
  H57      1.0000 0.89080  0.22040  0.63740  Biso   1.000  H
  C98      1.0000 0.90430  0.18690  0.73720  Biso   1.000  C
  C99      1.0000 0.89210  0.14970  0.77410  Biso   1.000  C
  H58      1.0000 0.90780  0.14120  0.82090  Biso   1.000  H
  C100     1.0000 0.85500  0.12480  0.73840  Biso   1.000  C
  H59      1.0000 0.84680  0.09910  0.76170  Biso   1.000  H
  C101     1.0000 0.94370  0.21370  0.76960  Biso   1.000  C
  C102     1.0000 0.67694  0.13800  0.52890  Biso   1.000  C
  C103     1.0000 0.65130  0.12130  0.46210  Biso   1.000  C
  H60      1.0000 0.65920  0.09450  0.44100  Biso   1.000  H
  C104     1.0000 0.61430  0.14470  0.42740  Biso   1.000  C
  H61      1.0000 0.59830  0.13370  0.38220  Biso   1.000  H
  C105     1.0000 0.60092  0.18200  0.45640  Biso   1.000  C
  C106     1.0000 0.62620  0.19990  0.52150  Biso   1.000  C
  H62      1.0000 0.61810  0.22730  0.54050  Biso   1.000  H
  C107     1.0000 0.66390  0.17720  0.55950  Biso   1.000  C
  H63      1.0000 0.67970  0.18850  0.60450  Biso   1.000  H
  C108     1.0000 0.55977  0.20370  0.42090  Biso   1.000  C
  C109     1.0000 0.75085  0.98970  0.59780  Biso   1.000  C
  C110     1.0000 0.71476  0.96630  0.60540  Biso   1.000  C
  H64      1.0000 0.69210  0.98280  0.61520  Biso   1.000  H
  C111     1.0000 0.71215  0.91880  0.59840  Biso   1.000  C
  C112     1.0000 0.74599  0.89560  0.57940  Biso   1.000  C
  H65      1.0000 0.74430  0.86360  0.57290  Biso   1.000  H
  C113     1.0000 0.78219  0.91900  0.57000  Biso   1.000  C
  C114     1.0000 0.78484  0.96550  0.58030  Biso   1.000  C
  H66      1.0000 0.80910  0.98140  0.57570  Biso   1.000  H
  C115     1.0000 0.81790  0.89350  0.54640  Biso   1.000  C
  C116     1.0000 0.82490  0.84890  0.56350  Biso   1.000  C
  H67      1.0000 0.80760  0.83360  0.58890  Biso   1.000  H
  C117     1.0000 0.85850  0.82450  0.54350  Biso   1.000  C
  H68      1.0000 0.86310  0.79320  0.55530  Biso   1.000  H
  C118     1.0000 0.88030  0.89220  0.50070  Biso   1.000  C
  H69      1.0000 0.90150  0.90880  0.48620  Biso   1.000  H
  C119     1.0000 0.84600  0.91660  0.51500  Biso   1.000  C
  H70      1.0000 0.84230  0.94790  0.50350  Biso   1.000  H
  C120     1.0000 0.88410  0.84770  0.50650  Biso   1.000  C
  C121     1.0000 0.92050  0.82060  0.48510  Biso   1.000  C
  C122     1.0000 0.67370  0.89440  0.60660  Biso   1.000  C
  C123     1.0000 0.65790  0.85670  0.56180  Biso   1.000  C
  H71      1.0000 0.67170  0.84710  0.52620  Biso   1.000  H
  C124     1.0000 0.62080  0.83250  0.56940  Biso   1.000  C
  H72      1.0000 0.60990  0.80790  0.53820  Biso   1.000  H
  C125     1.0000 0.60117  0.84600  0.62340  Biso   1.000  C
  C126     1.0000 0.61650  0.88260  0.66990  Biso   1.000  C
  H73      1.0000 0.60340  0.89110  0.70700  Biso   1.000  H
  C127     1.0000 0.65230  0.90680  0.65980  Biso   1.000  C
  H74      1.0000 0.66220  0.93210  0.68990  Biso   1.000  H
  C128     1.0000 0.56400  0.81770  0.63490  Biso   1.000  C
  C129     1.0000 0.80960  0.85600  0.49900  Biso   1.000  C
  H75      1.0000 0.78140  0.84860  0.47610  Biso   1.000  H
  C130     1.0000 0.84180  0.82920  0.48490  Biso   1.000  C
  H76      1.0000 0.83640  0.80030  0.46220  Biso   1.000  H
  C131     1.0000 0.89460  0.88510  0.55790  Biso   1.000  C
  H77      1.0000 0.92260  0.89400  0.57860  Biso   1.000  H
  C132     1.0000 0.86000  0.90720  0.57490  Biso   1.000  C
  H78      1.0000 0.86530  0.93230  0.60700  Biso   1.000  H
  Lu4      1.0000 0.48544  0.72588  0.95093  Biso   1.000  Lu
  O25      1.0000 0.46166  0.70350  0.83540  Biso   1.000  O
  O26      1.0000 0.45462  0.74440  0.73330  Biso   1.000  O
  O27      1.0000 0.03942  0.68520  0.36090  Biso   1.000  O
  O28      1.0000 0.04624  0.73570  0.45260  Biso   1.000  O
  O29      1.0000 0.41490  0.28060  0.46720  Biso   1.000  O
  O30      1.0000 0.45280  0.34270  0.47990  Biso   1.000  O
  O31      1.0000 0.04631  0.29143  0.58830  Biso   1.000  O
  O32      1.0000 0.05323  0.32550  0.69800  Biso   1.000  O
  C133     1.0000 0.25212  0.54070  0.60140  Biso   1.000  C
  C134     1.0000 0.28923  0.56450  0.63420  Biso   1.000  C
  H79      1.0000 0.31370  0.54800  0.65710  Biso   1.000  H
  C135     1.0000 0.29020  0.61190  0.63340  Biso   1.000  C
  C136     1.0000 0.25384  0.63550  0.60050  Biso   1.000  C
  H80      1.0000 0.25430  0.66770  0.60100  Biso   1.000  H
  C137     1.0000 0.21620  0.61280  0.56620  Biso   1.000  C
  C138     1.0000 0.21631  0.56610  0.56800  Biso   1.000  C
  H81      1.0000 0.19130  0.55040  0.54590  Biso   1.000  H
  C139     1.0000 0.33076  0.63750  0.67070  Biso   1.000  C
  C140     1.0000 0.34360  0.67330  0.63500  Biso   1.000  C
  H82      1.0000 0.32690  0.68200  0.58910  Biso   1.000  H
  C141     1.0000 0.38120  0.69760  0.66470  Biso   1.000  C
  H83      1.0000 0.39080  0.72040  0.63740  Biso   1.000  H
  C142     1.0000 0.40430  0.68690  0.73720  Biso   1.000  C
  C143     1.0000 0.39210  0.64970  0.77410  Biso   1.000  C
  H84      1.0000 0.40780  0.64120  0.82090  Biso   1.000  H
  C144     1.0000 0.35500  0.62480  0.73840  Biso   1.000  C
  H85      1.0000 0.34680  0.59910  0.76170  Biso   1.000  H
  C145     1.0000 0.44370  0.71370  0.76960  Biso   1.000  C
  C146     1.0000 0.17694  0.63800  0.52890  Biso   1.000  C
  C147     1.0000 0.15130  0.62130  0.46210  Biso   1.000  C
  H86      1.0000 0.15920  0.59450  0.44100  Biso   1.000  H
  C148     1.0000 0.11430  0.64470  0.42740  Biso   1.000  C
  H87      1.0000 0.09830  0.63370  0.38220  Biso   1.000  H
  C149     1.0000 0.10092  0.68200  0.45640  Biso   1.000  C
  C150     1.0000 0.12620  0.69990  0.52150  Biso   1.000  C
  H88      1.0000 0.11810  0.72730  0.54050  Biso   1.000  H
  C151     1.0000 0.16390  0.67720  0.55950  Biso   1.000  C
  H89      1.0000 0.17970  0.68850  0.60450  Biso   1.000  H
  C152     1.0000 0.05977  0.70370  0.42090  Biso   1.000  C
  C153     1.0000 0.25085  0.48970  0.59780  Biso   1.000  C
  C154     1.0000 0.21476  0.46630  0.60540  Biso   1.000  C
  H90      1.0000 0.19210  0.48280  0.61520  Biso   1.000  H
  C155     1.0000 0.21215  0.41880  0.59840  Biso   1.000  C
  C156     1.0000 0.24599  0.39560  0.57940  Biso   1.000  C
  H91      1.0000 0.24430  0.36360  0.57290  Biso   1.000  H
  C157     1.0000 0.28219  0.41900  0.57000  Biso   1.000  C
  C158     1.0000 0.28484  0.46550  0.58030  Biso   1.000  C
  H92      1.0000 0.30910  0.48140  0.57570  Biso   1.000  H
  C159     1.0000 0.31790  0.39350  0.54640  Biso   1.000  C
  C160     1.0000 0.32490  0.34890  0.56350  Biso   1.000  C
  H93      1.0000 0.30760  0.33360  0.58890  Biso   1.000  H
  C161     1.0000 0.35850  0.32450  0.54350  Biso   1.000  C
  H94      1.0000 0.36310  0.29320  0.55530  Biso   1.000  H
  C162     1.0000 0.38030  0.39220  0.50070  Biso   1.000  C
  H95      1.0000 0.40150  0.40880  0.48620  Biso   1.000  H
  C163     1.0000 0.34600  0.41660  0.51500  Biso   1.000  C
  H96      1.0000 0.34230  0.44790  0.50350  Biso   1.000  H
  C164     1.0000 0.38410  0.34770  0.50650  Biso   1.000  C
  C165     1.0000 0.42050  0.32060  0.48510  Biso   1.000  C
  C166     1.0000 0.17370  0.39440  0.60660  Biso   1.000  C
  C167     1.0000 0.15790  0.35670  0.56180  Biso   1.000  C
  H97      1.0000 0.17170  0.34710  0.52620  Biso   1.000  H
  C168     1.0000 0.12080  0.33250  0.56940  Biso   1.000  C
  H98      1.0000 0.10990  0.30790  0.53820  Biso   1.000  H
  C169     1.0000 0.10117  0.34600  0.62340  Biso   1.000  C
  C170     1.0000 0.11650  0.38260  0.66990  Biso   1.000  C
  H99      1.0000 0.10340  0.39110  0.70700  Biso   1.000  H
  C171     1.0000 0.15230  0.40680  0.65980  Biso   1.000  C
  H100     1.0000 0.16220  0.43210  0.68990  Biso   1.000  H
  C172     1.0000 0.06400  0.31770  0.63490  Biso   1.000  C
  C173     1.0000 0.30960  0.35600  0.49900  Biso   1.000  C
  H101     1.0000 0.28140  0.34860  0.47610  Biso   1.000  H
  C174     1.0000 0.34180  0.32920  0.48490  Biso   1.000  C
  H102     1.0000 0.33640  0.30030  0.46220  Biso   1.000  H
  C175     1.0000 0.39460  0.38510  0.55790  Biso   1.000  C
  H103     1.0000 0.42260  0.39400  0.57860  Biso   1.000  H
  C176     1.0000 0.36000  0.40720  0.57490  Biso   1.000  C
  H104     1.0000 0.36530  0.43230  0.60700  Biso   1.000  H
  Lu5      1.0000 0.98544  0.77412  0.45093  Biso   1.000  Lu
  O33      1.0000 0.96166  0.79650  0.33540  Biso   1.000  O
  O34      1.0000 0.95462  0.75560  0.23330  Biso   1.000  O
  O35      1.0000 0.53942  0.81480  0.86090  Biso   1.000  O
  O36      1.0000 0.54624  0.76430  0.95260  Biso   1.000  O
  O37      1.0000 0.91490  0.21940  0.96720  Biso   1.000  O
  O38      1.0000 0.95280  0.15730  0.97990  Biso   1.000  O
  O39      1.0000 0.54631  0.20857  0.08830  Biso   1.000  O
  O40      1.0000 0.55323  0.17450  0.19800  Biso   1.000  O
  C177     1.0000 0.75212  0.95930  0.10140  Biso   1.000  C
  C178     1.0000 0.78923  0.93550  0.13420  Biso   1.000  C
  H105     1.0000 0.81370  0.95200  0.15710  Biso   1.000  H
  C179     1.0000 0.79020  0.88810  0.13340  Biso   1.000  C
  C180     1.0000 0.75384  0.86450  0.10050  Biso   1.000  C
  H106     1.0000 0.75430  0.83230  0.10100  Biso   1.000  H
  C181     1.0000 0.71620  0.88720  0.06620  Biso   1.000  C
  C182     1.0000 0.71631  0.93390  0.06800  Biso   1.000  C
  H107     1.0000 0.69130  0.94960  0.04590  Biso   1.000  H
  C183     1.0000 0.83076  0.86250  0.17070  Biso   1.000  C
  C184     1.0000 0.84360  0.82670  0.13500  Biso   1.000  C
  H108     1.0000 0.82690  0.81800  0.08910  Biso   1.000  H
  C185     1.0000 0.88120  0.80240  0.16470  Biso   1.000  C
  H109     1.0000 0.89080  0.77960  0.13740  Biso   1.000  H
  C186     1.0000 0.90430  0.81310  0.23720  Biso   1.000  C
  C187     1.0000 0.89210  0.85030  0.27410  Biso   1.000  C
  H110     1.0000 0.90780  0.85880  0.32090  Biso   1.000  H
  C188     1.0000 0.85500  0.87520  0.23840  Biso   1.000  C
  H111     1.0000 0.84680  0.90090  0.26170  Biso   1.000  H
  C189     1.0000 0.94370  0.78630  0.26960  Biso   1.000  C
  C190     1.0000 0.67694  0.86200  0.02890  Biso   1.000  C
  C191     1.0000 0.65130  0.87870  0.96210  Biso   1.000  C
  H112     1.0000 0.65920  0.90550  0.94100  Biso   1.000  H
  C192     1.0000 0.61430  0.85530  0.92740  Biso   1.000  C
  H113     1.0000 0.59830  0.86630  0.88220  Biso   1.000  H
  C193     1.0000 0.60092  0.81800  0.95640  Biso   1.000  C
  C194     1.0000 0.62620  0.80010  0.02150  Biso   1.000  C
  H114     1.0000 0.61810  0.77270  0.04050  Biso   1.000  H
  C195     1.0000 0.66390  0.82280  0.05950  Biso   1.000  C
  H115     1.0000 0.67970  0.81150  0.10450  Biso   1.000  H
  C196     1.0000 0.55977  0.79630  0.92090  Biso   1.000  C
  C197     1.0000 0.75085  0.01030  0.09780  Biso   1.000  C
  C198     1.0000 0.71476  0.03370  0.10540  Biso   1.000  C
  H116     1.0000 0.69210  0.01720  0.11520  Biso   1.000  H
  C199     1.0000 0.71215  0.08120  0.09840  Biso   1.000  C
  C200     1.0000 0.74599  0.10440  0.07940  Biso   1.000  C
  H117     1.0000 0.74430  0.13640  0.07290  Biso   1.000  H
  C201     1.0000 0.78219  0.08100  0.07000  Biso   1.000  C
  C202     1.0000 0.78484  0.03450  0.08030  Biso   1.000  C
  H118     1.0000 0.80910  0.01860  0.07570  Biso   1.000  H
  C203     1.0000 0.81790  0.10650  0.04640  Biso   1.000  C
  C204     1.0000 0.82490  0.15110  0.06350  Biso   1.000  C
  H119     1.0000 0.80760  0.16640  0.08890  Biso   1.000  H
  C205     1.0000 0.85850  0.17550  0.04350  Biso   1.000  C
  H120     1.0000 0.86310  0.20680  0.05530  Biso   1.000  H
  C206     1.0000 0.88030  0.10780  0.00070  Biso   1.000  C
  H121     1.0000 0.90150  0.09120  0.98620  Biso   1.000  H
  C207     1.0000 0.84600  0.08340  0.01500  Biso   1.000  C
  H122     1.0000 0.84230  0.05210  0.00350  Biso   1.000  H
  C208     1.0000 0.88410  0.15230  0.00650  Biso   1.000  C
  C209     1.0000 0.92050  0.17940  0.98510  Biso   1.000  C
  C210     1.0000 0.67370  0.10560  0.10660  Biso   1.000  C
  C211     1.0000 0.65790  0.14330  0.06180  Biso   1.000  C
  H123     1.0000 0.67170  0.15290  0.02620  Biso   1.000  H
  C212     1.0000 0.62080  0.16750  0.06940  Biso   1.000  C
  H124     1.0000 0.60990  0.19210  0.03820  Biso   1.000  H
  C213     1.0000 0.60117  0.15400  0.12340  Biso   1.000  C
  C214     1.0000 0.61650  0.11740  0.16990  Biso   1.000  C
  H125     1.0000 0.60340  0.10890  0.20700  Biso   1.000  H
  C215     1.0000 0.65230  0.09320  0.15980  Biso   1.000  C
  H126     1.0000 0.66220  0.06790  0.18990  Biso   1.000  H
  C216     1.0000 0.56400  0.18230  0.13490  Biso   1.000  C
  C217     1.0000 0.80960  0.14400  0.99900  Biso   1.000  C
  H127     1.0000 0.78140  0.15140  0.97610  Biso   1.000  H
  C218     1.0000 0.84180  0.17080  0.98490  Biso   1.000  C
  H128     1.0000 0.83640  0.19970  0.96220  Biso   1.000  H
  C219     1.0000 0.89460  0.11490  0.05790  Biso   1.000  C
  H129     1.0000 0.92260  0.10600  0.07860  Biso   1.000  H
  C220     1.0000 0.86000  0.09280  0.07490  Biso   1.000  C
  H130     1.0000 0.86530  0.06770  0.10700  Biso   1.000  H
  Lu6      1.0000 0.48544  0.27412  0.45093  Biso   1.000  Lu
  O41      1.0000 0.46166  0.29650  0.33540  Biso   1.000  O
  O42      1.0000 0.45462  0.25560  0.23330  Biso   1.000  O
  O43      1.0000 0.03942  0.31480  0.86090  Biso   1.000  O
  O44      1.0000 0.04624  0.26430  0.95260  Biso   1.000  O
  O45      1.0000 0.41490  0.71940  0.96720  Biso   1.000  O
  O46      1.0000 0.45280  0.65730  0.97990  Biso   1.000  O
  O47      1.0000 0.04631  0.70857  0.08830  Biso   1.000  O
  O48      1.0000 0.05323  0.67450  0.19800  Biso   1.000  O
  C221     1.0000 0.25212  0.45930  0.10140  Biso   1.000  C
  C222     1.0000 0.28923  0.43550  0.13420  Biso   1.000  C
  H131     1.0000 0.31370  0.45200  0.15710  Biso   1.000  H
  C223     1.0000 0.29020  0.38810  0.13340  Biso   1.000  C
  C224     1.0000 0.25384  0.36450  0.10050  Biso   1.000  C
  H132     1.0000 0.25430  0.33230  0.10100  Biso   1.000  H
  C225     1.0000 0.21620  0.38720  0.06620  Biso   1.000  C
  C226     1.0000 0.21631  0.43390  0.06800  Biso   1.000  C
  H133     1.0000 0.19130  0.44960  0.04590  Biso   1.000  H
  C227     1.0000 0.33076  0.36250  0.17070  Biso   1.000  C
  C228     1.0000 0.34360  0.32670  0.13500  Biso   1.000  C
  H134     1.0000 0.32690  0.31800  0.08910  Biso   1.000  H
  C229     1.0000 0.38120  0.30240  0.16470  Biso   1.000  C
  H135     1.0000 0.39080  0.27960  0.13740  Biso   1.000  H
  C230     1.0000 0.40430  0.31310  0.23720  Biso   1.000  C
  C231     1.0000 0.39210  0.35030  0.27410  Biso   1.000  C
  H136     1.0000 0.40780  0.35880  0.32090  Biso   1.000  H
  C232     1.0000 0.35500  0.37520  0.23840  Biso   1.000  C
  H137     1.0000 0.34680  0.40090  0.26170  Biso   1.000  H
  C233     1.0000 0.44370  0.28630  0.26960  Biso   1.000  C
  C234     1.0000 0.17694  0.36200  0.02890  Biso   1.000  C
  C235     1.0000 0.15130  0.37870  0.96210  Biso   1.000  C
  H138     1.0000 0.15920  0.40550  0.94100  Biso   1.000  H
  C236     1.0000 0.11430  0.35530  0.92740  Biso   1.000  C
  H139     1.0000 0.09830  0.36630  0.88220  Biso   1.000  H
  C237     1.0000 0.10092  0.31800  0.95640  Biso   1.000  C
  C238     1.0000 0.12620  0.30010  0.02150  Biso   1.000  C
  H140     1.0000 0.11810  0.27270  0.04050  Biso   1.000  H
  C239     1.0000 0.16390  0.32280  0.05950  Biso   1.000  C
  H141     1.0000 0.17970  0.31150  0.10450  Biso   1.000  H
  C240     1.0000 0.05977  0.29630  0.92090  Biso   1.000  C
  C241     1.0000 0.25085  0.51030  0.09780  Biso   1.000  C
  C242     1.0000 0.21476  0.53370  0.10540  Biso   1.000  C
  H142     1.0000 0.19210  0.51720  0.11520  Biso   1.000  H
  C243     1.0000 0.21215  0.58120  0.09840  Biso   1.000  C
  C244     1.0000 0.24599  0.60440  0.07940  Biso   1.000  C
  H143     1.0000 0.24430  0.63640  0.07290  Biso   1.000  H
  C245     1.0000 0.28219  0.58100  0.07000  Biso   1.000  C
  C246     1.0000 0.28484  0.53450  0.08030  Biso   1.000  C
  H144     1.0000 0.30910  0.51860  0.07570  Biso   1.000  H
  C247     1.0000 0.31790  0.60650  0.04640  Biso   1.000  C
  C248     1.0000 0.32490  0.65110  0.06350  Biso   1.000  C
  H145     1.0000 0.30760  0.66640  0.08890  Biso   1.000  H
  C249     1.0000 0.35850  0.67550  0.04350  Biso   1.000  C
  H146     1.0000 0.36310  0.70680  0.05530  Biso   1.000  H
  C250     1.0000 0.38030  0.60780  0.00070  Biso   1.000  C
  H147     1.0000 0.40150  0.59120  0.98620  Biso   1.000  H
  C251     1.0000 0.34600  0.58340  0.01500  Biso   1.000  C
  H148     1.0000 0.34230  0.55210  0.00350  Biso   1.000  H
  C252     1.0000 0.38410  0.65230  0.00650  Biso   1.000  C
  C253     1.0000 0.42050  0.67940  0.98510  Biso   1.000  C
  C254     1.0000 0.17370  0.60560  0.10660  Biso   1.000  C
  C255     1.0000 0.15790  0.64330  0.06180  Biso   1.000  C
  H149     1.0000 0.17170  0.65290  0.02620  Biso   1.000  H
  C256     1.0000 0.12080  0.66750  0.06940  Biso   1.000  C
  H150     1.0000 0.10990  0.69210  0.03820  Biso   1.000  H
  C257     1.0000 0.10117  0.65400  0.12340  Biso   1.000  C
  C258     1.0000 0.11650  0.61740  0.16990  Biso   1.000  C
  H151     1.0000 0.10340  0.60890  0.20700  Biso   1.000  H
  C259     1.0000 0.15230  0.59320  0.15980  Biso   1.000  C
  H152     1.0000 0.16220  0.56790  0.18990  Biso   1.000  H
  C260     1.0000 0.06400  0.68230  0.13490  Biso   1.000  C
  C261     1.0000 0.30960  0.64400  0.99900  Biso   1.000  C
  H153     1.0000 0.28140  0.65140  0.97610  Biso   1.000  H
  C262     1.0000 0.34180  0.67080  0.98490  Biso   1.000  C
  H154     1.0000 0.33640  0.69970  0.96220  Biso   1.000  H
  C263     1.0000 0.39460  0.61490  0.05790  Biso   1.000  C
  H155     1.0000 0.42260  0.60600  0.07860  Biso   1.000  H
  C264     1.0000 0.36000  0.59280  0.07490  Biso   1.000  C
  H156     1.0000 0.36530  0.56770  0.10700  Biso   1.000  H
  Lu7      1.0000 0.01456  0.77412  0.04907  Biso   1.000  Lu
  O49      1.0000 0.03834  0.79650  0.16460  Biso   1.000  O
  O50      1.0000 0.04538  0.75560  0.26670  Biso   1.000  O
  O51      1.0000 0.46058  0.81480  0.63910  Biso   1.000  O
  O52      1.0000 0.45376  0.76430  0.54740  Biso   1.000  O
  O53      1.0000 0.08510  0.21940  0.53280  Biso   1.000  O
  O54      1.0000 0.04720  0.15730  0.52010  Biso   1.000  O
  O55      1.0000 0.45369  0.20857  0.41170  Biso   1.000  O
  O56      1.0000 0.44677  0.17450  0.30200  Biso   1.000  O
  C265     1.0000 0.24788  0.95930  0.39860  Biso   1.000  C
  C266     1.0000 0.21077  0.93550  0.36580  Biso   1.000  C
  H157     1.0000 0.18630  0.95200  0.34290  Biso   1.000  H
  C267     1.0000 0.20980  0.88810  0.36660  Biso   1.000  C
  C268     1.0000 0.24616  0.86450  0.39950  Biso   1.000  C
  H158     1.0000 0.24570  0.83230  0.39900  Biso   1.000  H
  C269     1.0000 0.28380  0.88720  0.43380  Biso   1.000  C
  C270     1.0000 0.28369  0.93390  0.43200  Biso   1.000  C
  H159     1.0000 0.30870  0.94960  0.45410  Biso   1.000  H
  C271     1.0000 0.16924  0.86250  0.32930  Biso   1.000  C
  C272     1.0000 0.15640  0.82670  0.36500  Biso   1.000  C
  H160     1.0000 0.17310  0.81800  0.41090  Biso   1.000  H
  C273     1.0000 0.11880  0.80240  0.33530  Biso   1.000  C
  H161     1.0000 0.10920  0.77960  0.36260  Biso   1.000  H
  C274     1.0000 0.09570  0.81310  0.26280  Biso   1.000  C
  C275     1.0000 0.10790  0.85030  0.22590  Biso   1.000  C
  H162     1.0000 0.09220  0.85880  0.17910  Biso   1.000  H
  C276     1.0000 0.14500  0.87520  0.26160  Biso   1.000  C
  H163     1.0000 0.15320  0.90090  0.23830  Biso   1.000  H
  C277     1.0000 0.05630  0.78630  0.23040  Biso   1.000  C
  C278     1.0000 0.32306  0.86200  0.47110  Biso   1.000  C
  C279     1.0000 0.34870  0.87870  0.53790  Biso   1.000  C
  H164     1.0000 0.34080  0.90550  0.55900  Biso   1.000  H
  C280     1.0000 0.38570  0.85530  0.57260  Biso   1.000  C
  H165     1.0000 0.40170  0.86630  0.61780  Biso   1.000  H
  C281     1.0000 0.39908  0.81800  0.54360  Biso   1.000  C
  C282     1.0000 0.37380  0.80010  0.47850  Biso   1.000  C
  H166     1.0000 0.38190  0.77270  0.45950  Biso   1.000  H
  C283     1.0000 0.33610  0.82280  0.44050  Biso   1.000  C
  H167     1.0000 0.32030  0.81150  0.39550  Biso   1.000  H
  C284     1.0000 0.44023  0.79630  0.57910  Biso   1.000  C
  C285     1.0000 0.24915  0.01030  0.40220  Biso   1.000  C
  C286     1.0000 0.28524  0.03370  0.39460  Biso   1.000  C
  H168     1.0000 0.30790  0.01720  0.38480  Biso   1.000  H
  C287     1.0000 0.28785  0.08120  0.40160  Biso   1.000  C
  C288     1.0000 0.25401  0.10440  0.42060  Biso   1.000  C
  H169     1.0000 0.25570  0.13640  0.42710  Biso   1.000  H
  C289     1.0000 0.21781  0.08100  0.43000  Biso   1.000  C
  C290     1.0000 0.21516  0.03450  0.41970  Biso   1.000  C
  H170     1.0000 0.19090  0.01860  0.42430  Biso   1.000  H
  C291     1.0000 0.18210  0.10650  0.45360  Biso   1.000  C
  C292     1.0000 0.17510  0.15110  0.43650  Biso   1.000  C
  H171     1.0000 0.19240  0.16640  0.41110  Biso   1.000  H
  C293     1.0000 0.14150  0.17550  0.45650  Biso   1.000  C
  H172     1.0000 0.13690  0.20680  0.44470  Biso   1.000  H
  C294     1.0000 0.11970  0.10780  0.49930  Biso   1.000  C
  H173     1.0000 0.09850  0.09120  0.51380  Biso   1.000  H
  C295     1.0000 0.15400  0.08340  0.48500  Biso   1.000  C
  H174     1.0000 0.15770  0.05210  0.49650  Biso   1.000  H
  C296     1.0000 0.11590  0.15230  0.49350  Biso   1.000  C
  C297     1.0000 0.07950  0.17940  0.51490  Biso   1.000  C
  C298     1.0000 0.32630  0.10560  0.39340  Biso   1.000  C
  C299     1.0000 0.34210  0.14330  0.43820  Biso   1.000  C
  H175     1.0000 0.32830  0.15290  0.47380  Biso   1.000  H
  C300     1.0000 0.37920  0.16750  0.43060  Biso   1.000  C
  H176     1.0000 0.39010  0.19210  0.46180  Biso   1.000  H
  C301     1.0000 0.39883  0.15400  0.37660  Biso   1.000  C
  C302     1.0000 0.38350  0.11740  0.33010  Biso   1.000  C
  H177     1.0000 0.39660  0.10890  0.29300  Biso   1.000  H
  C303     1.0000 0.34770  0.09320  0.34020  Biso   1.000  C
  H178     1.0000 0.33780  0.06790  0.31010  Biso   1.000  H
  C304     1.0000 0.43600  0.18230  0.36510  Biso   1.000  C
  C305     1.0000 0.19040  0.14400  0.50100  Biso   1.000  C
  H179     1.0000 0.21860  0.15140  0.52390  Biso   1.000  H
  C306     1.0000 0.15820  0.17080  0.51510  Biso   1.000  C
  H180     1.0000 0.16360  0.19970  0.53780  Biso   1.000  H
  C307     1.0000 0.10540  0.11490  0.44210  Biso   1.000  C
  H181     1.0000 0.07740  0.10600  0.42140  Biso   1.000  H
  C308     1.0000 0.14000  0.09280  0.42510  Biso   1.000  C
  H182     1.0000 0.13470  0.06770  0.39300  Biso   1.000  H
  Lu8      1.0000 0.51456  0.27412  0.04907  Biso   1.000  Lu
  O57      1.0000 0.53834  0.29650  0.16460  Biso   1.000  O
  O58      1.0000 0.54538  0.25560  0.26670  Biso   1.000  O
  O59      1.0000 0.96058  0.31480  0.63910  Biso   1.000  O
  O60      1.0000 0.95376  0.26430  0.54740  Biso   1.000  O
  O61      1.0000 0.58510  0.71940  0.53280  Biso   1.000  O
  O62      1.0000 0.54720  0.65730  0.52010  Biso   1.000  O
  O63      1.0000 0.95369  0.70857  0.41170  Biso   1.000  O
  O64      1.0000 0.94677  0.67450  0.30200  Biso   1.000  O
  C309     1.0000 0.74788  0.45930  0.39860  Biso   1.000  C
  C310     1.0000 0.71077  0.43550  0.36580  Biso   1.000  C
  H183     1.0000 0.68630  0.45200  0.34290  Biso   1.000  H
  C311     1.0000 0.70980  0.38810  0.36660  Biso   1.000  C
  C312     1.0000 0.74616  0.36450  0.39950  Biso   1.000  C
  H184     1.0000 0.74570  0.33230  0.39900  Biso   1.000  H
  C313     1.0000 0.78380  0.38720  0.43380  Biso   1.000  C
  C314     1.0000 0.78369  0.43390  0.43200  Biso   1.000  C
  H185     1.0000 0.80870  0.44960  0.45410  Biso   1.000  H
  C315     1.0000 0.66924  0.36250  0.32930  Biso   1.000  C
  C316     1.0000 0.65640  0.32670  0.36500  Biso   1.000  C
  H186     1.0000 0.67310  0.31800  0.41090  Biso   1.000  H
  C317     1.0000 0.61880  0.30240  0.33530  Biso   1.000  C
  H187     1.0000 0.60920  0.27960  0.36260  Biso   1.000  H
  C318     1.0000 0.59570  0.31310  0.26280  Biso   1.000  C
  C319     1.0000 0.60790  0.35030  0.22590  Biso   1.000  C
  H188     1.0000 0.59220  0.35880  0.17910  Biso   1.000  H
  C320     1.0000 0.64500  0.37520  0.26160  Biso   1.000  C
  H189     1.0000 0.65320  0.40090  0.23830  Biso   1.000  H
  C321     1.0000 0.55630  0.28630  0.23040  Biso   1.000  C
  C322     1.0000 0.82306  0.36200  0.47110  Biso   1.000  C
  C323     1.0000 0.84870  0.37870  0.53790  Biso   1.000  C
  H190     1.0000 0.84080  0.40550  0.55900  Biso   1.000  H
  C324     1.0000 0.88570  0.35530  0.57260  Biso   1.000  C
  H191     1.0000 0.90170  0.36630  0.61780  Biso   1.000  H
  C325     1.0000 0.89908  0.31800  0.54360  Biso   1.000  C
  C326     1.0000 0.87380  0.30010  0.47850  Biso   1.000  C
  H192     1.0000 0.88190  0.27270  0.45950  Biso   1.000  H
  C327     1.0000 0.83610  0.32280  0.44050  Biso   1.000  C
  H193     1.0000 0.82030  0.31150  0.39550  Biso   1.000  H
  C328     1.0000 0.94023  0.29630  0.57910  Biso   1.000  C
  C329     1.0000 0.74915  0.51030  0.40220  Biso   1.000  C
  C330     1.0000 0.78524  0.53370  0.39460  Biso   1.000  C
  H194     1.0000 0.80790  0.51720  0.38480  Biso   1.000  H
  C331     1.0000 0.78785  0.58120  0.40160  Biso   1.000  C
  C332     1.0000 0.75401  0.60440  0.42060  Biso   1.000  C
  H195     1.0000 0.75570  0.63640  0.42710  Biso   1.000  H
  C333     1.0000 0.71781  0.58100  0.43000  Biso   1.000  C
  C334     1.0000 0.71516  0.53450  0.41970  Biso   1.000  C
  H196     1.0000 0.69090  0.51860  0.42430  Biso   1.000  H
  C335     1.0000 0.68210  0.60650  0.45360  Biso   1.000  C
  C336     1.0000 0.67510  0.65110  0.43650  Biso   1.000  C
  H197     1.0000 0.69240  0.66640  0.41110  Biso   1.000  H
  C337     1.0000 0.64150  0.67550  0.45650  Biso   1.000  C
  H198     1.0000 0.63690  0.70680  0.44470  Biso   1.000  H
  C338     1.0000 0.61970  0.60780  0.49930  Biso   1.000  C
  H199     1.0000 0.59850  0.59120  0.51380  Biso   1.000  H
  C339     1.0000 0.65400  0.58340  0.48500  Biso   1.000  C
  H200     1.0000 0.65770  0.55210  0.49650  Biso   1.000  H
  C340     1.0000 0.61590  0.65230  0.49350  Biso   1.000  C
  C341     1.0000 0.57950  0.67940  0.51490  Biso   1.000  C
  C342     1.0000 0.82630  0.60560  0.39340  Biso   1.000  C
  C343     1.0000 0.84210  0.64330  0.43820  Biso   1.000  C
  H201     1.0000 0.82830  0.65290  0.47380  Biso   1.000  H
  C344     1.0000 0.87920  0.66750  0.43060  Biso   1.000  C
  H202     1.0000 0.89010  0.69210  0.46180  Biso   1.000  H
  C345     1.0000 0.89883  0.65400  0.37660  Biso   1.000  C
  C346     1.0000 0.88350  0.61740  0.33010  Biso   1.000  C
  H203     1.0000 0.89660  0.60890  0.29300  Biso   1.000  H
  C347     1.0000 0.84770  0.59320  0.34020  Biso   1.000  C
  H204     1.0000 0.83780  0.56790  0.31010  Biso   1.000  H
  C348     1.0000 0.93600  0.68230  0.36510  Biso   1.000  C
  C349     1.0000 0.69040  0.64400  0.50100  Biso   1.000  C
  H205     1.0000 0.71860  0.65140  0.52390  Biso   1.000  H
  C350     1.0000 0.65820  0.67080  0.51510  Biso   1.000  C
  H206     1.0000 0.66360  0.69970  0.53780  Biso   1.000  H
  C351     1.0000 0.60540  0.61490  0.44210  Biso   1.000  C
  H207     1.0000 0.57740  0.60600  0.42140  Biso   1.000  H
  C352     1.0000 0.64000  0.59280  0.42510  Biso   1.000  C
  H208     1.0000 0.63470  0.56770  0.39300  Biso   1.000  H
  Lu9      1.0000 0.00000  0.30355  0.75000  Biso   1.000  Lu
  Lu10     1.0000 0.50000  0.80355  0.75000  Biso   1.000  Lu
  Lu11     1.0000 0.00000  0.69645  0.25000  Biso   1.000  Lu
  Lu12     1.0000 0.50000  0.19645  0.25000  Biso   1.000  Lu
