data_image0
_cell_length_a       18.6923
_cell_length_b       18.6923
_cell_length_c       38.2023
_cell_angle_alpha    90
_cell_angle_beta     90
_cell_angle_gamma    120

_symmetry_space_group_name_H-M    "P 1"
_symmetry_int_tables_number       1

loop_
  _symmetry_equiv_pos_as_xyz
  'x, y, z'

loop_
  _atom_site_label
  _atom_site_occupancy
  _atom_site_fract_x
  _atom_site_fract_y
  _atom_site_fract_z
  _atom_site_thermal_displace_type
  _atom_site_B_iso_or_equiv
  _atom_site_type_symbol
  O1       1.0000 0.58928  0.55680  0.54377  Biso   1.000  O
  C1       1.0000 0.71940  0.56710  0.54309  Biso   1.000  C
  C2       1.0000 0.63940  0.54580  0.52595  Biso   1.000  C
  C3       1.0000 0.73510  0.59790  0.57705  Biso   1.000  C
  H1       1.0000 0.69720  0.60860  0.58830  Biso   1.000  H
  C4       1.0000 0.89900  0.70160  0.64340  Biso   1.000  C
  C5       1.0000 0.75700  0.60700  0.65540  Biso   1.000  C
  O2       1.0000 0.04710  0.77830  0.62740  Biso   1.000  O
  O3       1.0000 0.96800  0.77620  0.59330  Biso   1.000  O
  C6       1.0000 0.97770  0.76460  0.61810  Biso   1.000  C
  O4       1.0000 0.62854  0.51740  0.49549  Biso   1.000  O
  O5       1.0000 0.25595  0.89013  0.87710  Biso   1.000  O
  C7       1.0000 0.38607  0.90043  0.87642  Biso   1.000  C
  C8       1.0000 0.30607  0.87913  0.85928  Biso   1.000  C
  C9       1.0000 0.40177  0.93123  0.91038  Biso   1.000  C
  H2       1.0000 0.36387  0.94193  0.92163  Biso   1.000  H
  C10      1.0000 0.56567  0.03493  0.97673  Biso   1.000  C
  C11      1.0000 0.42367  0.94033  0.98873  Biso   1.000  C
  O6       1.0000 0.71377  0.11163  0.96073  Biso   1.000  O
  O7       1.0000 0.63467  0.10953  0.92663  Biso   1.000  O
  C12      1.0000 0.64437  0.09793  0.95143  Biso   1.000  C
  O8       1.0000 0.29521  0.85073  0.82882  Biso   1.000  O
  O9       1.0000 0.92261  0.22347  0.21044  Biso   1.000  O
  C13      1.0000 0.05273  0.23377  0.20976  Biso   1.000  C
  C14      1.0000 0.97273  0.21247  0.19262  Biso   1.000  C
  C15      1.0000 0.06843  0.26457  0.24372  Biso   1.000  C
  H3       1.0000 0.03053  0.27527  0.25497  Biso   1.000  H
  C16      1.0000 0.23233  0.36827  0.31007  Biso   1.000  C
  C17      1.0000 0.09033  0.27367  0.32207  Biso   1.000  C
  O10      1.0000 0.38043  0.44497  0.29407  Biso   1.000  O
  O11      1.0000 0.30133  0.44287  0.25997  Biso   1.000  O
  C18      1.0000 0.31103  0.43127  0.28477  Biso   1.000  C
  O12      1.0000 0.96187  0.18407  0.16216  Biso   1.000  O
  O13      1.0000 0.44320  0.03248  0.54377  Biso   1.000  O
  C19      1.0000 0.43290  0.15230  0.54309  Biso   1.000  C
  C20      1.0000 0.45420  0.09360  0.52595  Biso   1.000  C
  C21      1.0000 0.40210  0.13720  0.57705  Biso   1.000  C
  H4       1.0000 0.39140  0.08860  0.58830  Biso   1.000  H
  C22      1.0000 0.29840  0.19740  0.64340  Biso   1.000  C
  C23      1.0000 0.39300  0.15000  0.65540  Biso   1.000  C
  O14      1.0000 0.22170  0.26880  0.62740  Biso   1.000  O
  O15      1.0000 0.22380  0.19180  0.59330  Biso   1.000  O
  C24      1.0000 0.23540  0.21310  0.61810  Biso   1.000  C
  O16      1.0000 0.48260  0.11114  0.49549  Biso   1.000  O
  O17      1.0000 0.10987  0.36581  0.87710  Biso   1.000  O
  C25      1.0000 0.09957  0.48563  0.87642  Biso   1.000  C
  C26      1.0000 0.12087  0.42693  0.85928  Biso   1.000  C
  C27      1.0000 0.06877  0.47053  0.91038  Biso   1.000  C
  H5       1.0000 0.05807  0.42193  0.92163  Biso   1.000  H
  C28      1.0000 0.96507  0.53073  0.97673  Biso   1.000  C
  C29      1.0000 0.05967  0.48333  0.98873  Biso   1.000  C
  O18      1.0000 0.88837  0.60213  0.96073  Biso   1.000  O
  O19      1.0000 0.89047  0.52513  0.92663  Biso   1.000  O
  C30      1.0000 0.90207  0.54643  0.95143  Biso   1.000  C
  O20      1.0000 0.14927  0.44447  0.82882  Biso   1.000  O
  O21      1.0000 0.77653  0.69915  0.21044  Biso   1.000  O
  C31      1.0000 0.76623  0.81897  0.20976  Biso   1.000  C
  C32      1.0000 0.78753  0.76027  0.19262  Biso   1.000  C
  C33      1.0000 0.73543  0.80387  0.24372  Biso   1.000  C
  H6       1.0000 0.72473  0.75527  0.25497  Biso   1.000  H
  C34      1.0000 0.63173  0.86407  0.31007  Biso   1.000  C
  C35      1.0000 0.72633  0.81667  0.32207  Biso   1.000  C
  O22      1.0000 0.55503  0.93547  0.29407  Biso   1.000  O
  O23      1.0000 0.55713  0.85847  0.25997  Biso   1.000  O
  C36      1.0000 0.56873  0.87977  0.28477  Biso   1.000  C
  O24      1.0000 0.81593  0.77781  0.16216  Biso   1.000  O
  O25      1.0000 0.96752  0.41072  0.54377  Biso   1.000  O
  C37      1.0000 0.84770  0.28060  0.54309  Biso   1.000  C
  C38      1.0000 0.90640  0.36060  0.52595  Biso   1.000  C
  C39      1.0000 0.86280  0.26490  0.57705  Biso   1.000  C
  H7       1.0000 0.91140  0.30280  0.58830  Biso   1.000  H
  C40      1.0000 0.80260  0.10100  0.64340  Biso   1.000  C
  C41      1.0000 0.85000  0.24300  0.65540  Biso   1.000  C
  O26      1.0000 0.73120  0.95290  0.62740  Biso   1.000  O
  O27      1.0000 0.80820  0.03200  0.59330  Biso   1.000  O
  C42      1.0000 0.78690  0.02230  0.61810  Biso   1.000  C
  O28      1.0000 0.88886  0.37146  0.49549  Biso   1.000  O
  O29      1.0000 0.63419  0.74405  0.87710  Biso   1.000  O
  C43      1.0000 0.51437  0.61393  0.87642  Biso   1.000  C
  C44      1.0000 0.57307  0.69393  0.85928  Biso   1.000  C
  C45      1.0000 0.52947  0.59823  0.91038  Biso   1.000  C
  H8       1.0000 0.57807  0.63613  0.92163  Biso   1.000  H
  C46      1.0000 0.46927  0.43433  0.97673  Biso   1.000  C
  C47      1.0000 0.51667  0.57633  0.98873  Biso   1.000  C
  O30      1.0000 0.39787  0.28623  0.96073  Biso   1.000  O
  O31      1.0000 0.47487  0.36533  0.92663  Biso   1.000  O
  C48      1.0000 0.45357  0.35563  0.95143  Biso   1.000  C
  O32      1.0000 0.55553  0.70479  0.82882  Biso   1.000  O
  O33      1.0000 0.30085  0.07739  0.21044  Biso   1.000  O
  C49      1.0000 0.18103  0.94727  0.20976  Biso   1.000  C
  C50      1.0000 0.23973  0.02727  0.19262  Biso   1.000  C
  C51      1.0000 0.19613  0.93157  0.24372  Biso   1.000  C
  H9       1.0000 0.24473  0.96947  0.25497  Biso   1.000  H
  C52      1.0000 0.13593  0.76767  0.31007  Biso   1.000  C
  C53      1.0000 0.18333  0.90967  0.32207  Biso   1.000  C
  O34      1.0000 0.06453  0.61957  0.29407  Biso   1.000  O
  O35      1.0000 0.14153  0.69867  0.25997  Biso   1.000  O
  C54      1.0000 0.12023  0.68897  0.28477  Biso   1.000  C
  O36      1.0000 0.22219  0.03813  0.16216  Biso   1.000  O
  O37      1.0000 0.55680  0.58928  0.45623  Biso   1.000  O
  C55      1.0000 0.56710  0.71940  0.45691  Biso   1.000  C
  C56      1.0000 0.54580  0.63940  0.47405  Biso   1.000  C
  C57      1.0000 0.59790  0.73510  0.42295  Biso   1.000  C
  H10      1.0000 0.60860  0.69720  0.41170  Biso   1.000  H
  C58      1.0000 0.70160  0.89900  0.35660  Biso   1.000  C
  C59      1.0000 0.60700  0.75700  0.34460  Biso   1.000  C
  O38      1.0000 0.77830  0.04710  0.37260  Biso   1.000  O
  O39      1.0000 0.77620  0.96800  0.40670  Biso   1.000  O
  C60      1.0000 0.76460  0.97770  0.38190  Biso   1.000  C
  O40      1.0000 0.51740  0.62854  0.50451  Biso   1.000  O
  O41      1.0000 0.22347  0.92261  0.78956  Biso   1.000  O
  C61      1.0000 0.23377  0.05273  0.79024  Biso   1.000  C
  C62      1.0000 0.21247  0.97273  0.80738  Biso   1.000  C
  C63      1.0000 0.26457  0.06843  0.75628  Biso   1.000  C
  H11      1.0000 0.27527  0.03053  0.74503  Biso   1.000  H
  C64      1.0000 0.36827  0.23233  0.68993  Biso   1.000  C
  C65      1.0000 0.27367  0.09033  0.67793  Biso   1.000  C
  O42      1.0000 0.44497  0.38043  0.70593  Biso   1.000  O
  O43      1.0000 0.44287  0.30133  0.74003  Biso   1.000  O
  C66      1.0000 0.43127  0.31103  0.71523  Biso   1.000  C
  O44      1.0000 0.18407  0.96187  0.83784  Biso   1.000  O
  O45      1.0000 0.89013  0.25595  0.12290  Biso   1.000  O
  C67      1.0000 0.90043  0.38607  0.12358  Biso   1.000  C
  C68      1.0000 0.87913  0.30607  0.14072  Biso   1.000  C
  C69      1.0000 0.93123  0.40177  0.08962  Biso   1.000  C
  H12      1.0000 0.94193  0.36387  0.07837  Biso   1.000  H
  C70      1.0000 0.03493  0.56567  0.02327  Biso   1.000  C
  C71      1.0000 0.94033  0.42367  0.01127  Biso   1.000  C
  O46      1.0000 0.11163  0.71377  0.03927  Biso   1.000  O
  O47      1.0000 0.10953  0.63467  0.07337  Biso   1.000  O
  C72      1.0000 0.09793  0.64437  0.04857  Biso   1.000  C
  O48      1.0000 0.85073  0.29521  0.17118  Biso   1.000  O
  O49      1.0000 0.03248  0.44320  0.45623  Biso   1.000  O
  C73      1.0000 0.15230  0.43290  0.45691  Biso   1.000  C
  C74      1.0000 0.09360  0.45420  0.47405  Biso   1.000  C
  C75      1.0000 0.13720  0.40210  0.42295  Biso   1.000  C
  H13      1.0000 0.08860  0.39140  0.41170  Biso   1.000  H
  C76      1.0000 0.19740  0.29840  0.35660  Biso   1.000  C
  C77      1.0000 0.15000  0.39300  0.34460  Biso   1.000  C
  O50      1.0000 0.26880  0.22170  0.37260  Biso   1.000  O
  O51      1.0000 0.19180  0.22380  0.40670  Biso   1.000  O
  C78      1.0000 0.21310  0.23540  0.38190  Biso   1.000  C
  O52      1.0000 0.11114  0.48260  0.50451  Biso   1.000  O
  O53      1.0000 0.69915  0.77653  0.78956  Biso   1.000  O
  C79      1.0000 0.81897  0.76623  0.79024  Biso   1.000  C
  C80      1.0000 0.76027  0.78753  0.80738  Biso   1.000  C
  C81      1.0000 0.80387  0.73543  0.75628  Biso   1.000  C
  H14      1.0000 0.75527  0.72473  0.74503  Biso   1.000  H
  C82      1.0000 0.86407  0.63173  0.68993  Biso   1.000  C
  C83      1.0000 0.81667  0.72633  0.67793  Biso   1.000  C
  O54      1.0000 0.93547  0.55503  0.70593  Biso   1.000  O
  O55      1.0000 0.85847  0.55713  0.74003  Biso   1.000  O
  C84      1.0000 0.87977  0.56873  0.71523  Biso   1.000  C
  O56      1.0000 0.77781  0.81593  0.83784  Biso   1.000  O
  O57      1.0000 0.36581  0.10987  0.12290  Biso   1.000  O
  C85      1.0000 0.48563  0.09957  0.12358  Biso   1.000  C
  C86      1.0000 0.42693  0.12087  0.14072  Biso   1.000  C
  C87      1.0000 0.47053  0.06877  0.08962  Biso   1.000  C
  H15      1.0000 0.42193  0.05807  0.07837  Biso   1.000  H
  C88      1.0000 0.53073  0.96507  0.02327  Biso   1.000  C
  C89      1.0000 0.48333  0.05967  0.01127  Biso   1.000  C
  O58      1.0000 0.60213  0.88837  0.03927  Biso   1.000  O
  O59      1.0000 0.52513  0.89047  0.07337  Biso   1.000  O
  C90      1.0000 0.54643  0.90207  0.04857  Biso   1.000  C
  O60      1.0000 0.44447  0.14927  0.17118  Biso   1.000  O
  O61      1.0000 0.41072  0.96752  0.45623  Biso   1.000  O
  C91      1.0000 0.28060  0.84770  0.45691  Biso   1.000  C
  C92      1.0000 0.36060  0.90640  0.47405  Biso   1.000  C
  C93      1.0000 0.26490  0.86280  0.42295  Biso   1.000  C
  H16      1.0000 0.30280  0.91140  0.41170  Biso   1.000  H
  C94      1.0000 0.10100  0.80260  0.35660  Biso   1.000  C
  C95      1.0000 0.24300  0.85000  0.34460  Biso   1.000  C
  O62      1.0000 0.95290  0.73120  0.37260  Biso   1.000  O
  O63      1.0000 0.03200  0.80820  0.40670  Biso   1.000  O
  C96      1.0000 0.02230  0.78690  0.38190  Biso   1.000  C
  O64      1.0000 0.37146  0.88886  0.50451  Biso   1.000  O
  O65      1.0000 0.07739  0.30085  0.78956  Biso   1.000  O
  C97      1.0000 0.94727  0.18103  0.79024  Biso   1.000  C
  C98      1.0000 0.02727  0.23973  0.80738  Biso   1.000  C
  C99      1.0000 0.93157  0.19613  0.75628  Biso   1.000  C
  H17      1.0000 0.96947  0.24473  0.74503  Biso   1.000  H
  C100     1.0000 0.76767  0.13593  0.68993  Biso   1.000  C
  C101     1.0000 0.90967  0.18333  0.67793  Biso   1.000  C
  O66      1.0000 0.61957  0.06453  0.70593  Biso   1.000  O
  O67      1.0000 0.69867  0.14153  0.74003  Biso   1.000  O
  C102     1.0000 0.68897  0.12023  0.71523  Biso   1.000  C
  O68      1.0000 0.03813  0.22219  0.83784  Biso   1.000  O
  O69      1.0000 0.74405  0.63419  0.12290  Biso   1.000  O
  C103     1.0000 0.61393  0.51437  0.12358  Biso   1.000  C
  C104     1.0000 0.69393  0.57307  0.14072  Biso   1.000  C
  C105     1.0000 0.59823  0.52947  0.08962  Biso   1.000  C
  H18      1.0000 0.63613  0.57807  0.07837  Biso   1.000  H
  C106     1.0000 0.43433  0.46927  0.02327  Biso   1.000  C
  C107     1.0000 0.57633  0.51667  0.01127  Biso   1.000  C
  O70      1.0000 0.28623  0.39787  0.03927  Biso   1.000  O
  O71      1.0000 0.36533  0.47487  0.07337  Biso   1.000  O
  C108     1.0000 0.35563  0.45357  0.04857  Biso   1.000  C
  O72      1.0000 0.70479  0.55553  0.17118  Biso   1.000  O
  O73      1.0000 0.41072  0.44320  0.45623  Biso   1.000  O
  C109     1.0000 0.28060  0.43290  0.45691  Biso   1.000  C
  C110     1.0000 0.36060  0.45420  0.47405  Biso   1.000  C
  C111     1.0000 0.26490  0.40210  0.42295  Biso   1.000  C
  H19      1.0000 0.30280  0.39140  0.41170  Biso   1.000  H
  C112     1.0000 0.10100  0.29840  0.35660  Biso   1.000  C
  C113     1.0000 0.24300  0.39300  0.34460  Biso   1.000  C
  O74      1.0000 0.95290  0.22170  0.37260  Biso   1.000  O
  O75      1.0000 0.03200  0.22380  0.40670  Biso   1.000  O
  C114     1.0000 0.02230  0.23540  0.38190  Biso   1.000  C
  O76      1.0000 0.37146  0.48260  0.50451  Biso   1.000  O
  O77      1.0000 0.07739  0.77653  0.78956  Biso   1.000  O
  C115     1.0000 0.94727  0.76623  0.79024  Biso   1.000  C
  C116     1.0000 0.02727  0.78753  0.80738  Biso   1.000  C
  C117     1.0000 0.93157  0.73543  0.75628  Biso   1.000  C
  H20      1.0000 0.96947  0.72473  0.74503  Biso   1.000  H
  C118     1.0000 0.76767  0.63173  0.68993  Biso   1.000  C
  C119     1.0000 0.90967  0.72633  0.67793  Biso   1.000  C
  O78      1.0000 0.61957  0.55503  0.70593  Biso   1.000  O
  O79      1.0000 0.69867  0.55713  0.74003  Biso   1.000  O
  C120     1.0000 0.68897  0.56873  0.71523  Biso   1.000  C
  O80      1.0000 0.03813  0.81593  0.83784  Biso   1.000  O
  O81      1.0000 0.74405  0.10987  0.12290  Biso   1.000  O
  C121     1.0000 0.61393  0.09957  0.12358  Biso   1.000  C
  C122     1.0000 0.69393  0.12087  0.14072  Biso   1.000  C
  C123     1.0000 0.59823  0.06877  0.08962  Biso   1.000  C
  H21      1.0000 0.63613  0.05807  0.07837  Biso   1.000  H
  C124     1.0000 0.43433  0.96507  0.02327  Biso   1.000  C
  C125     1.0000 0.57633  0.05967  0.01127  Biso   1.000  C
  O82      1.0000 0.28623  0.88837  0.03927  Biso   1.000  O
  O83      1.0000 0.36533  0.89047  0.07337  Biso   1.000  O
  C126     1.0000 0.35563  0.90207  0.04857  Biso   1.000  C
  O84      1.0000 0.70479  0.14927  0.17118  Biso   1.000  O
  O85      1.0000 0.55680  0.96752  0.45623  Biso   1.000  O
  C127     1.0000 0.56710  0.84770  0.45691  Biso   1.000  C
  C128     1.0000 0.54580  0.90640  0.47405  Biso   1.000  C
  C129     1.0000 0.59790  0.86280  0.42295  Biso   1.000  C
  H22      1.0000 0.60860  0.91140  0.41170  Biso   1.000  H
  C130     1.0000 0.70160  0.80260  0.35660  Biso   1.000  C
  C131     1.0000 0.60700  0.85000  0.34460  Biso   1.000  C
  O86      1.0000 0.77830  0.73120  0.37260  Biso   1.000  O
  O87      1.0000 0.77620  0.80820  0.40670  Biso   1.000  O
  C132     1.0000 0.76460  0.78690  0.38190  Biso   1.000  C
  O88      1.0000 0.51740  0.88886  0.50451  Biso   1.000  O
  O89      1.0000 0.22347  0.30085  0.78956  Biso   1.000  O
  C133     1.0000 0.23377  0.18103  0.79024  Biso   1.000  C
  C134     1.0000 0.21247  0.23973  0.80738  Biso   1.000  C
  C135     1.0000 0.26457  0.19613  0.75628  Biso   1.000  C
  H23      1.0000 0.27527  0.24473  0.74503  Biso   1.000  H
  C136     1.0000 0.36827  0.13593  0.68993  Biso   1.000  C
  C137     1.0000 0.27367  0.18333  0.67793  Biso   1.000  C
  O90      1.0000 0.44497  0.06453  0.70593  Biso   1.000  O
  O91      1.0000 0.44287  0.14153  0.74003  Biso   1.000  O
  C138     1.0000 0.43127  0.12023  0.71523  Biso   1.000  C
  O92      1.0000 0.18407  0.22219  0.83784  Biso   1.000  O
  O93      1.0000 0.89013  0.63419  0.12290  Biso   1.000  O
  C139     1.0000 0.90043  0.51437  0.12358  Biso   1.000  C
  C140     1.0000 0.87913  0.57307  0.14072  Biso   1.000  C
  C141     1.0000 0.93123  0.52947  0.08962  Biso   1.000  C
  H24      1.0000 0.94193  0.57807  0.07837  Biso   1.000  H
  C142     1.0000 0.03493  0.46927  0.02327  Biso   1.000  C
  C143     1.0000 0.94033  0.51667  0.01127  Biso   1.000  C
  O94      1.0000 0.11163  0.39787  0.03927  Biso   1.000  O
  O95      1.0000 0.10953  0.47487  0.07337  Biso   1.000  O
  C144     1.0000 0.09793  0.45357  0.04857  Biso   1.000  C
  O96      1.0000 0.85073  0.55553  0.17118  Biso   1.000  O
  O97      1.0000 0.03248  0.58928  0.45623  Biso   1.000  O
  C145     1.0000 0.15230  0.71940  0.45691  Biso   1.000  C
  C146     1.0000 0.09360  0.63940  0.47405  Biso   1.000  C
  C147     1.0000 0.13720  0.73510  0.42295  Biso   1.000  C
  H25      1.0000 0.08860  0.69720  0.41170  Biso   1.000  H
  C148     1.0000 0.19740  0.89900  0.35660  Biso   1.000  C
  C149     1.0000 0.15000  0.75700  0.34460  Biso   1.000  C
  O98      1.0000 0.26880  0.04710  0.37260  Biso   1.000  O
  O99      1.0000 0.19180  0.96800  0.40670  Biso   1.000  O
  C150     1.0000 0.21310  0.97770  0.38190  Biso   1.000  C
  O100     1.0000 0.11114  0.62854  0.50451  Biso   1.000  O
  O101     1.0000 0.69915  0.92261  0.78956  Biso   1.000  O
  C151     1.0000 0.81897  0.05273  0.79024  Biso   1.000  C
  C152     1.0000 0.76027  0.97273  0.80738  Biso   1.000  C
  C153     1.0000 0.80387  0.06843  0.75628  Biso   1.000  C
  H26      1.0000 0.75527  0.03053  0.74503  Biso   1.000  H
  C154     1.0000 0.86407  0.23233  0.68993  Biso   1.000  C
  C155     1.0000 0.81667  0.09033  0.67793  Biso   1.000  C
  O102     1.0000 0.93547  0.38043  0.70593  Biso   1.000  O
  O103     1.0000 0.85847  0.30133  0.74003  Biso   1.000  O
  C156     1.0000 0.87977  0.31103  0.71523  Biso   1.000  C
  O104     1.0000 0.77781  0.96187  0.83784  Biso   1.000  O
  O105     1.0000 0.36581  0.25595  0.12290  Biso   1.000  O
  C157     1.0000 0.48563  0.38607  0.12358  Biso   1.000  C
  C158     1.0000 0.42693  0.30607  0.14072  Biso   1.000  C
  C159     1.0000 0.47053  0.40177  0.08962  Biso   1.000  C
  H27      1.0000 0.42193  0.36387  0.07837  Biso   1.000  H
  C160     1.0000 0.53073  0.56567  0.02327  Biso   1.000  C
  C161     1.0000 0.48333  0.42367  0.01127  Biso   1.000  C
  O106     1.0000 0.60213  0.71377  0.03927  Biso   1.000  O
  O107     1.0000 0.52513  0.63467  0.07337  Biso   1.000  O
  C162     1.0000 0.54643  0.64437  0.04857  Biso   1.000  C
  O108     1.0000 0.44447  0.29521  0.17118  Biso   1.000  O
  O109     1.0000 0.44320  0.41072  0.54377  Biso   1.000  O
  C163     1.0000 0.43290  0.28060  0.54309  Biso   1.000  C
  C164     1.0000 0.45420  0.36060  0.52595  Biso   1.000  C
  C165     1.0000 0.40210  0.26490  0.57705  Biso   1.000  C
  H28      1.0000 0.39140  0.30280  0.58830  Biso   1.000  H
  C166     1.0000 0.29840  0.10100  0.64340  Biso   1.000  C
  C167     1.0000 0.39300  0.24300  0.65540  Biso   1.000  C
  O110     1.0000 0.22170  0.95290  0.62740  Biso   1.000  O
  O111     1.0000 0.22380  0.03200  0.59330  Biso   1.000  O
  C168     1.0000 0.23540  0.02230  0.61810  Biso   1.000  C
  O112     1.0000 0.48260  0.37146  0.49549  Biso   1.000  O
  O113     1.0000 0.10987  0.74405  0.87710  Biso   1.000  O
  C169     1.0000 0.09957  0.61393  0.87642  Biso   1.000  C
  C170     1.0000 0.12087  0.69393  0.85928  Biso   1.000  C
  C171     1.0000 0.06877  0.59823  0.91038  Biso   1.000  C
  H29      1.0000 0.05807  0.63613  0.92163  Biso   1.000  H
  C172     1.0000 0.96507  0.43433  0.97673  Biso   1.000  C
  C173     1.0000 0.05967  0.57633  0.98873  Biso   1.000  C
  O114     1.0000 0.88837  0.28623  0.96073  Biso   1.000  O
  O115     1.0000 0.89047  0.36533  0.92663  Biso   1.000  O
  C174     1.0000 0.90207  0.35563  0.95143  Biso   1.000  C
  O116     1.0000 0.14927  0.70479  0.82882  Biso   1.000  O
  O117     1.0000 0.77653  0.07739  0.21044  Biso   1.000  O
  C175     1.0000 0.76623  0.94727  0.20976  Biso   1.000  C
  C176     1.0000 0.78753  0.02727  0.19262  Biso   1.000  C
  C177     1.0000 0.73543  0.93157  0.24372  Biso   1.000  C
  H30      1.0000 0.72473  0.96947  0.25497  Biso   1.000  H
  C178     1.0000 0.63173  0.76767  0.31007  Biso   1.000  C
  C179     1.0000 0.72633  0.90967  0.32207  Biso   1.000  C
  O118     1.0000 0.55503  0.61957  0.29407  Biso   1.000  O
  O119     1.0000 0.55713  0.69867  0.25997  Biso   1.000  O
  C180     1.0000 0.56873  0.68897  0.28477  Biso   1.000  C
  O120     1.0000 0.81593  0.03813  0.16216  Biso   1.000  O
  O121     1.0000 0.96752  0.55680  0.54377  Biso   1.000  O
  C181     1.0000 0.84770  0.56710  0.54309  Biso   1.000  C
  C182     1.0000 0.90640  0.54580  0.52595  Biso   1.000  C
  C183     1.0000 0.86280  0.59790  0.57705  Biso   1.000  C
  H31      1.0000 0.91140  0.60860  0.58830  Biso   1.000  H
  C184     1.0000 0.80260  0.70160  0.64340  Biso   1.000  C
  C185     1.0000 0.85000  0.60700  0.65540  Biso   1.000  C
  O122     1.0000 0.73120  0.77830  0.62740  Biso   1.000  O
  O123     1.0000 0.80820  0.77620  0.59330  Biso   1.000  O
  C186     1.0000 0.78690  0.76460  0.61810  Biso   1.000  C
  O124     1.0000 0.88886  0.51740  0.49549  Biso   1.000  O
  O125     1.0000 0.63419  0.89013  0.87710  Biso   1.000  O
  C187     1.0000 0.51437  0.90043  0.87642  Biso   1.000  C
  C188     1.0000 0.57307  0.87913  0.85928  Biso   1.000  C
  C189     1.0000 0.52947  0.93123  0.91038  Biso   1.000  C
  H32      1.0000 0.57807  0.94193  0.92163  Biso   1.000  H
  C190     1.0000 0.46927  0.03493  0.97673  Biso   1.000  C
  C191     1.0000 0.51667  0.94033  0.98873  Biso   1.000  C
  O126     1.0000 0.39787  0.11163  0.96073  Biso   1.000  O
  O127     1.0000 0.47487  0.10953  0.92663  Biso   1.000  O
  C192     1.0000 0.45357  0.09793  0.95143  Biso   1.000  C
  O128     1.0000 0.55553  0.85073  0.82882  Biso   1.000  O
  O129     1.0000 0.30085  0.22347  0.21044  Biso   1.000  O
  C193     1.0000 0.18103  0.23377  0.20976  Biso   1.000  C
  C194     1.0000 0.23973  0.21247  0.19262  Biso   1.000  C
  C195     1.0000 0.19613  0.26457  0.24372  Biso   1.000  C
  H33      1.0000 0.24473  0.27527  0.25497  Biso   1.000  H
  C196     1.0000 0.13593  0.36827  0.31007  Biso   1.000  C
  C197     1.0000 0.18333  0.27367  0.32207  Biso   1.000  C
  O130     1.0000 0.06453  0.44497  0.29407  Biso   1.000  O
  O131     1.0000 0.14153  0.44287  0.25997  Biso   1.000  O
  C198     1.0000 0.12023  0.43127  0.28477  Biso   1.000  C
  O132     1.0000 0.22219  0.18407  0.16216  Biso   1.000  O
  O133     1.0000 0.58928  0.03248  0.54377  Biso   1.000  O
  C199     1.0000 0.71940  0.15230  0.54309  Biso   1.000  C
  C200     1.0000 0.63940  0.09360  0.52595  Biso   1.000  C
  C201     1.0000 0.73510  0.13720  0.57705  Biso   1.000  C
  H34      1.0000 0.69720  0.08860  0.58830  Biso   1.000  H
  C202     1.0000 0.89900  0.19740  0.64340  Biso   1.000  C
  C203     1.0000 0.75700  0.15000  0.65540  Biso   1.000  C
  O134     1.0000 0.04710  0.26880  0.62740  Biso   1.000  O
  O135     1.0000 0.96800  0.19180  0.59330  Biso   1.000  O
  C204     1.0000 0.97770  0.21310  0.61810  Biso   1.000  C
  O136     1.0000 0.62854  0.11114  0.49549  Biso   1.000  O
  O137     1.0000 0.25595  0.36581  0.87710  Biso   1.000  O
  C205     1.0000 0.38607  0.48563  0.87642  Biso   1.000  C
  C206     1.0000 0.30607  0.42693  0.85928  Biso   1.000  C
  C207     1.0000 0.40177  0.47053  0.91038  Biso   1.000  C
  H35      1.0000 0.36387  0.42193  0.92163  Biso   1.000  H
  C208     1.0000 0.56567  0.53073  0.97673  Biso   1.000  C
  C209     1.0000 0.42367  0.48333  0.98873  Biso   1.000  C
  O138     1.0000 0.71377  0.60213  0.96073  Biso   1.000  O
  O139     1.0000 0.63467  0.52513  0.92663  Biso   1.000  O
  C210     1.0000 0.64437  0.54643  0.95143  Biso   1.000  C
  O140     1.0000 0.29521  0.44447  0.82882  Biso   1.000  O
  O141     1.0000 0.92261  0.69915  0.21044  Biso   1.000  O
  C211     1.0000 0.05273  0.81897  0.20976  Biso   1.000  C
  C212     1.0000 0.97273  0.76027  0.19262  Biso   1.000  C
  C213     1.0000 0.06843  0.80387  0.24372  Biso   1.000  C
  H36      1.0000 0.03053  0.75527  0.25497  Biso   1.000  H
  C214     1.0000 0.23233  0.86407  0.31007  Biso   1.000  C
  C215     1.0000 0.09033  0.81667  0.32207  Biso   1.000  C
  O142     1.0000 0.38043  0.93547  0.29407  Biso   1.000  O
  O143     1.0000 0.30133  0.85847  0.25997  Biso   1.000  O
  C216     1.0000 0.31103  0.87977  0.28477  Biso   1.000  C
  O144     1.0000 0.96187  0.77781  0.16216  Biso   1.000  O
  Cu1      1.0000 0.47690  0.52310  0.52873  Biso   1.000  Cu
  Cu2      1.0000 0.14357  0.85643  0.86207  Biso   1.000  Cu
  Cu3      1.0000 0.81023  0.18977  0.19540  Biso   1.000  Cu
  Cu4      1.0000 0.47690  0.95380  0.52873  Biso   1.000  Cu
  Cu5      1.0000 0.14357  0.28713  0.86207  Biso   1.000  Cu
  Cu6      1.0000 0.81023  0.62046  0.19540  Biso   1.000  Cu
  Cu7      1.0000 0.04620  0.52310  0.52873  Biso   1.000  Cu
  Cu8      1.0000 0.71287  0.85643  0.86207  Biso   1.000  Cu
  Cu9      1.0000 0.37954  0.18977  0.19540  Biso   1.000  Cu
  Cu10     1.0000 0.52310  0.47690  0.47127  Biso   1.000  Cu
  Cu11     1.0000 0.18977  0.81023  0.80460  Biso   1.000  Cu
  Cu12     1.0000 0.85643  0.14357  0.13793  Biso   1.000  Cu
  Cu13     1.0000 0.95380  0.47690  0.47127  Biso   1.000  Cu
  Cu14     1.0000 0.62046  0.81023  0.80460  Biso   1.000  Cu
  Cu15     1.0000 0.28713  0.14357  0.13793  Biso   1.000  Cu
  Cu16     1.0000 0.52310  0.04620  0.47127  Biso   1.000  Cu
  Cu17     1.0000 0.18977  0.37954  0.80460  Biso   1.000  Cu
  Cu18     1.0000 0.85643  0.71287  0.13793  Biso   1.000  Cu
  C217     1.0000 0.82140  0.64280  0.63146  Biso   1.000  C
  C218     1.0000 0.77535  0.55070  0.52638  Biso   1.000  C
  H37      1.0000 0.76430  0.52860  0.50390  Biso   1.000  H
  C219     1.0000 0.80650  0.61300  0.59452  Biso   1.000  C
  C220     1.0000 0.48807  0.97613  0.96479  Biso   1.000  C
  C221     1.0000 0.44202  0.88403  0.85971  Biso   1.000  C
  H38      1.0000 0.43097  0.86193  0.83723  Biso   1.000  H
  C222     1.0000 0.47317  0.94633  0.92785  Biso   1.000  C
  C223     1.0000 0.15473  0.30947  0.29813  Biso   1.000  C
  C224     1.0000 0.10868  0.21737  0.19305  Biso   1.000  C
  H39      1.0000 0.09763  0.19527  0.17057  Biso   1.000  H
  C225     1.0000 0.13983  0.27967  0.26119  Biso   1.000  C
  C226     1.0000 0.35720  0.17860  0.63146  Biso   1.000  C
  C227     1.0000 0.44930  0.22465  0.52638  Biso   1.000  C
  H40      1.0000 0.47140  0.23570  0.50390  Biso   1.000  H
  C228     1.0000 0.38700  0.19350  0.59452  Biso   1.000  C
  C229     1.0000 0.02387  0.51193  0.96479  Biso   1.000  C
  C230     1.0000 0.11597  0.55798  0.85971  Biso   1.000  C
  H41      1.0000 0.13807  0.56903  0.83723  Biso   1.000  H
  C231     1.0000 0.05367  0.52683  0.92785  Biso   1.000  C
  C232     1.0000 0.69053  0.84527  0.29813  Biso   1.000  C
  C233     1.0000 0.78263  0.89132  0.19305  Biso   1.000  C
  H42      1.0000 0.80473  0.90237  0.17057  Biso   1.000  H
  C234     1.0000 0.72033  0.86017  0.26119  Biso   1.000  C
  C235     1.0000 0.82140  0.17860  0.63146  Biso   1.000  C
  C236     1.0000 0.77535  0.22465  0.52638  Biso   1.000  C
  H43      1.0000 0.76430  0.23570  0.50390  Biso   1.000  H
  C237     1.0000 0.80650  0.19350  0.59452  Biso   1.000  C
  C238     1.0000 0.48807  0.51193  0.96479  Biso   1.000  C
  C239     1.0000 0.44202  0.55798  0.85971  Biso   1.000  C
  H44      1.0000 0.43097  0.56903  0.83723  Biso   1.000  H
  C240     1.0000 0.47317  0.52683  0.92785  Biso   1.000  C
  C241     1.0000 0.15473  0.84527  0.29813  Biso   1.000  C
  C242     1.0000 0.10868  0.89132  0.19305  Biso   1.000  C
  H45      1.0000 0.09763  0.90237  0.17057  Biso   1.000  H
  C243     1.0000 0.13983  0.86017  0.26119  Biso   1.000  C
  C244     1.0000 0.64280  0.82140  0.36854  Biso   1.000  C
  C245     1.0000 0.55070  0.77535  0.47362  Biso   1.000  C
  H46      1.0000 0.52860  0.76430  0.49610  Biso   1.000  H
  C246     1.0000 0.61300  0.80650  0.40548  Biso   1.000  C
  C247     1.0000 0.30947  0.15473  0.70187  Biso   1.000  C
  C248     1.0000 0.21737  0.10868  0.80695  Biso   1.000  C
  H47      1.0000 0.19527  0.09763  0.82943  Biso   1.000  H
  C249     1.0000 0.27967  0.13983  0.73881  Biso   1.000  C
  C250     1.0000 0.97613  0.48807  0.03521  Biso   1.000  C
  C251     1.0000 0.88403  0.44202  0.14029  Biso   1.000  C
  H48      1.0000 0.86193  0.43097  0.16277  Biso   1.000  H
  C252     1.0000 0.94633  0.47317  0.07215  Biso   1.000  C
  C253     1.0000 0.17860  0.35720  0.36854  Biso   1.000  C
  C254     1.0000 0.22465  0.44930  0.47362  Biso   1.000  C
  H49      1.0000 0.23570  0.47140  0.49610  Biso   1.000  H
  C255     1.0000 0.19350  0.38700  0.40548  Biso   1.000  C
  C256     1.0000 0.84527  0.69053  0.70187  Biso   1.000  C
  C257     1.0000 0.89132  0.78263  0.80695  Biso   1.000  C
  H50      1.0000 0.90237  0.80473  0.82943  Biso   1.000  H
  C258     1.0000 0.86017  0.72033  0.73881  Biso   1.000  C
  C259     1.0000 0.51193  0.02387  0.03521  Biso   1.000  C
  C260     1.0000 0.55798  0.11597  0.14029  Biso   1.000  C
  H51      1.0000 0.56903  0.13807  0.16277  Biso   1.000  H
  C261     1.0000 0.52683  0.05367  0.07215  Biso   1.000  C
  C262     1.0000 0.17860  0.82140  0.36854  Biso   1.000  C
  C263     1.0000 0.22465  0.77535  0.47362  Biso   1.000  C
  H52      1.0000 0.23570  0.76430  0.49610  Biso   1.000  H
  C264     1.0000 0.19350  0.80650  0.40548  Biso   1.000  C
  C265     1.0000 0.84527  0.15473  0.70187  Biso   1.000  C
  C266     1.0000 0.89132  0.10868  0.80695  Biso   1.000  C
  H53      1.0000 0.90237  0.09763  0.82943  Biso   1.000  H
  C267     1.0000 0.86017  0.13983  0.73881  Biso   1.000  C
  C268     1.0000 0.51193  0.48807  0.03521  Biso   1.000  C
  C269     1.0000 0.55798  0.44202  0.14029  Biso   1.000  C
  H54      1.0000 0.56903  0.43097  0.16277  Biso   1.000  H
  C270     1.0000 0.52683  0.47317  0.07215  Biso   1.000  C
