data_image0
_cell_length_a       28.166
_cell_length_b       28.166
_cell_length_c       9.7199
_cell_angle_alpha    90
_cell_angle_beta     90
_cell_angle_gamma    90

_symmetry_space_group_name_H-M    "P 1"
_symmetry_int_tables_number       1

loop_
  _symmetry_equiv_pos_as_xyz
  'x, y, z'

loop_
  _atom_site_label
  _atom_site_occupancy
  _atom_site_fract_x
  _atom_site_fract_y
  _atom_site_fract_z
  _atom_site_thermal_displace_type
  _atom_site_B_iso_or_equiv
  _atom_site_type_symbol
  O1       1.0000 0.98589  0.43865  0.66380  Biso   1.000  O
  O2       1.0000 0.04323  0.44520  0.51040  Biso   1.000  O
  O3       1.0000 0.09461  0.30062  0.25380  Biso   1.000  O
  O4       1.0000 0.05750  0.23396  0.28480  Biso   1.000  O
  O5       1.0000 0.79458  0.33712  0.47820  Biso   1.000  O
  O6       1.0000 0.74398  0.28615  0.56270  Biso   1.000  O
  C1       1.0000 0.01261  0.42270  0.57260  Biso   1.000  C
  C2       1.0000 0.06260  0.27630  0.31110  Biso   1.000  C
  C3       1.0000 0.00560  0.37093  0.53170  Biso   1.000  C
  C4       1.0000 0.03594  0.34920  0.44650  Biso   1.000  C
  H1       1.0000 0.06150  0.36610  0.41070  Biso   1.000  H
  C5       1.0000 0.02989  0.30110  0.41020  Biso   1.000  C
  C6       1.0000 0.99240  0.27617  0.46650  Biso   1.000  C
  H2       1.0000 0.98930  0.24390  0.44860  Biso   1.000  H
  C7       1.0000 0.95924  0.29871  0.54930  Biso   1.000  C
  C8       1.0000 0.96569  0.34574  0.58380  Biso   1.000  C
  H3       1.0000 0.94400  0.36090  0.64100  Biso   1.000  H
  C9       1.0000 0.78640  0.30020  0.54320  Biso   1.000  C
  C10      1.0000 0.82863  0.27305  0.59200  Biso   1.000  C
  C11      1.0000 0.87178  0.29283  0.56410  Biso   1.000  C
  H4       1.0000 0.87220  0.32220  0.52020  Biso   1.000  H
  C12      1.0000 0.91527  0.27221  0.59650  Biso   1.000  C
  H5       1.0000 0.74430  0.26020  0.60080  Biso   1.000  H
  O7       1.0000 0.48589  0.93865  0.16380  Biso   1.000  O
  O8       1.0000 0.54323  0.94520  0.01040  Biso   1.000  O
  O9       1.0000 0.59461  0.80062  0.75380  Biso   1.000  O
  O10      1.0000 0.55750  0.73396  0.78480  Biso   1.000  O
  O11      1.0000 0.29458  0.83712  0.97820  Biso   1.000  O
  O12      1.0000 0.24398  0.78615  0.06270  Biso   1.000  O
  C13      1.0000 0.51261  0.92270  0.07260  Biso   1.000  C
  C14      1.0000 0.56260  0.77630  0.81110  Biso   1.000  C
  C15      1.0000 0.50560  0.87093  0.03170  Biso   1.000  C
  C16      1.0000 0.53594  0.84920  0.94650  Biso   1.000  C
  H6       1.0000 0.56150  0.86610  0.91070  Biso   1.000  H
  C17      1.0000 0.52989  0.80110  0.91020  Biso   1.000  C
  C18      1.0000 0.49240  0.77617  0.96650  Biso   1.000  C
  H7       1.0000 0.48930  0.74390  0.94860  Biso   1.000  H
  C19      1.0000 0.45924  0.79871  0.04930  Biso   1.000  C
  C20      1.0000 0.46569  0.84574  0.08380  Biso   1.000  C
  H8       1.0000 0.44400  0.86090  0.14100  Biso   1.000  H
  C21      1.0000 0.28640  0.80020  0.04320  Biso   1.000  C
  C22      1.0000 0.32863  0.77305  0.09200  Biso   1.000  C
  C23      1.0000 0.37178  0.79283  0.06410  Biso   1.000  C
  H9       1.0000 0.37220  0.82220  0.02020  Biso   1.000  H
  C24      1.0000 0.41527  0.77221  0.09650  Biso   1.000  C
  H10      1.0000 0.24430  0.76020  0.10080  Biso   1.000  H
  O13      1.0000 0.01411  0.56135  0.66380  Biso   1.000  O
  O14      1.0000 0.95677  0.55480  0.51040  Biso   1.000  O
  O15      1.0000 0.90539  0.69938  0.25380  Biso   1.000  O
  O16      1.0000 0.94250  0.76604  0.28480  Biso   1.000  O
  O17      1.0000 0.20542  0.66288  0.47820  Biso   1.000  O
  O18      1.0000 0.25602  0.71385  0.56270  Biso   1.000  O
  C25      1.0000 0.98739  0.57730  0.57260  Biso   1.000  C
  C26      1.0000 0.93740  0.72370  0.31110  Biso   1.000  C
  C27      1.0000 0.99440  0.62907  0.53170  Biso   1.000  C
  C28      1.0000 0.96406  0.65080  0.44650  Biso   1.000  C
  H11      1.0000 0.93850  0.63390  0.41070  Biso   1.000  H
  C29      1.0000 0.97011  0.69890  0.41020  Biso   1.000  C
  C30      1.0000 0.00760  0.72383  0.46650  Biso   1.000  C
  H12      1.0000 0.01070  0.75610  0.44860  Biso   1.000  H
  C31      1.0000 0.04076  0.70129  0.54930  Biso   1.000  C
  C32      1.0000 0.03431  0.65426  0.58380  Biso   1.000  C
  H13      1.0000 0.05600  0.63910  0.64100  Biso   1.000  H
  C33      1.0000 0.21360  0.69980  0.54320  Biso   1.000  C
  C34      1.0000 0.17137  0.72695  0.59200  Biso   1.000  C
  C35      1.0000 0.12822  0.70717  0.56410  Biso   1.000  C
  H14      1.0000 0.12780  0.67780  0.52020  Biso   1.000  H
  C36      1.0000 0.08473  0.72779  0.59650  Biso   1.000  C
  H15      1.0000 0.25570  0.73980  0.60080  Biso   1.000  H
  O19      1.0000 0.51411  0.06135  0.16380  Biso   1.000  O
  O20      1.0000 0.45677  0.05480  0.01040  Biso   1.000  O
  O21      1.0000 0.40539  0.19938  0.75380  Biso   1.000  O
  O22      1.0000 0.44250  0.26604  0.78480  Biso   1.000  O
  O23      1.0000 0.70542  0.16288  0.97820  Biso   1.000  O
  O24      1.0000 0.75602  0.21385  0.06270  Biso   1.000  O
  C37      1.0000 0.48739  0.07730  0.07260  Biso   1.000  C
  C38      1.0000 0.43740  0.22370  0.81110  Biso   1.000  C
  C39      1.0000 0.49440  0.12907  0.03170  Biso   1.000  C
  C40      1.0000 0.46406  0.15080  0.94650  Biso   1.000  C
  H16      1.0000 0.43850  0.13390  0.91070  Biso   1.000  H
  C41      1.0000 0.47011  0.19890  0.91020  Biso   1.000  C
  C42      1.0000 0.50760  0.22383  0.96650  Biso   1.000  C
  H17      1.0000 0.51070  0.25610  0.94860  Biso   1.000  H
  C43      1.0000 0.54076  0.20129  0.04930  Biso   1.000  C
  C44      1.0000 0.53431  0.15426  0.08380  Biso   1.000  C
  H18      1.0000 0.55600  0.13910  0.14100  Biso   1.000  H
  C45      1.0000 0.71360  0.19980  0.04320  Biso   1.000  C
  C46      1.0000 0.67137  0.22695  0.09200  Biso   1.000  C
  C47      1.0000 0.62822  0.20717  0.06410  Biso   1.000  C
  H19      1.0000 0.62780  0.17780  0.02020  Biso   1.000  H
  C48      1.0000 0.58473  0.22779  0.09650  Biso   1.000  C
  H20      1.0000 0.75570  0.23980  0.10080  Biso   1.000  H
  O25      1.0000 0.43865  0.01411  0.33620  Biso   1.000  O
  O26      1.0000 0.44520  0.95677  0.48960  Biso   1.000  O
  O27      1.0000 0.30062  0.90539  0.74620  Biso   1.000  O
  O28      1.0000 0.23396  0.94250  0.71520  Biso   1.000  O
  O29      1.0000 0.33712  0.20542  0.52180  Biso   1.000  O
  O30      1.0000 0.28615  0.25602  0.43730  Biso   1.000  O
  C49      1.0000 0.42270  0.98739  0.42740  Biso   1.000  C
  C50      1.0000 0.27630  0.93740  0.68890  Biso   1.000  C
  C51      1.0000 0.37093  0.99440  0.46830  Biso   1.000  C
  C52      1.0000 0.34920  0.96406  0.55350  Biso   1.000  C
  H21      1.0000 0.36610  0.93850  0.58930  Biso   1.000  H
  C53      1.0000 0.30110  0.97011  0.58980  Biso   1.000  C
  C54      1.0000 0.27617  0.00760  0.53350  Biso   1.000  C
  H22      1.0000 0.24390  0.01070  0.55140  Biso   1.000  H
  C55      1.0000 0.29871  0.04076  0.45070  Biso   1.000  C
  C56      1.0000 0.34574  0.03431  0.41620  Biso   1.000  C
  H23      1.0000 0.36090  0.05600  0.35900  Biso   1.000  H
  C57      1.0000 0.30020  0.21360  0.45680  Biso   1.000  C
  C58      1.0000 0.27305  0.17137  0.40800  Biso   1.000  C
  C59      1.0000 0.29283  0.12822  0.43590  Biso   1.000  C
  H24      1.0000 0.32220  0.12780  0.47980  Biso   1.000  H
  C60      1.0000 0.27221  0.08473  0.40350  Biso   1.000  C
  H25      1.0000 0.26020  0.25570  0.39920  Biso   1.000  H
  O31      1.0000 0.93865  0.51411  0.83620  Biso   1.000  O
  O32      1.0000 0.94520  0.45677  0.98960  Biso   1.000  O
  O33      1.0000 0.80062  0.40539  0.24620  Biso   1.000  O
  O34      1.0000 0.73396  0.44250  0.21520  Biso   1.000  O
  O35      1.0000 0.83712  0.70542  0.02180  Biso   1.000  O
  O36      1.0000 0.78615  0.75602  0.93730  Biso   1.000  O
  C61      1.0000 0.92270  0.48739  0.92740  Biso   1.000  C
  C62      1.0000 0.77630  0.43740  0.18890  Biso   1.000  C
  C63      1.0000 0.87093  0.49440  0.96830  Biso   1.000  C
  C64      1.0000 0.84920  0.46406  0.05350  Biso   1.000  C
  H26      1.0000 0.86610  0.43850  0.08930  Biso   1.000  H
  C65      1.0000 0.80110  0.47011  0.08980  Biso   1.000  C
  C66      1.0000 0.77617  0.50760  0.03350  Biso   1.000  C
  H27      1.0000 0.74390  0.51070  0.05140  Biso   1.000  H
  C67      1.0000 0.79871  0.54076  0.95070  Biso   1.000  C
  C68      1.0000 0.84574  0.53431  0.91620  Biso   1.000  C
  H28      1.0000 0.86090  0.55600  0.85900  Biso   1.000  H
  C69      1.0000 0.80020  0.71360  0.95680  Biso   1.000  C
  C70      1.0000 0.77305  0.67137  0.90800  Biso   1.000  C
  C71      1.0000 0.79283  0.62822  0.93590  Biso   1.000  C
  H29      1.0000 0.82220  0.62780  0.97980  Biso   1.000  H
  C72      1.0000 0.77221  0.58473  0.90350  Biso   1.000  C
  H30      1.0000 0.76020  0.75570  0.89920  Biso   1.000  H
  O37      1.0000 0.56135  0.98589  0.33620  Biso   1.000  O
  O38      1.0000 0.55480  0.04323  0.48960  Biso   1.000  O
  O39      1.0000 0.69938  0.09461  0.74620  Biso   1.000  O
  O40      1.0000 0.76604  0.05750  0.71520  Biso   1.000  O
  O41      1.0000 0.66288  0.79458  0.52180  Biso   1.000  O
  O42      1.0000 0.71385  0.74398  0.43730  Biso   1.000  O
  C73      1.0000 0.57730  0.01261  0.42740  Biso   1.000  C
  C74      1.0000 0.72370  0.06260  0.68890  Biso   1.000  C
  C75      1.0000 0.62907  0.00560  0.46830  Biso   1.000  C
  C76      1.0000 0.65080  0.03594  0.55350  Biso   1.000  C
  H31      1.0000 0.63390  0.06150  0.58930  Biso   1.000  H
  C77      1.0000 0.69890  0.02989  0.58980  Biso   1.000  C
  C78      1.0000 0.72383  0.99240  0.53350  Biso   1.000  C
  H32      1.0000 0.75610  0.98930  0.55140  Biso   1.000  H
  C79      1.0000 0.70129  0.95924  0.45070  Biso   1.000  C
  C80      1.0000 0.65426  0.96569  0.41620  Biso   1.000  C
  H33      1.0000 0.63910  0.94400  0.35900  Biso   1.000  H
  C81      1.0000 0.69980  0.78640  0.45680  Biso   1.000  C
  C82      1.0000 0.72695  0.82863  0.40800  Biso   1.000  C
  C83      1.0000 0.70717  0.87178  0.43590  Biso   1.000  C
  H34      1.0000 0.67780  0.87220  0.47980  Biso   1.000  H
  C84      1.0000 0.72779  0.91527  0.40350  Biso   1.000  C
  H35      1.0000 0.73980  0.74430  0.39920  Biso   1.000  H
  O43      1.0000 0.06135  0.48589  0.83620  Biso   1.000  O
  O44      1.0000 0.05480  0.54323  0.98960  Biso   1.000  O
  O45      1.0000 0.19938  0.59461  0.24620  Biso   1.000  O
  O46      1.0000 0.26604  0.55750  0.21520  Biso   1.000  O
  O47      1.0000 0.16288  0.29458  0.02180  Biso   1.000  O
  O48      1.0000 0.21385  0.24398  0.93730  Biso   1.000  O
  C85      1.0000 0.07730  0.51261  0.92740  Biso   1.000  C
  C86      1.0000 0.22370  0.56260  0.18890  Biso   1.000  C
  C87      1.0000 0.12907  0.50560  0.96830  Biso   1.000  C
  C88      1.0000 0.15080  0.53594  0.05350  Biso   1.000  C
  H36      1.0000 0.13390  0.56150  0.08930  Biso   1.000  H
  C89      1.0000 0.19890  0.52989  0.08980  Biso   1.000  C
  C90      1.0000 0.22383  0.49240  0.03350  Biso   1.000  C
  H37      1.0000 0.25610  0.48930  0.05140  Biso   1.000  H
  C91      1.0000 0.20129  0.45924  0.95070  Biso   1.000  C
  C92      1.0000 0.15426  0.46569  0.91620  Biso   1.000  C
  H38      1.0000 0.13910  0.44400  0.85900  Biso   1.000  H
  C93      1.0000 0.19980  0.28640  0.95680  Biso   1.000  C
  C94      1.0000 0.22695  0.32863  0.90800  Biso   1.000  C
  C95      1.0000 0.20717  0.37178  0.93590  Biso   1.000  C
  H39      1.0000 0.17780  0.37220  0.97980  Biso   1.000  H
  C96      1.0000 0.22779  0.41527  0.90350  Biso   1.000  C
  H40      1.0000 0.23980  0.24430  0.89920  Biso   1.000  H
  O49      1.0000 0.51411  0.43865  0.08620  Biso   1.000  O
  O50      1.0000 0.45677  0.44520  0.23960  Biso   1.000  O
  O51      1.0000 0.40539  0.30062  0.49620  Biso   1.000  O
  O52      1.0000 0.44250  0.23396  0.46520  Biso   1.000  O
  O53      1.0000 0.70542  0.33712  0.27180  Biso   1.000  O
  O54      1.0000 0.75602  0.28615  0.18730  Biso   1.000  O
  C97      1.0000 0.48739  0.42270  0.17740  Biso   1.000  C
  C98      1.0000 0.43740  0.27630  0.43890  Biso   1.000  C
  C99      1.0000 0.49440  0.37093  0.21830  Biso   1.000  C
  C100     1.0000 0.46406  0.34920  0.30350  Biso   1.000  C
  H41      1.0000 0.43850  0.36610  0.33930  Biso   1.000  H
  C101     1.0000 0.47011  0.30110  0.33980  Biso   1.000  C
  C102     1.0000 0.50760  0.27617  0.28350  Biso   1.000  C
  H42      1.0000 0.51070  0.24390  0.30140  Biso   1.000  H
  C103     1.0000 0.54076  0.29871  0.20070  Biso   1.000  C
  C104     1.0000 0.53431  0.34574  0.16620  Biso   1.000  C
  H43      1.0000 0.55600  0.36090  0.10900  Biso   1.000  H
  C105     1.0000 0.71360  0.30020  0.20680  Biso   1.000  C
  C106     1.0000 0.67137  0.27305  0.15800  Biso   1.000  C
  C107     1.0000 0.62822  0.29283  0.18590  Biso   1.000  C
  H44      1.0000 0.62780  0.32220  0.22980  Biso   1.000  H
  C108     1.0000 0.58473  0.27221  0.15350  Biso   1.000  C
  H45      1.0000 0.75570  0.26020  0.14920  Biso   1.000  H
  O55      1.0000 0.01411  0.93865  0.58620  Biso   1.000  O
  O56      1.0000 0.95677  0.94520  0.73960  Biso   1.000  O
  O57      1.0000 0.90539  0.80062  0.99620  Biso   1.000  O
  O58      1.0000 0.94250  0.73396  0.96520  Biso   1.000  O
  O59      1.0000 0.20542  0.83712  0.77180  Biso   1.000  O
  O60      1.0000 0.25602  0.78615  0.68730  Biso   1.000  O
  C109     1.0000 0.98739  0.92270  0.67740  Biso   1.000  C
  C110     1.0000 0.93740  0.77630  0.93890  Biso   1.000  C
  C111     1.0000 0.99440  0.87093  0.71830  Biso   1.000  C
  C112     1.0000 0.96406  0.84920  0.80350  Biso   1.000  C
  H46      1.0000 0.93850  0.86610  0.83930  Biso   1.000  H
  C113     1.0000 0.97011  0.80110  0.83980  Biso   1.000  C
  C114     1.0000 0.00760  0.77617  0.78350  Biso   1.000  C
  H47      1.0000 0.01070  0.74390  0.80140  Biso   1.000  H
  C115     1.0000 0.04076  0.79871  0.70070  Biso   1.000  C
  C116     1.0000 0.03431  0.84574  0.66620  Biso   1.000  C
  H48      1.0000 0.05600  0.86090  0.60900  Biso   1.000  H
  C117     1.0000 0.21360  0.80020  0.70680  Biso   1.000  C
  C118     1.0000 0.17137  0.77305  0.65800  Biso   1.000  C
  C119     1.0000 0.12822  0.79283  0.68590  Biso   1.000  C
  H49      1.0000 0.12780  0.82220  0.72980  Biso   1.000  H
  C120     1.0000 0.08473  0.77221  0.65350  Biso   1.000  C
  H50      1.0000 0.25570  0.76020  0.64920  Biso   1.000  H
  O61      1.0000 0.48589  0.56135  0.08620  Biso   1.000  O
  O62      1.0000 0.54323  0.55480  0.23960  Biso   1.000  O
  O63      1.0000 0.59461  0.69938  0.49620  Biso   1.000  O
  O64      1.0000 0.55750  0.76604  0.46520  Biso   1.000  O
  O65      1.0000 0.29458  0.66288  0.27180  Biso   1.000  O
  O66      1.0000 0.24398  0.71385  0.18730  Biso   1.000  O
  C121     1.0000 0.51261  0.57730  0.17740  Biso   1.000  C
  C122     1.0000 0.56260  0.72370  0.43890  Biso   1.000  C
  C123     1.0000 0.50560  0.62907  0.21830  Biso   1.000  C
  C124     1.0000 0.53594  0.65080  0.30350  Biso   1.000  C
  H51      1.0000 0.56150  0.63390  0.33930  Biso   1.000  H
  C125     1.0000 0.52989  0.69890  0.33980  Biso   1.000  C
  C126     1.0000 0.49240  0.72383  0.28350  Biso   1.000  C
  H52      1.0000 0.48930  0.75610  0.30140  Biso   1.000  H
  C127     1.0000 0.45924  0.70129  0.20070  Biso   1.000  C
  C128     1.0000 0.46569  0.65426  0.16620  Biso   1.000  C
  H53      1.0000 0.44400  0.63910  0.10900  Biso   1.000  H
  C129     1.0000 0.28640  0.69980  0.20680  Biso   1.000  C
  C130     1.0000 0.32863  0.72695  0.15800  Biso   1.000  C
  C131     1.0000 0.37178  0.70717  0.18590  Biso   1.000  C
  H54      1.0000 0.37220  0.67780  0.22980  Biso   1.000  H
  C132     1.0000 0.41527  0.72779  0.15350  Biso   1.000  C
  H55      1.0000 0.24430  0.73980  0.14920  Biso   1.000  H
  O67      1.0000 0.98589  0.06135  0.58620  Biso   1.000  O
  O68      1.0000 0.04323  0.05480  0.73960  Biso   1.000  O
  O69      1.0000 0.09461  0.19938  0.99620  Biso   1.000  O
  O70      1.0000 0.05750  0.26604  0.96520  Biso   1.000  O
  O71      1.0000 0.79458  0.16288  0.77180  Biso   1.000  O
  O72      1.0000 0.74398  0.21385  0.68730  Biso   1.000  O
  C133     1.0000 0.01261  0.07730  0.67740  Biso   1.000  C
  C134     1.0000 0.06260  0.22370  0.93890  Biso   1.000  C
  C135     1.0000 0.00560  0.12907  0.71830  Biso   1.000  C
  C136     1.0000 0.03594  0.15080  0.80350  Biso   1.000  C
  H56      1.0000 0.06150  0.13390  0.83930  Biso   1.000  H
  C137     1.0000 0.02989  0.19890  0.83980  Biso   1.000  C
  C138     1.0000 0.99240  0.22383  0.78350  Biso   1.000  C
  H57      1.0000 0.98930  0.25610  0.80140  Biso   1.000  H
  C139     1.0000 0.95924  0.20129  0.70070  Biso   1.000  C
  C140     1.0000 0.96569  0.15426  0.66620  Biso   1.000  C
  H58      1.0000 0.94400  0.13910  0.60900  Biso   1.000  H
  C141     1.0000 0.78640  0.19980  0.70680  Biso   1.000  C
  C142     1.0000 0.82863  0.22695  0.65800  Biso   1.000  C
  C143     1.0000 0.87178  0.20717  0.68590  Biso   1.000  C
  H59      1.0000 0.87220  0.17780  0.72980  Biso   1.000  H
  C144     1.0000 0.91527  0.22779  0.65350  Biso   1.000  C
  H60      1.0000 0.74430  0.23980  0.64920  Biso   1.000  H
  O73      1.0000 0.06135  0.01411  0.41380  Biso   1.000  O
  O74      1.0000 0.05480  0.95677  0.26040  Biso   1.000  O
  O75      1.0000 0.19938  0.90539  0.00380  Biso   1.000  O
  O76      1.0000 0.26604  0.94250  0.03480  Biso   1.000  O
  O77      1.0000 0.16288  0.20542  0.22820  Biso   1.000  O
  O78      1.0000 0.21385  0.25602  0.31270  Biso   1.000  O
  C145     1.0000 0.07730  0.98739  0.32260  Biso   1.000  C
  C146     1.0000 0.22370  0.93740  0.06110  Biso   1.000  C
  C147     1.0000 0.12907  0.99440  0.28170  Biso   1.000  C
  C148     1.0000 0.15080  0.96406  0.19650  Biso   1.000  C
  H61      1.0000 0.13390  0.93850  0.16070  Biso   1.000  H
  C149     1.0000 0.19890  0.97011  0.16020  Biso   1.000  C
  C150     1.0000 0.22383  0.00760  0.21650  Biso   1.000  C
  H62      1.0000 0.25610  0.01070  0.19860  Biso   1.000  H
  C151     1.0000 0.20129  0.04076  0.29930  Biso   1.000  C
  C152     1.0000 0.15426  0.03431  0.33380  Biso   1.000  C
  H63      1.0000 0.13910  0.05600  0.39100  Biso   1.000  H
  C153     1.0000 0.19980  0.21360  0.29320  Biso   1.000  C
  C154     1.0000 0.22695  0.17137  0.34200  Biso   1.000  C
  C155     1.0000 0.20717  0.12822  0.31410  Biso   1.000  C
  H64      1.0000 0.17780  0.12780  0.27020  Biso   1.000  H
  C156     1.0000 0.22779  0.08473  0.34650  Biso   1.000  C
  H65      1.0000 0.23980  0.25570  0.35080  Biso   1.000  H
  O79      1.0000 0.56135  0.51411  0.91380  Biso   1.000  O
  O80      1.0000 0.55480  0.45677  0.76040  Biso   1.000  O
  O81      1.0000 0.69938  0.40539  0.50380  Biso   1.000  O
  O82      1.0000 0.76604  0.44250  0.53480  Biso   1.000  O
  O83      1.0000 0.66288  0.70542  0.72820  Biso   1.000  O
  O84      1.0000 0.71385  0.75602  0.81270  Biso   1.000  O
  C157     1.0000 0.57730  0.48739  0.82260  Biso   1.000  C
  C158     1.0000 0.72370  0.43740  0.56110  Biso   1.000  C
  C159     1.0000 0.62907  0.49440  0.78170  Biso   1.000  C
  C160     1.0000 0.65080  0.46406  0.69650  Biso   1.000  C
  H66      1.0000 0.63390  0.43850  0.66070  Biso   1.000  H
  C161     1.0000 0.69890  0.47011  0.66020  Biso   1.000  C
  C162     1.0000 0.72383  0.50760  0.71650  Biso   1.000  C
  H67      1.0000 0.75610  0.51070  0.69860  Biso   1.000  H
  C163     1.0000 0.70129  0.54076  0.79930  Biso   1.000  C
  C164     1.0000 0.65426  0.53431  0.83380  Biso   1.000  C
  H68      1.0000 0.63910  0.55600  0.89100  Biso   1.000  H
  C165     1.0000 0.69980  0.71360  0.79320  Biso   1.000  C
  C166     1.0000 0.72695  0.67137  0.84200  Biso   1.000  C
  C167     1.0000 0.70717  0.62822  0.81410  Biso   1.000  C
  H69      1.0000 0.67780  0.62780  0.77020  Biso   1.000  H
  C168     1.0000 0.72779  0.58473  0.84650  Biso   1.000  C
  H70      1.0000 0.73980  0.75570  0.85080  Biso   1.000  H
  O85      1.0000 0.93865  0.98589  0.41380  Biso   1.000  O
  O86      1.0000 0.94520  0.04323  0.26040  Biso   1.000  O
  O87      1.0000 0.80062  0.09461  0.00380  Biso   1.000  O
  O88      1.0000 0.73396  0.05750  0.03480  Biso   1.000  O
  O89      1.0000 0.83712  0.79458  0.22820  Biso   1.000  O
  O90      1.0000 0.78615  0.74398  0.31270  Biso   1.000  O
  C169     1.0000 0.92270  0.01261  0.32260  Biso   1.000  C
  C170     1.0000 0.77630  0.06260  0.06110  Biso   1.000  C
  C171     1.0000 0.87093  0.00560  0.28170  Biso   1.000  C
  C172     1.0000 0.84920  0.03594  0.19650  Biso   1.000  C
  H71      1.0000 0.86610  0.06150  0.16070  Biso   1.000  H
  C173     1.0000 0.80110  0.02989  0.16020  Biso   1.000  C
  C174     1.0000 0.77617  0.99240  0.21650  Biso   1.000  C
  H72      1.0000 0.74390  0.98930  0.19860  Biso   1.000  H
  C175     1.0000 0.79871  0.95924  0.29930  Biso   1.000  C
  C176     1.0000 0.84574  0.96569  0.33380  Biso   1.000  C
  H73      1.0000 0.86090  0.94400  0.39100  Biso   1.000  H
  C177     1.0000 0.80020  0.78640  0.29320  Biso   1.000  C
  C178     1.0000 0.77305  0.82863  0.34200  Biso   1.000  C
  C179     1.0000 0.79283  0.87178  0.31410  Biso   1.000  C
  H74      1.0000 0.82220  0.87220  0.27020  Biso   1.000  H
  C180     1.0000 0.77221  0.91527  0.34650  Biso   1.000  C
  H75      1.0000 0.76020  0.74430  0.35080  Biso   1.000  H
  O91      1.0000 0.43865  0.48589  0.91380  Biso   1.000  O
  O92      1.0000 0.44520  0.54323  0.76040  Biso   1.000  O
  O93      1.0000 0.30062  0.59461  0.50380  Biso   1.000  O
  O94      1.0000 0.23396  0.55750  0.53480  Biso   1.000  O
  O95      1.0000 0.33712  0.29458  0.72820  Biso   1.000  O
  O96      1.0000 0.28615  0.24398  0.81270  Biso   1.000  O
  C181     1.0000 0.42270  0.51261  0.82260  Biso   1.000  C
  C182     1.0000 0.27630  0.56260  0.56110  Biso   1.000  C
  C183     1.0000 0.37093  0.50560  0.78170  Biso   1.000  C
  C184     1.0000 0.34920  0.53594  0.69650  Biso   1.000  C
  H76      1.0000 0.36610  0.56150  0.66070  Biso   1.000  H
  C185     1.0000 0.30110  0.52989  0.66020  Biso   1.000  C
  C186     1.0000 0.27617  0.49240  0.71650  Biso   1.000  C
  H77      1.0000 0.24390  0.48930  0.69860  Biso   1.000  H
  C187     1.0000 0.29871  0.45924  0.79930  Biso   1.000  C
  C188     1.0000 0.34574  0.46569  0.83380  Biso   1.000  C
  H78      1.0000 0.36090  0.44400  0.89100  Biso   1.000  H
  C189     1.0000 0.30020  0.28640  0.79320  Biso   1.000  C
  C190     1.0000 0.27305  0.32863  0.84200  Biso   1.000  C
  C191     1.0000 0.29283  0.37178  0.81410  Biso   1.000  C
  H79      1.0000 0.32220  0.37220  0.77020  Biso   1.000  H
  C192     1.0000 0.27221  0.41527  0.84650  Biso   1.000  C
  H80      1.0000 0.26020  0.24430  0.85080  Biso   1.000  H
  Zn1      1.0000 0.00000  0.50000  0.75000  Biso   1.000  Zn
  Zn2      1.0000 0.50000  0.00000  0.25000  Biso   1.000  Zn
  Zn3      1.0000 0.50000  0.50000  0.00000  Biso   1.000  Zn
  Zn4      1.0000 0.00000  0.00000  0.50000  Biso   1.000  Zn
  Zn5      1.0000 0.12032  0.25000  0.12500  Biso   1.000  Zn
  Zn6      1.0000 0.87968  0.75000  0.12500  Biso   1.000  Zn
  Zn7      1.0000 0.37968  0.25000  0.62500  Biso   1.000  Zn
  Zn8      1.0000 0.25000  0.87968  0.87500  Biso   1.000  Zn
  Zn9      1.0000 0.75000  0.37968  0.37500  Biso   1.000  Zn
  Zn10     1.0000 0.75000  0.12032  0.87500  Biso   1.000  Zn
  Zn11     1.0000 0.25000  0.62032  0.37500  Biso   1.000  Zn
  Zn12     1.0000 0.62032  0.75000  0.62500  Biso   1.000  Zn
