data_image0
_cell_length_a       30.41
_cell_length_b       17.909
_cell_length_c       10.567
_cell_angle_alpha    90
_cell_angle_beta     107.1
_cell_angle_gamma    90

_symmetry_space_group_name_H-M    "P 1"
_symmetry_int_tables_number       1

loop_
  _symmetry_equiv_pos_as_xyz
  'x, y, z'

loop_
  _atom_site_label
  _atom_site_occupancy
  _atom_site_fract_x
  _atom_site_fract_y
  _atom_site_fract_z
  _atom_site_thermal_displace_type
  _atom_site_B_iso_or_equiv
  _atom_site_type_symbol
  W1       1.0000 0.60843  0.81570  0.34243  Biso   1.000  W
  W2       1.0000 0.89161  0.63060  0.15819  Biso   1.000  W
  Co1      1.0000 0.42394  0.83530  0.18350  Biso   1.000  Co
  Co2      1.0000 0.57647  0.11110  0.31890  Biso   1.000  Co
  Co3      1.0000 0.75000  0.72450  0.75030  Biso   1.000  Co
  N1       1.0000 0.34830  0.83930  0.09300  Biso   1.000  N
  C1       1.0000 0.32310  0.87630  0.98100  Biso   1.000  C
  H1       1.0000 0.33830  0.90530  0.93170  Biso   1.000  H
  C2       1.0000 0.27610  0.87100  0.94200  Biso   1.000  C
  H2       1.0000 0.25870  0.89700  0.86470  Biso   1.000  H
  C3       1.0000 0.25420  0.83000  0.01400  Biso   1.000  C
  H3       1.0000 0.22160  0.82620  0.98620  Biso   1.000  H
  N2       1.0000 0.27930  0.79260  0.12500  Biso   1.000  N
  C4       1.0000 0.32640  0.79750  0.16450  Biso   1.000  C
  H4       1.0000 0.34380  0.77190  0.24180  Biso   1.000  H
  N3       1.0000 0.42150  0.71240  0.18200  Biso   1.000  N
  C5       1.0000 0.40520  0.66780  0.07300  Biso   1.000  C
  H5       1.0000 0.39220  0.68970  0.98840  Biso   1.000  H
  C6       1.0000 0.40750  0.59170  0.08600  Biso   1.000  C
  H6       1.0000 0.39620  0.56080  0.01030  Biso   1.000  H
  C7       1.0000 0.42630  0.56010  0.20800  Biso   1.000  C
  C8       1.0000 0.44260  0.60460  0.31730  Biso   1.000  C
  H7       1.0000 0.45560  0.58280  0.40200  Biso   1.000  H
  C9       1.0000 0.44020  0.68080  0.30400  Biso   1.000  C
  H8       1.0000 0.45150  0.71170  0.38010  Biso   1.000  H
  C10      1.0000 0.42800  0.47500  0.23100  Biso   1.000  C
  H9       1.0000 0.39560  0.46010  0.22550  Biso   1.000  H
  C11      1.0000 0.43570  0.44800  0.10500  Biso   1.000  C
  H10      1.0000 0.45460  0.40260  0.12360  Biso   1.000  H
  H11      1.0000 0.45170  0.48670  0.07030  Biso   1.000  H
  H12      1.0000 0.40610  0.43680  0.04030  Biso   1.000  H
  O1       1.0000 0.45600  0.44100  0.34700  Biso   1.000  O
  H13      1.0000 0.47630  0.41520  0.32830  Biso   1.000  H
  N4       1.0000 0.65100  0.11630  0.39600  Biso   1.000  N
  C12      1.0000 0.67480  0.16330  0.33660  Biso   1.000  C
  H14      1.0000 0.65850  0.19490  0.26600  Biso   1.000  H
  N5       1.0000 0.72210  0.16470  0.38000  Biso   1.000  N
  C13      1.0000 0.74550  0.11910  0.48200  Biso   1.000  C
  H15      1.0000 0.77820  0.12000  0.51140  Biso   1.000  H
  C14      1.0000 0.72180  0.07210  0.54100  Biso   1.000  C
  H16      1.0000 0.73800  0.04050  0.61160  Biso   1.000  H
  C15      1.0000 0.67450  0.07070  0.49800  Biso   1.000  C
  H17      1.0000 0.65800  0.03820  0.53900  Biso   1.000  H
  N6       1.0000 0.57540  0.23190  0.30100  Biso   1.000  N
  C16      1.0000 0.59730  0.26920  0.41520  Biso   1.000  C
  H18      1.0000 0.61050  0.24200  0.49460  Biso   1.000  H
  C17      1.0000 0.60020  0.34550  0.41500  Biso   1.000  C
  H19      1.0000 0.61540  0.37130  0.49450  Biso   1.000  H
  C18      1.0000 0.58120  0.38460  0.30100  Biso   1.000  C
  C19      1.0000 0.55930  0.34740  0.18600  Biso   1.000  C
  H20      1.0000 0.54610  0.37450  0.10680  Biso   1.000  H
  C20      1.0000 0.55640  0.27100  0.18600  Biso   1.000  C
  H21      1.0000 0.54120  0.24520  0.10690  Biso   1.000  H
  C21      1.0000 0.58380  0.47060  0.29200  Biso   1.000  C
  H22      1.0000 0.55740  0.49450  0.22480  Biso   1.000  H
  C22      1.0000 0.59090  0.49600  0.43200  Biso   1.000  C
  H23      1.0000 0.57370  0.54270  0.43120  Biso   1.000  H
  H24      1.0000 0.62370  0.50530  0.47430  Biso   1.000  H
  H25      1.0000 0.57980  0.45790  0.48090  Biso   1.000  H
  O2       1.0000 0.62880  0.48600  0.27700  Biso   1.000  O
  H26      1.0000 0.62870  0.47510  0.19930  Biso   1.000  H
  C23      1.0000 0.53580  0.82600  0.28000  Biso   1.000  C
  N7       1.0000 0.49410  0.82450  0.25700  Biso   1.000  N
  C24      1.0000 0.60430  0.81910  0.50290  Biso   1.000  C
  N8       1.0000 0.58110  0.83580  0.61070  Biso   1.000  N
  C25      1.0000 0.58930  0.93040  0.33100  Biso   1.000  C
  N9       1.0000 0.58000  0.00010  0.33000  Biso   1.000  N
  C26      1.0000 0.58830  0.82740  0.14590  Biso   1.000  C
  N10      1.0000 0.57540  0.83240  0.02100  Biso   1.000  N
  C27      1.0000 0.57400  0.70700  0.32900  Biso   1.000  C
  N11      1.0000 0.58100  0.65300  0.27800  Biso   1.000  N
  C28      1.0000 0.58620  0.70400  0.36600  Biso   1.000  C
  N12      1.0000 0.56880  0.64800  0.37800  Biso   1.000  N
  C29      1.0000 0.66540  0.78510  0.50200  Biso   1.000  C
  N13      1.0000 0.69290  0.74500  0.57900  Biso   1.000  N
  C30      1.0000 0.66710  0.88000  0.34100  Biso   1.000  C
  N14      1.0000 0.69700  0.91700  0.33000  Biso   1.000  N
  C31      1.0000 0.65300  0.74820  0.26200  Biso   1.000  C
  N15      1.0000 0.66620  0.69700  0.20500  Biso   1.000  N
  C32      1.0000 0.83940  0.68450  0.00000  Biso   1.000  C
  N16      1.0000 0.80120  0.68400  0.90600  Biso   1.000  N
  C33      1.0000 0.59140  0.11060  0.03070  Biso   1.000  C
  N17      1.0000 0.58570  0.10550  0.13820  Biso   1.000  N
  C34      1.0000 0.46540  0.12560  0.20900  Biso   1.000  C
  N18      1.0000 0.50560  0.11170  0.24400  Biso   1.000  N
  C35      1.0000 0.58390  0.11500  0.62120  Biso   1.000  C
  N19      1.0000 0.57570  0.11140  0.50260  Biso   1.000  N
  C36      1.0000 0.91870  0.74200  0.14300  Biso   1.000  C
  N20      1.0000 0.93110  0.79800  0.12900  Biso   1.000  N
  C37      1.0000 0.83370  0.56100  0.17200  Biso   1.000  C
  N21      1.0000 0.80180  0.52800  0.17300  Biso   1.000  N
  C38      1.0000 0.85380  0.70800  0.25000  Biso   1.000  C
  N22      1.0000 0.82470  0.74000  0.27700  Biso   1.000  N
  C39      1.0000 0.63700  0.22300  0.75700  Biso   1.000  C
  N23      1.0000 0.66200  0.27200  0.77600  Biso   1.000  N
  C40      1.0000 0.40820  0.01500  0.16400  Biso   1.000  C
  N24      1.0000 0.41830  0.95570  0.17600  Biso   1.000  N
  W3       1.0000 0.10843  0.31570  0.34243  Biso   1.000  W
  W4       1.0000 0.39161  0.13060  0.15819  Biso   1.000  W
  Co4      1.0000 0.92394  0.33530  0.18350  Biso   1.000  Co
  Co5      1.0000 0.07647  0.61110  0.31890  Biso   1.000  Co
  Co6      1.0000 0.25000  0.22450  0.75030  Biso   1.000  Co
  N25      1.0000 0.84830  0.33930  0.09300  Biso   1.000  N
  C41      1.0000 0.82310  0.37630  0.98100  Biso   1.000  C
  H27      1.0000 0.83830  0.40530  0.93170  Biso   1.000  H
  C42      1.0000 0.77610  0.37100  0.94200  Biso   1.000  C
  H28      1.0000 0.75870  0.39700  0.86470  Biso   1.000  H
  C43      1.0000 0.75420  0.33000  0.01400  Biso   1.000  C
  H29      1.0000 0.72160  0.32620  0.98620  Biso   1.000  H
  N26      1.0000 0.77930  0.29260  0.12500  Biso   1.000  N
  C44      1.0000 0.82640  0.29750  0.16450  Biso   1.000  C
  H30      1.0000 0.84380  0.27190  0.24180  Biso   1.000  H
  N27      1.0000 0.92150  0.21240  0.18200  Biso   1.000  N
  C45      1.0000 0.90520  0.16780  0.07300  Biso   1.000  C
  H31      1.0000 0.89220  0.18970  0.98840  Biso   1.000  H
  C46      1.0000 0.90750  0.09170  0.08600  Biso   1.000  C
  H32      1.0000 0.89620  0.06080  0.01030  Biso   1.000  H
  C47      1.0000 0.92630  0.06010  0.20800  Biso   1.000  C
  C48      1.0000 0.94260  0.10460  0.31730  Biso   1.000  C
  H33      1.0000 0.95560  0.08280  0.40200  Biso   1.000  H
  C49      1.0000 0.94020  0.18080  0.30400  Biso   1.000  C
  H34      1.0000 0.95150  0.21170  0.38010  Biso   1.000  H
  C50      1.0000 0.92800  0.97500  0.23100  Biso   1.000  C
  H35      1.0000 0.89560  0.96010  0.22550  Biso   1.000  H
  C51      1.0000 0.93570  0.94800  0.10500  Biso   1.000  C
  H36      1.0000 0.95460  0.90260  0.12360  Biso   1.000  H
  H37      1.0000 0.95170  0.98670  0.07030  Biso   1.000  H
  H38      1.0000 0.90610  0.93680  0.04030  Biso   1.000  H
  O3       1.0000 0.95600  0.94100  0.34700  Biso   1.000  O
  H39      1.0000 0.97630  0.91520  0.32830  Biso   1.000  H
  N28      1.0000 0.15100  0.61630  0.39600  Biso   1.000  N
  C52      1.0000 0.17480  0.66330  0.33660  Biso   1.000  C
  H40      1.0000 0.15850  0.69490  0.26600  Biso   1.000  H
  N29      1.0000 0.22210  0.66470  0.38000  Biso   1.000  N
  C53      1.0000 0.24550  0.61910  0.48200  Biso   1.000  C
  H41      1.0000 0.27820  0.62000  0.51140  Biso   1.000  H
  C54      1.0000 0.22180  0.57210  0.54100  Biso   1.000  C
  H42      1.0000 0.23800  0.54050  0.61160  Biso   1.000  H
  C55      1.0000 0.17450  0.57070  0.49800  Biso   1.000  C
  H43      1.0000 0.15800  0.53820  0.53900  Biso   1.000  H
  N30      1.0000 0.07540  0.73190  0.30100  Biso   1.000  N
  C56      1.0000 0.09730  0.76920  0.41520  Biso   1.000  C
  H44      1.0000 0.11050  0.74200  0.49460  Biso   1.000  H
  C57      1.0000 0.10020  0.84550  0.41500  Biso   1.000  C
  H45      1.0000 0.11540  0.87130  0.49450  Biso   1.000  H
  C58      1.0000 0.08120  0.88460  0.30100  Biso   1.000  C
  C59      1.0000 0.05930  0.84740  0.18600  Biso   1.000  C
  H46      1.0000 0.04610  0.87450  0.10680  Biso   1.000  H
  C60      1.0000 0.05640  0.77100  0.18600  Biso   1.000  C
  H47      1.0000 0.04120  0.74520  0.10690  Biso   1.000  H
  C61      1.0000 0.08380  0.97060  0.29200  Biso   1.000  C
  H48      1.0000 0.05740  0.99450  0.22480  Biso   1.000  H
  C62      1.0000 0.09090  0.99600  0.43200  Biso   1.000  C
  H49      1.0000 0.07370  0.04270  0.43120  Biso   1.000  H
  H50      1.0000 0.12370  0.00530  0.47430  Biso   1.000  H
  H51      1.0000 0.07980  0.95790  0.48090  Biso   1.000  H
  O4       1.0000 0.12880  0.98600  0.27700  Biso   1.000  O
  H52      1.0000 0.12870  0.97510  0.19930  Biso   1.000  H
  C63      1.0000 0.03580  0.32600  0.28000  Biso   1.000  C
  N31      1.0000 0.99410  0.32450  0.25700  Biso   1.000  N
  C64      1.0000 0.10430  0.31910  0.50290  Biso   1.000  C
  N32      1.0000 0.08110  0.33580  0.61070  Biso   1.000  N
  C65      1.0000 0.08930  0.43040  0.33100  Biso   1.000  C
  N33      1.0000 0.08000  0.50010  0.33000  Biso   1.000  N
  C66      1.0000 0.08830  0.32740  0.14590  Biso   1.000  C
  N34      1.0000 0.07540  0.33240  0.02100  Biso   1.000  N
  C67      1.0000 0.07400  0.20700  0.32900  Biso   1.000  C
  N35      1.0000 0.08100  0.15300  0.27800  Biso   1.000  N
  C68      1.0000 0.08620  0.20400  0.36600  Biso   1.000  C
  N36      1.0000 0.06880  0.14800  0.37800  Biso   1.000  N
  C69      1.0000 0.16540  0.28510  0.50200  Biso   1.000  C
  N37      1.0000 0.19290  0.24500  0.57900  Biso   1.000  N
  C70      1.0000 0.16710  0.38000  0.34100  Biso   1.000  C
  N38      1.0000 0.19700  0.41700  0.33000  Biso   1.000  N
  C71      1.0000 0.15300  0.24820  0.26200  Biso   1.000  C
  N39      1.0000 0.16620  0.19700  0.20500  Biso   1.000  N
  C72      1.0000 0.33940  0.18450  0.00000  Biso   1.000  C
  N40      1.0000 0.30120  0.18400  0.90600  Biso   1.000  N
  C73      1.0000 0.09140  0.61060  0.03070  Biso   1.000  C
  N41      1.0000 0.08570  0.60550  0.13820  Biso   1.000  N
  C74      1.0000 0.96540  0.62560  0.20900  Biso   1.000  C
  N42      1.0000 0.00560  0.61170  0.24400  Biso   1.000  N
  C75      1.0000 0.08390  0.61500  0.62120  Biso   1.000  C
  N43      1.0000 0.07570  0.61140  0.50260  Biso   1.000  N
  C76      1.0000 0.41870  0.24200  0.14300  Biso   1.000  C
  N44      1.0000 0.43110  0.29800  0.12900  Biso   1.000  N
  C77      1.0000 0.33370  0.06100  0.17200  Biso   1.000  C
  N45      1.0000 0.30180  0.02800  0.17300  Biso   1.000  N
  C78      1.0000 0.35380  0.20800  0.25000  Biso   1.000  C
  N46      1.0000 0.32470  0.24000  0.27700  Biso   1.000  N
  C79      1.0000 0.13700  0.72300  0.75700  Biso   1.000  C
  N47      1.0000 0.16200  0.77200  0.77600  Biso   1.000  N
  C80      1.0000 0.90820  0.51500  0.16400  Biso   1.000  C
  N48      1.0000 0.91830  0.45570  0.17600  Biso   1.000  N
  W5       1.0000 0.39157  0.81570  0.65757  Biso   1.000  W
  W6       1.0000 0.10839  0.63060  0.84181  Biso   1.000  W
  Co7      1.0000 0.57606  0.83530  0.81650  Biso   1.000  Co
  Co8      1.0000 0.42353  0.11110  0.68110  Biso   1.000  Co
  Co9      1.0000 0.25000  0.72450  0.24970  Biso   1.000  Co
  N49      1.0000 0.65170  0.83930  0.90700  Biso   1.000  N
  C81      1.0000 0.67690  0.87630  0.01900  Biso   1.000  C
  H53      1.0000 0.66170  0.90530  0.06830  Biso   1.000  H
  C82      1.0000 0.72390  0.87100  0.05800  Biso   1.000  C
  H54      1.0000 0.74130  0.89700  0.13530  Biso   1.000  H
  C83      1.0000 0.74580  0.83000  0.98600  Biso   1.000  C
  H55      1.0000 0.77840  0.82620  0.01380  Biso   1.000  H
  N50      1.0000 0.72070  0.79260  0.87500  Biso   1.000  N
  C84      1.0000 0.67360  0.79750  0.83550  Biso   1.000  C
  H56      1.0000 0.65620  0.77190  0.75820  Biso   1.000  H
  N51      1.0000 0.57850  0.71240  0.81800  Biso   1.000  N
  C85      1.0000 0.59480  0.66780  0.92700  Biso   1.000  C
  H57      1.0000 0.60780  0.68970  0.01160  Biso   1.000  H
  C86      1.0000 0.59250  0.59170  0.91400  Biso   1.000  C
  H58      1.0000 0.60380  0.56080  0.98970  Biso   1.000  H
  C87      1.0000 0.57370  0.56010  0.79200  Biso   1.000  C
  C88      1.0000 0.55740  0.60460  0.68270  Biso   1.000  C
  H59      1.0000 0.54440  0.58280  0.59800  Biso   1.000  H
  C89      1.0000 0.55980  0.68080  0.69600  Biso   1.000  C
  H60      1.0000 0.54850  0.71170  0.61990  Biso   1.000  H
  C90      1.0000 0.57200  0.47500  0.76900  Biso   1.000  C
  H61      1.0000 0.60440  0.46010  0.77450  Biso   1.000  H
  C91      1.0000 0.56430  0.44800  0.89500  Biso   1.000  C
  H62      1.0000 0.54540  0.40260  0.87640  Biso   1.000  H
  H63      1.0000 0.54830  0.48670  0.92970  Biso   1.000  H
  H64      1.0000 0.59390  0.43680  0.95970  Biso   1.000  H
  O5       1.0000 0.54400  0.44100  0.65300  Biso   1.000  O
  H65      1.0000 0.52370  0.41520  0.67170  Biso   1.000  H
  N52      1.0000 0.34900  0.11630  0.60400  Biso   1.000  N
  C92      1.0000 0.32520  0.16330  0.66340  Biso   1.000  C
  H66      1.0000 0.34150  0.19490  0.73400  Biso   1.000  H
  N53      1.0000 0.27790  0.16470  0.62000  Biso   1.000  N
  C93      1.0000 0.25450  0.11910  0.51800  Biso   1.000  C
  H67      1.0000 0.22180  0.12000  0.48860  Biso   1.000  H
  C94      1.0000 0.27820  0.07210  0.45900  Biso   1.000  C
  H68      1.0000 0.26200  0.04050  0.38840  Biso   1.000  H
  C95      1.0000 0.32550  0.07070  0.50200  Biso   1.000  C
  H69      1.0000 0.34200  0.03820  0.46100  Biso   1.000  H
  N54      1.0000 0.42460  0.23190  0.69900  Biso   1.000  N
  C96      1.0000 0.40270  0.26920  0.58480  Biso   1.000  C
  H70      1.0000 0.38950  0.24200  0.50540  Biso   1.000  H
  C97      1.0000 0.39980  0.34550  0.58500  Biso   1.000  C
  H71      1.0000 0.38460  0.37130  0.50550  Biso   1.000  H
  C98      1.0000 0.41880  0.38460  0.69900  Biso   1.000  C
  C99      1.0000 0.44070  0.34740  0.81400  Biso   1.000  C
  H72      1.0000 0.45390  0.37450  0.89320  Biso   1.000  H
  C100     1.0000 0.44360  0.27100  0.81400  Biso   1.000  C
  H73      1.0000 0.45880  0.24520  0.89310  Biso   1.000  H
  C101     1.0000 0.41620  0.47060  0.70800  Biso   1.000  C
  H74      1.0000 0.44260  0.49450  0.77520  Biso   1.000  H
  C102     1.0000 0.40910  0.49600  0.56800  Biso   1.000  C
  H75      1.0000 0.42630  0.54270  0.56880  Biso   1.000  H
  H76      1.0000 0.37630  0.50530  0.52570  Biso   1.000  H
  H77      1.0000 0.42020  0.45790  0.51910  Biso   1.000  H
  O6       1.0000 0.37120  0.48600  0.72300  Biso   1.000  O
  H78      1.0000 0.37130  0.47510  0.80070  Biso   1.000  H
  C103     1.0000 0.46420  0.82600  0.72000  Biso   1.000  C
  N55      1.0000 0.50590  0.82450  0.74300  Biso   1.000  N
  C104     1.0000 0.39570  0.81910  0.49710  Biso   1.000  C
  N56      1.0000 0.41890  0.83580  0.38930  Biso   1.000  N
  C105     1.0000 0.41070  0.93040  0.66900  Biso   1.000  C
  N57      1.0000 0.42000  0.00010  0.67000  Biso   1.000  N
  C106     1.0000 0.41170  0.82740  0.85410  Biso   1.000  C
  N58      1.0000 0.42460  0.83240  0.97900  Biso   1.000  N
  C107     1.0000 0.42600  0.70700  0.67100  Biso   1.000  C
  N59      1.0000 0.41900  0.65300  0.72200  Biso   1.000  N
  C108     1.0000 0.41380  0.70400  0.63400  Biso   1.000  C
  N60      1.0000 0.43120  0.64800  0.62200  Biso   1.000  N
  C109     1.0000 0.33460  0.78510  0.49800  Biso   1.000  C
  N61      1.0000 0.30710  0.74500  0.42100  Biso   1.000  N
  C110     1.0000 0.33290  0.88000  0.65900  Biso   1.000  C
  N62      1.0000 0.30300  0.91700  0.67000  Biso   1.000  N
  C111     1.0000 0.34700  0.74820  0.73800  Biso   1.000  C
  N63      1.0000 0.33380  0.69700  0.79500  Biso   1.000  N
  C112     1.0000 0.16060  0.68450  0.00000  Biso   1.000  C
  N64      1.0000 0.19880  0.68400  0.09400  Biso   1.000  N
  C113     1.0000 0.40860  0.11060  0.96930  Biso   1.000  C
  N65      1.0000 0.41430  0.10550  0.86180  Biso   1.000  N
  C114     1.0000 0.53460  0.12560  0.79100  Biso   1.000  C
  N66      1.0000 0.49440  0.11170  0.75600  Biso   1.000  N
  C115     1.0000 0.41610  0.11500  0.37880  Biso   1.000  C
  N67      1.0000 0.42430  0.11140  0.49740  Biso   1.000  N
  C116     1.0000 0.08130  0.74200  0.85700  Biso   1.000  C
  N68      1.0000 0.06890  0.79800  0.87100  Biso   1.000  N
  C117     1.0000 0.16630  0.56100  0.82800  Biso   1.000  C
  N69      1.0000 0.19820  0.52800  0.82700  Biso   1.000  N
  C118     1.0000 0.14620  0.70800  0.75000  Biso   1.000  C
  N70      1.0000 0.17530  0.74000  0.72300  Biso   1.000  N
  C119     1.0000 0.36300  0.22300  0.24300  Biso   1.000  C
  N71      1.0000 0.33800  0.27200  0.22400  Biso   1.000  N
  C120     1.0000 0.59180  0.01500  0.83600  Biso   1.000  C
  N72      1.0000 0.58170  0.95570  0.82400  Biso   1.000  N
  W7       1.0000 0.89157  0.31570  0.65757  Biso   1.000  W
  W8       1.0000 0.60839  0.13060  0.84181  Biso   1.000  W
  Co10     1.0000 0.07606  0.33530  0.81650  Biso   1.000  Co
  Co11     1.0000 0.92353  0.61110  0.68110  Biso   1.000  Co
  Co12     1.0000 0.75000  0.22450  0.24970  Biso   1.000  Co
  N73      1.0000 0.15170  0.33930  0.90700  Biso   1.000  N
  C121     1.0000 0.17690  0.37630  0.01900  Biso   1.000  C
  H79      1.0000 0.16170  0.40530  0.06830  Biso   1.000  H
  C122     1.0000 0.22390  0.37100  0.05800  Biso   1.000  C
  H80      1.0000 0.24130  0.39700  0.13530  Biso   1.000  H
  C123     1.0000 0.24580  0.33000  0.98600  Biso   1.000  C
  H81      1.0000 0.27840  0.32620  0.01380  Biso   1.000  H
  N74      1.0000 0.22070  0.29260  0.87500  Biso   1.000  N
  C124     1.0000 0.17360  0.29750  0.83550  Biso   1.000  C
  H82      1.0000 0.15620  0.27190  0.75820  Biso   1.000  H
  N75      1.0000 0.07850  0.21240  0.81800  Biso   1.000  N
  C125     1.0000 0.09480  0.16780  0.92700  Biso   1.000  C
  H83      1.0000 0.10780  0.18970  0.01160  Biso   1.000  H
  C126     1.0000 0.09250  0.09170  0.91400  Biso   1.000  C
  H84      1.0000 0.10380  0.06080  0.98970  Biso   1.000  H
  C127     1.0000 0.07370  0.06010  0.79200  Biso   1.000  C
  C128     1.0000 0.05740  0.10460  0.68270  Biso   1.000  C
  H85      1.0000 0.04440  0.08280  0.59800  Biso   1.000  H
  C129     1.0000 0.05980  0.18080  0.69600  Biso   1.000  C
  H86      1.0000 0.04850  0.21170  0.61990  Biso   1.000  H
  C130     1.0000 0.07200  0.97500  0.76900  Biso   1.000  C
  H87      1.0000 0.10440  0.96010  0.77450  Biso   1.000  H
  C131     1.0000 0.06430  0.94800  0.89500  Biso   1.000  C
  H88      1.0000 0.04540  0.90260  0.87640  Biso   1.000  H
  H89      1.0000 0.04830  0.98670  0.92970  Biso   1.000  H
  H90      1.0000 0.09390  0.93680  0.95970  Biso   1.000  H
  O7       1.0000 0.04400  0.94100  0.65300  Biso   1.000  O
  H91      1.0000 0.02370  0.91520  0.67170  Biso   1.000  H
  N76      1.0000 0.84900  0.61630  0.60400  Biso   1.000  N
  C132     1.0000 0.82520  0.66330  0.66340  Biso   1.000  C
  H92      1.0000 0.84150  0.69490  0.73400  Biso   1.000  H
  N77      1.0000 0.77790  0.66470  0.62000  Biso   1.000  N
  C133     1.0000 0.75450  0.61910  0.51800  Biso   1.000  C
  H93      1.0000 0.72180  0.62000  0.48860  Biso   1.000  H
  C134     1.0000 0.77820  0.57210  0.45900  Biso   1.000  C
  H94      1.0000 0.76200  0.54050  0.38840  Biso   1.000  H
  C135     1.0000 0.82550  0.57070  0.50200  Biso   1.000  C
  H95      1.0000 0.84200  0.53820  0.46100  Biso   1.000  H
  N78      1.0000 0.92460  0.73190  0.69900  Biso   1.000  N
  C136     1.0000 0.90270  0.76920  0.58480  Biso   1.000  C
  H96      1.0000 0.88950  0.74200  0.50540  Biso   1.000  H
  C137     1.0000 0.89980  0.84550  0.58500  Biso   1.000  C
  H97      1.0000 0.88460  0.87130  0.50550  Biso   1.000  H
  C138     1.0000 0.91880  0.88460  0.69900  Biso   1.000  C
  C139     1.0000 0.94070  0.84740  0.81400  Biso   1.000  C
  H98      1.0000 0.95390  0.87450  0.89320  Biso   1.000  H
  C140     1.0000 0.94360  0.77100  0.81400  Biso   1.000  C
  H99      1.0000 0.95880  0.74520  0.89310  Biso   1.000  H
  C141     1.0000 0.91620  0.97060  0.70800  Biso   1.000  C
  H100     1.0000 0.94260  0.99450  0.77520  Biso   1.000  H
  C142     1.0000 0.90910  0.99600  0.56800  Biso   1.000  C
  H101     1.0000 0.92630  0.04270  0.56880  Biso   1.000  H
  H102     1.0000 0.87630  0.00530  0.52570  Biso   1.000  H
  H103     1.0000 0.92020  0.95790  0.51910  Biso   1.000  H
  O8       1.0000 0.87120  0.98600  0.72300  Biso   1.000  O
  H104     1.0000 0.87130  0.97510  0.80070  Biso   1.000  H
  C143     1.0000 0.96420  0.32600  0.72000  Biso   1.000  C
  N79      1.0000 0.00590  0.32450  0.74300  Biso   1.000  N
  C144     1.0000 0.89570  0.31910  0.49710  Biso   1.000  C
  N80      1.0000 0.91890  0.33580  0.38930  Biso   1.000  N
  C145     1.0000 0.91070  0.43040  0.66900  Biso   1.000  C
  N81      1.0000 0.92000  0.50010  0.67000  Biso   1.000  N
  C146     1.0000 0.91170  0.32740  0.85410  Biso   1.000  C
  N82      1.0000 0.92460  0.33240  0.97900  Biso   1.000  N
  C147     1.0000 0.92600  0.20700  0.67100  Biso   1.000  C
  N83      1.0000 0.91900  0.15300  0.72200  Biso   1.000  N
  C148     1.0000 0.91380  0.20400  0.63400  Biso   1.000  C
  N84      1.0000 0.93120  0.14800  0.62200  Biso   1.000  N
  C149     1.0000 0.83460  0.28510  0.49800  Biso   1.000  C
  N85      1.0000 0.80710  0.24500  0.42100  Biso   1.000  N
  C150     1.0000 0.83290  0.38000  0.65900  Biso   1.000  C
  N86      1.0000 0.80300  0.41700  0.67000  Biso   1.000  N
  C151     1.0000 0.84700  0.24820  0.73800  Biso   1.000  C
  N87      1.0000 0.83380  0.19700  0.79500  Biso   1.000  N
  C152     1.0000 0.66060  0.18450  0.00000  Biso   1.000  C
  N88      1.0000 0.69880  0.18400  0.09400  Biso   1.000  N
  C153     1.0000 0.90860  0.61060  0.96930  Biso   1.000  C
  N89      1.0000 0.91430  0.60550  0.86180  Biso   1.000  N
  C154     1.0000 0.03460  0.62560  0.79100  Biso   1.000  C
  N90      1.0000 0.99440  0.61170  0.75600  Biso   1.000  N
  C155     1.0000 0.91610  0.61500  0.37880  Biso   1.000  C
  N91      1.0000 0.92430  0.61140  0.49740  Biso   1.000  N
  C156     1.0000 0.58130  0.24200  0.85700  Biso   1.000  C
  N92      1.0000 0.56890  0.29800  0.87100  Biso   1.000  N
  C157     1.0000 0.66630  0.06100  0.82800  Biso   1.000  C
  N93      1.0000 0.69820  0.02800  0.82700  Biso   1.000  N
  C158     1.0000 0.64620  0.20800  0.75000  Biso   1.000  C
  N94      1.0000 0.67530  0.24000  0.72300  Biso   1.000  N
  C159     1.0000 0.86300  0.72300  0.24300  Biso   1.000  C
  N95      1.0000 0.83800  0.77200  0.22400  Biso   1.000  N
  C160     1.0000 0.09180  0.51500  0.83600  Biso   1.000  C
  N96      1.0000 0.08170  0.45570  0.82400  Biso   1.000  N
