data_image0
_cell_length_a       17.519
_cell_length_b       10.08
_cell_length_c       22.931
_cell_angle_alpha    90
_cell_angle_beta     98.72
_cell_angle_gamma    90

_symmetry_space_group_name_H-M    "P 1"
_symmetry_int_tables_number       1

loop_
  _symmetry_equiv_pos_as_xyz
  'x, y, z'

loop_
  _atom_site_label
  _atom_site_occupancy
  _atom_site_fract_x
  _atom_site_fract_y
  _atom_site_fract_z
  _atom_site_thermal_displace_type
  _atom_site_B_iso_or_equiv
  _atom_site_type_symbol
  Co1      1.0000 0.65934  0.81017  0.66017  Biso   1.000  Co
  N1       1.0000 0.67720  0.81050  0.75090  Biso   1.000  N
  N2       1.0000 0.72120  0.87150  0.84340  Biso   1.000  N
  N3       1.0000 0.68120  0.75820  0.84330  Biso   1.000  N
  N4       1.0000 0.54870  0.81430  0.61520  Biso   1.000  N
  N5       1.0000 0.44550  0.88490  0.55440  Biso   1.000  N
  N6       1.0000 0.42830  0.77410  0.58330  Biso   1.000  N
  N7       1.0000 0.94970  0.15790  0.82470  Biso   1.000  N
  N8       1.0000 0.90030  0.05650  0.81690  Biso   1.000  N
  N9       1.0000 0.95470  0.06810  0.91210  Biso   1.000  N
  O1       1.0000 0.63840  0.06050  0.67050  Biso   1.000  O
  O2       1.0000 0.72490  0.95460  0.63076  Biso   1.000  O
  O3       1.0000 0.63580  0.55790  0.67276  Biso   1.000  O
  O4       1.0000 0.72249  0.66430  0.63094  Biso   1.000  O
  O5       1.0000 0.90770  0.43020  0.53460  Biso   1.000  O
  O6       1.0000 0.92610  0.21220  0.54431  Biso   1.000  O
  C1       1.0000 0.69530  0.06200  0.64490  Biso   1.000  C
  C2       1.0000 0.72940  0.19030  0.62950  Biso   1.000  C
  C3       1.0000 0.69720  0.30950  0.64510  Biso   1.000  C
  H1       1.0000 0.65530  0.30830  0.66560  Biso   1.000  H
  C4       1.0000 0.72750  0.42890  0.63012  Biso   1.000  C
  C5       1.0000 0.69310  0.55660  0.64640  Biso   1.000  C
  C6       1.0000 0.78950  0.43010  0.59920  Biso   1.000  C
  H2       1.0000 0.80940  0.51060  0.58860  Biso   1.000  H
  C7       1.0000 0.82220  0.31220  0.58390  Biso   1.000  C
  C8       1.0000 0.79200  0.19290  0.59960  Biso   1.000  C
  H3       1.0000 0.81410  0.11370  0.58990  Biso   1.000  H
  C9       1.0000 0.89110  0.31630  0.55140  Biso   1.000  C
  C10      1.0000 0.71750  0.89970  0.78740  Biso   1.000  C
  H4       1.0000 0.74050  0.97450  0.77390  Biso   1.000  H
  C11      1.0000 0.65620  0.72380  0.78870  Biso   1.000  C
  H5       1.0000 0.62730  0.64800  0.77790  Biso   1.000  H
  C12      1.0000 0.66930  0.69620  0.89840  Biso   1.000  C
  H6       1.0000 0.71870  0.68340  0.92320  Biso   1.000  H
  H7       1.0000 0.64570  0.60980  0.89030  Biso   1.000  H
  C13      1.0000 0.61750  0.78170  0.93090  Biso   1.000  C
  C14      1.0000 0.54030  0.79000  0.91360  Biso   1.000  C
  H8       1.0000 0.51740  0.73640  0.88280  Biso   1.000  H
  C15      1.0000 0.49510  0.87420  0.93980  Biso   1.000  C
  H9       1.0000 0.44250  0.87740  0.92590  Biso   1.000  H
  C16      1.0000 0.52430  0.95410  0.98590  Biso   1.000  C
  C17      1.0000 0.60250  0.94400  0.00310  Biso   1.000  C
  H10      1.0000 0.62540  0.99660  0.03420  Biso   1.000  H
  C18      1.0000 0.64870  0.85930  0.97660  Biso   1.000  C
  H11      1.0000 0.70140  0.85550  0.99010  Biso   1.000  H
  C19      1.0000 0.51760  0.90440  0.57460  Biso   1.000  C
  H12      1.0000 0.54580  0.97450  0.56230  Biso   1.000  H
  C20      1.0000 0.48920  0.73440  0.61830  Biso   1.000  C
  H13      1.0000 0.49100  0.65980  0.64230  Biso   1.000  H
  C21      1.0000 0.34980  0.71950  0.57360  Biso   1.000  C
  H14      1.0000 0.35100  0.62970  0.58900  Biso   1.000  H
  H15      1.0000 0.33150  0.71530  0.53160  Biso   1.000  H
  C22      1.0000 0.23470  0.86740  0.56970  Biso   1.000  C
  H16      1.0000 0.22940  0.86330  0.52880  Biso   1.000  H
  C23      1.0000 0.18300  0.93960  0.59550  Biso   1.000  C
  H17      1.0000 0.14250  0.98190  0.57180  Biso   1.000  H
  C24      1.0000 0.18950  0.95120  0.65670  Biso   1.000  C
  C25      1.0000 0.25070  0.88750  0.68870  Biso   1.000  C
  H18      1.0000 0.25770  0.89360  0.72970  Biso   1.000  H
  C26      1.0000 0.30210  0.81490  0.66240  Biso   1.000  C
  H19      1.0000 0.34340  0.77410  0.68590  Biso   1.000  H
  C27      1.0000 0.29430  0.80100  0.60280  Biso   1.000  C
  C28      1.0000 0.13370  0.02940  0.68490  Biso   1.000  C
  C29      1.0000 0.05720  0.05600  0.65390  Biso   1.000  C
  H20      1.0000 0.04360  0.03080  0.61470  Biso   1.000  H
  C30      1.0000 0.00420  0.12100  0.68350  Biso   1.000  C
  H21      1.0000 0.95450  0.13810  0.66430  Biso   1.000  H
  C31      1.0000 0.02590  0.16210  0.74350  Biso   1.000  C
  C32      1.0000 0.09720  0.14000  0.76780  Biso   1.000  C
  H22      1.0000 0.11360  0.16890  0.80620  Biso   1.000  H
  C33      1.0000 0.14930  0.07400  0.73770  Biso   1.000  C
  H23      1.0000 0.19920  0.06150  0.75740  Biso   1.000  H
  C34      1.0000 0.96750  0.23590  0.77410  Biso   1.000  C
  C35      1.0000 0.98170  0.16230  0.88100  Biso   1.000  C
  H24      1.0000 0.01850  0.22430  0.89660  Biso   1.000  H
  C36      1.0000 0.90390  0.00680  0.87070  Biso   1.000  C
  H25      1.0000 0.87370  0.93550  0.87930  Biso   1.000  H
  C37      1.0000 0.09600  0.12900  0.66330  Biso   1.000  C
  C38      1.0000 0.03940  0.19300  0.69030  Biso   1.000  C
  C39      1.0000 0.07960  0.06400  0.77680  Biso   1.000  C
  C40      1.0000 0.13230  0.00100  0.74990  Biso   1.000  C
  H26      1.0000 0.10570  0.16190  0.62740  Biso   1.000  H
  H27      1.0000 0.01040  0.26000  0.66970  Biso   1.000  H
  H28      1.0000 0.07660  0.04680  0.81630  Biso   1.000  H
  H29      1.0000 0.16710  0.94150  0.77050  Biso   1.000  H
  Co2      1.0000 0.34066  0.31017  0.83983  Biso   1.000  Co
  N10      1.0000 0.32280  0.31050  0.74910  Biso   1.000  N
  N11      1.0000 0.27880  0.37150  0.65660  Biso   1.000  N
  N12      1.0000 0.31880  0.25820  0.65670  Biso   1.000  N
  N13      1.0000 0.45130  0.31430  0.88480  Biso   1.000  N
  N14      1.0000 0.55450  0.38490  0.94560  Biso   1.000  N
  N15      1.0000 0.57170  0.27410  0.91670  Biso   1.000  N
  N16      1.0000 0.05030  0.65790  0.67530  Biso   1.000  N
  N17      1.0000 0.09970  0.55650  0.68310  Biso   1.000  N
  N18      1.0000 0.04530  0.56810  0.58790  Biso   1.000  N
  O7       1.0000 0.36160  0.56050  0.82950  Biso   1.000  O
  O8       1.0000 0.27510  0.45460  0.86924  Biso   1.000  O
  O9       1.0000 0.36420  0.05790  0.82724  Biso   1.000  O
  O10      1.0000 0.27751  0.16430  0.86906  Biso   1.000  O
  O11      1.0000 0.09230  0.93020  0.96540  Biso   1.000  O
  O12      1.0000 0.07390  0.71220  0.95569  Biso   1.000  O
  C41      1.0000 0.30470  0.56200  0.85510  Biso   1.000  C
  C42      1.0000 0.27060  0.69030  0.87050  Biso   1.000  C
  C43      1.0000 0.30280  0.80950  0.85490  Biso   1.000  C
  H30      1.0000 0.34470  0.80830  0.83440  Biso   1.000  H
  C44      1.0000 0.27250  0.92890  0.86988  Biso   1.000  C
  C45      1.0000 0.30690  0.05660  0.85360  Biso   1.000  C
  C46      1.0000 0.21050  0.93010  0.90080  Biso   1.000  C
  H31      1.0000 0.19060  0.01060  0.91140  Biso   1.000  H
  C47      1.0000 0.17780  0.81220  0.91610  Biso   1.000  C
  C48      1.0000 0.20800  0.69290  0.90040  Biso   1.000  C
  H32      1.0000 0.18590  0.61370  0.91010  Biso   1.000  H
  C49      1.0000 0.10890  0.81630  0.94860  Biso   1.000  C
  C50      1.0000 0.28250  0.39970  0.71260  Biso   1.000  C
  H33      1.0000 0.25950  0.47450  0.72610  Biso   1.000  H
  C51      1.0000 0.34380  0.22380  0.71130  Biso   1.000  C
  H34      1.0000 0.37270  0.14800  0.72210  Biso   1.000  H
  C52      1.0000 0.33070  0.19620  0.60160  Biso   1.000  C
  H35      1.0000 0.28130  0.18340  0.57680  Biso   1.000  H
  H36      1.0000 0.35430  0.10980  0.60970  Biso   1.000  H
  C53      1.0000 0.38250  0.28170  0.56910  Biso   1.000  C
  C54      1.0000 0.45970  0.29000  0.58640  Biso   1.000  C
  H37      1.0000 0.48260  0.23640  0.61720  Biso   1.000  H
  C55      1.0000 0.50490  0.37420  0.56020  Biso   1.000  C
  H38      1.0000 0.55750  0.37740  0.57410  Biso   1.000  H
  C56      1.0000 0.47570  0.45410  0.51410  Biso   1.000  C
  C57      1.0000 0.39750  0.44400  0.49690  Biso   1.000  C
  H39      1.0000 0.37460  0.49660  0.46580  Biso   1.000  H
  C58      1.0000 0.35130  0.35930  0.52340  Biso   1.000  C
  H40      1.0000 0.29860  0.35550  0.50990  Biso   1.000  H
  C59      1.0000 0.48240  0.40440  0.92540  Biso   1.000  C
  H41      1.0000 0.45420  0.47450  0.93770  Biso   1.000  H
  C60      1.0000 0.51080  0.23440  0.88170  Biso   1.000  C
  H42      1.0000 0.50900  0.15980  0.85770  Biso   1.000  H
  C61      1.0000 0.65020  0.21950  0.92640  Biso   1.000  C
  H43      1.0000 0.64900  0.12970  0.91100  Biso   1.000  H
  H44      1.0000 0.66850  0.21530  0.96840  Biso   1.000  H
  C62      1.0000 0.76530  0.36740  0.93030  Biso   1.000  C
  H45      1.0000 0.77060  0.36330  0.97120  Biso   1.000  H
  C63      1.0000 0.81700  0.43960  0.90450  Biso   1.000  C
  H46      1.0000 0.85750  0.48190  0.92820  Biso   1.000  H
  C64      1.0000 0.81050  0.45120  0.84330  Biso   1.000  C
  C65      1.0000 0.74930  0.38750  0.81130  Biso   1.000  C
  H47      1.0000 0.74230  0.39360  0.77030  Biso   1.000  H
  C66      1.0000 0.69790  0.31490  0.83760  Biso   1.000  C
  H48      1.0000 0.65660  0.27410  0.81410  Biso   1.000  H
  C67      1.0000 0.70570  0.30100  0.89720  Biso   1.000  C
  C68      1.0000 0.86630  0.52940  0.81510  Biso   1.000  C
  C69      1.0000 0.94280  0.55600  0.84610  Biso   1.000  C
  H49      1.0000 0.95640  0.53080  0.88530  Biso   1.000  H
  C70      1.0000 0.99580  0.62100  0.81650  Biso   1.000  C
  H50      1.0000 0.04550  0.63810  0.83570  Biso   1.000  H
  C71      1.0000 0.97410  0.66210  0.75650  Biso   1.000  C
  C72      1.0000 0.90280  0.64000  0.73220  Biso   1.000  C
  H51      1.0000 0.88640  0.66890  0.69380  Biso   1.000  H
  C73      1.0000 0.85070  0.57400  0.76230  Biso   1.000  C
  H52      1.0000 0.80080  0.56150  0.74260  Biso   1.000  H
  C74      1.0000 0.03250  0.73590  0.72590  Biso   1.000  C
  C75      1.0000 0.01830  0.66230  0.61900  Biso   1.000  C
  H53      1.0000 0.98150  0.72430  0.60340  Biso   1.000  H
  C76      1.0000 0.09610  0.50680  0.62930  Biso   1.000  C
  H54      1.0000 0.12630  0.43550  0.62070  Biso   1.000  H
  C77      1.0000 0.90400  0.62900  0.83670  Biso   1.000  C
  C78      1.0000 0.96060  0.69300  0.80970  Biso   1.000  C
  C79      1.0000 0.92040  0.56400  0.72320  Biso   1.000  C
  C80      1.0000 0.86770  0.50100  0.75010  Biso   1.000  C
  H55      1.0000 0.89430  0.66190  0.87260  Biso   1.000  H
  H56      1.0000 0.98960  0.76000  0.83030  Biso   1.000  H
  H57      1.0000 0.92340  0.54680  0.68370  Biso   1.000  H
  H58      1.0000 0.83290  0.44150  0.72950  Biso   1.000  H
  Co3      1.0000 0.34066  0.18983  0.33983  Biso   1.000  Co
  N19      1.0000 0.32280  0.18950  0.24910  Biso   1.000  N
  N20      1.0000 0.27880  0.12850  0.15660  Biso   1.000  N
  N21      1.0000 0.31880  0.24180  0.15670  Biso   1.000  N
  N22      1.0000 0.45130  0.18570  0.38480  Biso   1.000  N
  N23      1.0000 0.55450  0.11510  0.44560  Biso   1.000  N
  N24      1.0000 0.57170  0.22590  0.41670  Biso   1.000  N
  N25      1.0000 0.05030  0.84210  0.17530  Biso   1.000  N
  N26      1.0000 0.09970  0.94350  0.18310  Biso   1.000  N
  N27      1.0000 0.04530  0.93190  0.08790  Biso   1.000  N
  O13      1.0000 0.36160  0.93950  0.32950  Biso   1.000  O
  O14      1.0000 0.27510  0.04540  0.36924  Biso   1.000  O
  O15      1.0000 0.36420  0.44210  0.32724  Biso   1.000  O
  O16      1.0000 0.27751  0.33570  0.36906  Biso   1.000  O
  O17      1.0000 0.09230  0.56980  0.46540  Biso   1.000  O
  O18      1.0000 0.07390  0.78780  0.45569  Biso   1.000  O
  C81      1.0000 0.30470  0.93800  0.35510  Biso   1.000  C
  C82      1.0000 0.27060  0.80970  0.37050  Biso   1.000  C
  C83      1.0000 0.30280  0.69050  0.35490  Biso   1.000  C
  H59      1.0000 0.34470  0.69170  0.33440  Biso   1.000  H
  C84      1.0000 0.27250  0.57110  0.36988  Biso   1.000  C
  C85      1.0000 0.30690  0.44340  0.35360  Biso   1.000  C
  C86      1.0000 0.21050  0.56990  0.40080  Biso   1.000  C
  H60      1.0000 0.19060  0.48940  0.41140  Biso   1.000  H
  C87      1.0000 0.17780  0.68780  0.41610  Biso   1.000  C
  C88      1.0000 0.20800  0.80710  0.40040  Biso   1.000  C
  H61      1.0000 0.18590  0.88630  0.41010  Biso   1.000  H
  C89      1.0000 0.10890  0.68370  0.44860  Biso   1.000  C
  C90      1.0000 0.28250  0.10030  0.21260  Biso   1.000  C
  H62      1.0000 0.25950  0.02550  0.22610  Biso   1.000  H
  C91      1.0000 0.34380  0.27620  0.21130  Biso   1.000  C
  H63      1.0000 0.37270  0.35200  0.22210  Biso   1.000  H
  C92      1.0000 0.33070  0.30380  0.10160  Biso   1.000  C
  H64      1.0000 0.28130  0.31660  0.07680  Biso   1.000  H
  H65      1.0000 0.35430  0.39020  0.10970  Biso   1.000  H
  C93      1.0000 0.38250  0.21830  0.06910  Biso   1.000  C
  C94      1.0000 0.45970  0.21000  0.08640  Biso   1.000  C
  H66      1.0000 0.48260  0.26360  0.11720  Biso   1.000  H
  C95      1.0000 0.50490  0.12580  0.06020  Biso   1.000  C
  H67      1.0000 0.55750  0.12260  0.07410  Biso   1.000  H
  C96      1.0000 0.47570  0.04590  0.01410  Biso   1.000  C
  C97      1.0000 0.39750  0.05600  0.99690  Biso   1.000  C
  H68      1.0000 0.37460  0.00340  0.96580  Biso   1.000  H
  C98      1.0000 0.35130  0.14070  0.02340  Biso   1.000  C
  H69      1.0000 0.29860  0.14450  0.00990  Biso   1.000  H
  C99      1.0000 0.48240  0.09560  0.42540  Biso   1.000  C
  H70      1.0000 0.45420  0.02550  0.43770  Biso   1.000  H
  C100     1.0000 0.51080  0.26560  0.38170  Biso   1.000  C
  H71      1.0000 0.50900  0.34020  0.35770  Biso   1.000  H
  C101     1.0000 0.65020  0.28050  0.42640  Biso   1.000  C
  H72      1.0000 0.64900  0.37030  0.41100  Biso   1.000  H
  H73      1.0000 0.66850  0.28470  0.46840  Biso   1.000  H
  C102     1.0000 0.76530  0.13260  0.43030  Biso   1.000  C
  H74      1.0000 0.77060  0.13670  0.47120  Biso   1.000  H
  C103     1.0000 0.81700  0.06040  0.40450  Biso   1.000  C
  H75      1.0000 0.85750  0.01810  0.42820  Biso   1.000  H
  C104     1.0000 0.81050  0.04880  0.34330  Biso   1.000  C
  C105     1.0000 0.74930  0.11250  0.31130  Biso   1.000  C
  H76      1.0000 0.74230  0.10640  0.27030  Biso   1.000  H
  C106     1.0000 0.69790  0.18510  0.33760  Biso   1.000  C
  H77      1.0000 0.65660  0.22590  0.31410  Biso   1.000  H
  C107     1.0000 0.70570  0.19900  0.39720  Biso   1.000  C
  C108     1.0000 0.86630  0.97060  0.31510  Biso   1.000  C
  C109     1.0000 0.94280  0.94400  0.34610  Biso   1.000  C
  H78      1.0000 0.95640  0.96920  0.38530  Biso   1.000  H
  C110     1.0000 0.99580  0.87900  0.31650  Biso   1.000  C
  H79      1.0000 0.04550  0.86190  0.33570  Biso   1.000  H
  C111     1.0000 0.97410  0.83790  0.25650  Biso   1.000  C
  C112     1.0000 0.90280  0.86000  0.23220  Biso   1.000  C
  H80      1.0000 0.88640  0.83110  0.19380  Biso   1.000  H
  C113     1.0000 0.85070  0.92600  0.26230  Biso   1.000  C
  H81      1.0000 0.80080  0.93850  0.24260  Biso   1.000  H
  C114     1.0000 0.03250  0.76410  0.22590  Biso   1.000  C
  C115     1.0000 0.01830  0.83770  0.11900  Biso   1.000  C
  H82      1.0000 0.98150  0.77570  0.10340  Biso   1.000  H
  C116     1.0000 0.09610  0.99320  0.12930  Biso   1.000  C
  H83      1.0000 0.12630  0.06450  0.12070  Biso   1.000  H
  C117     1.0000 0.90400  0.87100  0.33670  Biso   1.000  C
  C118     1.0000 0.96060  0.80700  0.30970  Biso   1.000  C
  C119     1.0000 0.92040  0.93600  0.22320  Biso   1.000  C
  C120     1.0000 0.86770  0.99900  0.25010  Biso   1.000  C
  H84      1.0000 0.89430  0.83810  0.37260  Biso   1.000  H
  H85      1.0000 0.98960  0.74000  0.33030  Biso   1.000  H
  H86      1.0000 0.92340  0.95320  0.18370  Biso   1.000  H
  H87      1.0000 0.83290  0.05850  0.22950  Biso   1.000  H
  Co4      1.0000 0.65934  0.68983  0.16017  Biso   1.000  Co
  N28      1.0000 0.67720  0.68950  0.25090  Biso   1.000  N
  N29      1.0000 0.72120  0.62850  0.34340  Biso   1.000  N
  N30      1.0000 0.68120  0.74180  0.34330  Biso   1.000  N
  N31      1.0000 0.54870  0.68570  0.11520  Biso   1.000  N
  N32      1.0000 0.44550  0.61510  0.05440  Biso   1.000  N
  N33      1.0000 0.42830  0.72590  0.08330  Biso   1.000  N
  N34      1.0000 0.94970  0.34210  0.32470  Biso   1.000  N
  N35      1.0000 0.90030  0.44350  0.31690  Biso   1.000  N
  N36      1.0000 0.95470  0.43190  0.41210  Biso   1.000  N
  O19      1.0000 0.63840  0.43950  0.17050  Biso   1.000  O
  O20      1.0000 0.72490  0.54540  0.13076  Biso   1.000  O
  O21      1.0000 0.63580  0.94210  0.17276  Biso   1.000  O
  O22      1.0000 0.72249  0.83570  0.13094  Biso   1.000  O
  O23      1.0000 0.90770  0.06980  0.03460  Biso   1.000  O
  O24      1.0000 0.92610  0.28780  0.04431  Biso   1.000  O
  C121     1.0000 0.69530  0.43800  0.14490  Biso   1.000  C
  C122     1.0000 0.72940  0.30970  0.12950  Biso   1.000  C
  C123     1.0000 0.69720  0.19050  0.14510  Biso   1.000  C
  H88      1.0000 0.65530  0.19170  0.16560  Biso   1.000  H
  C124     1.0000 0.72750  0.07110  0.13012  Biso   1.000  C
  C125     1.0000 0.69310  0.94340  0.14640  Biso   1.000  C
  C126     1.0000 0.78950  0.06990  0.09920  Biso   1.000  C
  H89      1.0000 0.80940  0.98940  0.08860  Biso   1.000  H
  C127     1.0000 0.82220  0.18780  0.08390  Biso   1.000  C
  C128     1.0000 0.79200  0.30710  0.09960  Biso   1.000  C
  H90      1.0000 0.81410  0.38630  0.08990  Biso   1.000  H
  C129     1.0000 0.89110  0.18370  0.05140  Biso   1.000  C
  C130     1.0000 0.71750  0.60030  0.28740  Biso   1.000  C
  H91      1.0000 0.74050  0.52550  0.27390  Biso   1.000  H
  C131     1.0000 0.65620  0.77620  0.28870  Biso   1.000  C
  H92      1.0000 0.62730  0.85200  0.27790  Biso   1.000  H
  C132     1.0000 0.66930  0.80380  0.39840  Biso   1.000  C
  H93      1.0000 0.71870  0.81660  0.42320  Biso   1.000  H
  H94      1.0000 0.64570  0.89020  0.39030  Biso   1.000  H
  C133     1.0000 0.61750  0.71830  0.43090  Biso   1.000  C
  C134     1.0000 0.54030  0.71000  0.41360  Biso   1.000  C
  H95      1.0000 0.51740  0.76360  0.38280  Biso   1.000  H
  C135     1.0000 0.49510  0.62580  0.43980  Biso   1.000  C
  H96      1.0000 0.44250  0.62260  0.42590  Biso   1.000  H
  C136     1.0000 0.52430  0.54590  0.48590  Biso   1.000  C
  C137     1.0000 0.60250  0.55600  0.50310  Biso   1.000  C
  H97      1.0000 0.62540  0.50340  0.53420  Biso   1.000  H
  C138     1.0000 0.64870  0.64070  0.47660  Biso   1.000  C
  H98      1.0000 0.70140  0.64450  0.49010  Biso   1.000  H
  C139     1.0000 0.51760  0.59560  0.07460  Biso   1.000  C
  H99      1.0000 0.54580  0.52550  0.06230  Biso   1.000  H
  C140     1.0000 0.48920  0.76560  0.11830  Biso   1.000  C
  H100     1.0000 0.49100  0.84020  0.14230  Biso   1.000  H
  C141     1.0000 0.34980  0.78050  0.07360  Biso   1.000  C
  H101     1.0000 0.35100  0.87030  0.08900  Biso   1.000  H
  H102     1.0000 0.33150  0.78470  0.03160  Biso   1.000  H
  C142     1.0000 0.23470  0.63260  0.06970  Biso   1.000  C
  H103     1.0000 0.22940  0.63670  0.02880  Biso   1.000  H
  C143     1.0000 0.18300  0.56040  0.09550  Biso   1.000  C
  H104     1.0000 0.14250  0.51810  0.07180  Biso   1.000  H
  C144     1.0000 0.18950  0.54880  0.15670  Biso   1.000  C
  C145     1.0000 0.25070  0.61250  0.18870  Biso   1.000  C
  H105     1.0000 0.25770  0.60640  0.22970  Biso   1.000  H
  C146     1.0000 0.30210  0.68510  0.16240  Biso   1.000  C
  H106     1.0000 0.34340  0.72590  0.18590  Biso   1.000  H
  C147     1.0000 0.29430  0.69900  0.10280  Biso   1.000  C
  C148     1.0000 0.13370  0.47060  0.18490  Biso   1.000  C
  C149     1.0000 0.05720  0.44400  0.15390  Biso   1.000  C
  H107     1.0000 0.04360  0.46920  0.11470  Biso   1.000  H
  C150     1.0000 0.00420  0.37900  0.18350  Biso   1.000  C
  H108     1.0000 0.95450  0.36190  0.16430  Biso   1.000  H
  C151     1.0000 0.02590  0.33790  0.24350  Biso   1.000  C
  C152     1.0000 0.09720  0.36000  0.26780  Biso   1.000  C
  H109     1.0000 0.11360  0.33110  0.30620  Biso   1.000  H
  C153     1.0000 0.14930  0.42600  0.23770  Biso   1.000  C
  H110     1.0000 0.19920  0.43850  0.25740  Biso   1.000  H
  C154     1.0000 0.96750  0.26410  0.27410  Biso   1.000  C
  C155     1.0000 0.98170  0.33770  0.38100  Biso   1.000  C
  H111     1.0000 0.01850  0.27570  0.39660  Biso   1.000  H
  C156     1.0000 0.90390  0.49320  0.37070  Biso   1.000  C
  H112     1.0000 0.87370  0.56450  0.37930  Biso   1.000  H
  C157     1.0000 0.09600  0.37100  0.16330  Biso   1.000  C
  C158     1.0000 0.03940  0.30700  0.19030  Biso   1.000  C
  C159     1.0000 0.07960  0.43600  0.27680  Biso   1.000  C
  C160     1.0000 0.13230  0.49900  0.24990  Biso   1.000  C
  H113     1.0000 0.10570  0.33810  0.12740  Biso   1.000  H
  H114     1.0000 0.01040  0.24000  0.16970  Biso   1.000  H
  H115     1.0000 0.07660  0.45320  0.31630  Biso   1.000  H
  H116     1.0000 0.16710  0.55850  0.27050  Biso   1.000  H
  Co5      1.0000 0.00000  0.50000  0.50000  Biso   1.000  Co
  Co6      1.0000 0.00000  0.00000  0.00000  Biso   1.000  Co
