data_image0
_cell_length_a       21.209
_cell_length_b       22.825
_cell_length_c       18.1999
_cell_angle_alpha    90
_cell_angle_beta     90
_cell_angle_gamma    90

_symmetry_space_group_name_H-M    "P 1"
_symmetry_int_tables_number       1

loop_
  _symmetry_equiv_pos_as_xyz
  'x, y, z'

loop_
  _atom_site_label
  _atom_site_occupancy
  _atom_site_fract_x
  _atom_site_fract_y
  _atom_site_fract_z
  _atom_site_thermal_displace_type
  _atom_site_B_iso_or_equiv
  _atom_site_type_symbol
  C1       1.0000 0.89190  0.54550  0.65230  Biso   1.000  C
  C2       1.0000 0.90160  0.51610  0.72490  Biso   1.000  C
  C3       1.0000 0.88350  0.54510  0.79100  Biso   1.000  C
  H1       1.0000 0.86390  0.58150  0.78950  Biso   1.000  H
  C4       1.0000 0.89580  0.51786  0.85760  Biso   1.000  C
  H2       1.0000 0.88400  0.53720  0.90040  Biso   1.000  H
  C5       1.0000 0.92465  0.46326  0.86430  Biso   1.000  C
  C6       1.0000 0.93960  0.43330  0.79440  Biso   1.000  C
  H3       1.0000 0.95700  0.39590  0.79510  Biso   1.000  H
  C7       1.0000 0.92760  0.46038  0.72890  Biso   1.000  C
  H4       1.0000 0.93730  0.44080  0.68550  Biso   1.000  H
  C8       1.0000 0.94680  0.43800  0.93210  Biso   1.000  C
  C9       1.0000 0.99540  0.39820  0.93310  Biso   1.000  C
  H5       1.0000 0.01180  0.38370  0.88930  Biso   1.000  H
  C10      1.0000 0.48820  0.79850  0.16310  Biso   1.000  C
  C11      1.0000 0.52380  0.78360  0.22910  Biso   1.000  C
  C12      1.0000 0.58660  0.79190  0.23460  Biso   1.000  C
  H6       1.0000 0.60910  0.80550  0.19420  Biso   1.000  H
  C13      1.0000 0.61860  0.77998  0.30130  Biso   1.000  C
  H7       1.0000 0.66190  0.78540  0.30440  Biso   1.000  H
  C14      1.0000 0.58560  0.76040  0.36160  Biso   1.000  C
  C15      1.0000 0.51860  0.75230  0.35680  Biso   1.000  C
  H8       1.0000 0.49480  0.74060  0.39720  Biso   1.000  H
  C16      1.0000 0.49060  0.76290  0.28760  Biso   1.000  C
  H9       1.0000 0.44780  0.75540  0.28180  Biso   1.000  H
  C17      1.0000 0.61680  0.75060  0.43280  Biso   1.000  C
  C18      1.0000 0.68160  0.73660  0.43220  Biso   1.000  C
  H10      1.0000 0.70310  0.73160  0.38810  Biso   1.000  H
  C19      1.0000 0.28090  0.69830  0.34290  Biso   1.000  C
  C20      1.0000 0.27690  0.66660  0.27110  Biso   1.000  C
  C21      1.0000 0.30680  0.68790  0.20910  Biso   1.000  C
  H11      1.0000 0.33210  0.72110  0.21250  Biso   1.000  H
  C22      1.0000 0.29950  0.65990  0.14170  Biso   1.000  C
  H12      1.0000 0.31930  0.67470  0.10010  Biso   1.000  H
  C23      1.0000 0.26240  0.60980  0.13680  Biso   1.000  C
  C24      1.0000 0.23190  0.58810  0.19950  Biso   1.000  C
  H13      1.0000 0.20690  0.55470  0.19650  Biso   1.000  H
  C25      1.0000 0.23930  0.61700  0.26630  Biso   1.000  C
  H14      1.0000 0.21900  0.60290  0.30800  Biso   1.000  H
  C26      1.0000 0.26040  0.57640  0.06730  Biso   1.000  C
  C27      1.0000 0.25240  0.51420  0.06320  Biso   1.000  C
  H15      1.0000 0.24930  0.49320  0.10680  Biso   1.000  H
  N1       1.0000 0.12480  0.59400  0.53980  Biso   1.000  N
  O1       1.0000 0.86726  0.59601  0.65440  Biso   1.000  O
  O2       1.0000 0.91558  0.52121  0.59923  Biso   1.000  O
  O3       1.0000 0.10247  0.32639  0.94051  Biso   1.000  O
  O4       1.0000 0.43091  0.78861  0.15634  Biso   1.000  O
  O5       1.0000 0.52091  0.81396  0.10949  Biso   1.000  O
  O6       1.0000 0.80646  0.70206  0.56185  Biso   1.000  O
  O7       1.0000 0.24722  0.68660  0.39252  Biso   1.000  O
  O8       1.0000 0.32281  0.73773  0.34783  Biso   1.000  O
  O9       1.0000 0.23237  0.39472  0.94057  Biso   1.000  O
  O10      1.0000 0.07240  0.59940  0.49100  Biso   1.000  O
  Zn1      1.0000 0.88305  0.66359  0.58911  Biso   1.000  Zn
  Zn2      1.0000 0.19509  0.31198  0.91957  Biso   1.000  Zn
  C28      1.0000 0.10810  0.45450  0.65230  Biso   1.000  C
  C29      1.0000 0.09840  0.48390  0.72490  Biso   1.000  C
  C30      1.0000 0.11650  0.45490  0.79100  Biso   1.000  C
  H16      1.0000 0.13610  0.41850  0.78950  Biso   1.000  H
  C31      1.0000 0.10420  0.48214  0.85760  Biso   1.000  C
  H17      1.0000 0.11600  0.46280  0.90040  Biso   1.000  H
  C32      1.0000 0.07535  0.53674  0.86430  Biso   1.000  C
  C33      1.0000 0.06040  0.56670  0.79440  Biso   1.000  C
  H18      1.0000 0.04300  0.60410  0.79510  Biso   1.000  H
  C34      1.0000 0.07240  0.53962  0.72890  Biso   1.000  C
  H19      1.0000 0.06270  0.55920  0.68550  Biso   1.000  H
  C35      1.0000 0.05320  0.56200  0.93210  Biso   1.000  C
  C36      1.0000 0.00460  0.60180  0.93310  Biso   1.000  C
  H20      1.0000 0.98820  0.61630  0.88930  Biso   1.000  H
  C37      1.0000 0.51180  0.20150  0.16310  Biso   1.000  C
  C38      1.0000 0.47620  0.21640  0.22910  Biso   1.000  C
  C39      1.0000 0.41340  0.20810  0.23460  Biso   1.000  C
  H21      1.0000 0.39090  0.19450  0.19420  Biso   1.000  H
  C40      1.0000 0.38140  0.22002  0.30130  Biso   1.000  C
  H22      1.0000 0.33810  0.21460  0.30440  Biso   1.000  H
  C41      1.0000 0.41440  0.23960  0.36160  Biso   1.000  C
  C42      1.0000 0.48140  0.24770  0.35680  Biso   1.000  C
  H23      1.0000 0.50520  0.25940  0.39720  Biso   1.000  H
  C43      1.0000 0.50940  0.23710  0.28760  Biso   1.000  C
  H24      1.0000 0.55220  0.24460  0.28180  Biso   1.000  H
  C44      1.0000 0.38320  0.24940  0.43280  Biso   1.000  C
  C45      1.0000 0.31840  0.26340  0.43220  Biso   1.000  C
  H25      1.0000 0.29690  0.26840  0.38810  Biso   1.000  H
  C46      1.0000 0.71910  0.30170  0.34290  Biso   1.000  C
  C47      1.0000 0.72310  0.33340  0.27110  Biso   1.000  C
  C48      1.0000 0.69320  0.31210  0.20910  Biso   1.000  C
  H26      1.0000 0.66790  0.27890  0.21250  Biso   1.000  H
  C49      1.0000 0.70050  0.34010  0.14170  Biso   1.000  C
  H27      1.0000 0.68070  0.32530  0.10010  Biso   1.000  H
  C50      1.0000 0.73760  0.39020  0.13680  Biso   1.000  C
  C51      1.0000 0.76810  0.41190  0.19950  Biso   1.000  C
  H28      1.0000 0.79310  0.44530  0.19650  Biso   1.000  H
  C52      1.0000 0.76070  0.38300  0.26630  Biso   1.000  C
  H29      1.0000 0.78100  0.39710  0.30800  Biso   1.000  H
  C53      1.0000 0.73960  0.42360  0.06730  Biso   1.000  C
  C54      1.0000 0.74760  0.48580  0.06320  Biso   1.000  C
  H30      1.0000 0.75070  0.50680  0.10680  Biso   1.000  H
  N2       1.0000 0.87520  0.40600  0.53980  Biso   1.000  N
  O11      1.0000 0.13274  0.40399  0.65440  Biso   1.000  O
  O12      1.0000 0.08442  0.47879  0.59923  Biso   1.000  O
  O13      1.0000 0.89753  0.67361  0.94051  Biso   1.000  O
  O14      1.0000 0.56909  0.21139  0.15634  Biso   1.000  O
  O15      1.0000 0.47909  0.18604  0.10949  Biso   1.000  O
  O16      1.0000 0.19354  0.29794  0.56185  Biso   1.000  O
  O17      1.0000 0.75278  0.31340  0.39252  Biso   1.000  O
  O18      1.0000 0.67719  0.26227  0.34783  Biso   1.000  O
  O19      1.0000 0.76763  0.60528  0.94057  Biso   1.000  O
  O20      1.0000 0.92760  0.40060  0.49100  Biso   1.000  O
  Zn3      1.0000 0.11695  0.33641  0.58911  Biso   1.000  Zn
  Zn4      1.0000 0.80491  0.68802  0.91957  Biso   1.000  Zn
  C55      1.0000 0.60810  0.04550  0.84770  Biso   1.000  C
  C56      1.0000 0.59840  0.01610  0.77510  Biso   1.000  C
  C57      1.0000 0.61650  0.04510  0.70900  Biso   1.000  C
  H31      1.0000 0.63610  0.08150  0.71050  Biso   1.000  H
  C58      1.0000 0.60420  0.01786  0.64240  Biso   1.000  C
  H32      1.0000 0.61600  0.03720  0.59960  Biso   1.000  H
  C59      1.0000 0.57535  0.96326  0.63570  Biso   1.000  C
  C60      1.0000 0.56040  0.93330  0.70560  Biso   1.000  C
  H33      1.0000 0.54300  0.89590  0.70490  Biso   1.000  H
  C61      1.0000 0.57240  0.96038  0.77110  Biso   1.000  C
  H34      1.0000 0.56270  0.94080  0.81450  Biso   1.000  H
  C62      1.0000 0.55320  0.93800  0.56790  Biso   1.000  C
  C63      1.0000 0.50460  0.89820  0.56690  Biso   1.000  C
  H35      1.0000 0.48820  0.88370  0.61070  Biso   1.000  H
  C64      1.0000 0.01180  0.29850  0.33690  Biso   1.000  C
  C65      1.0000 0.97620  0.28360  0.27090  Biso   1.000  C
  C66      1.0000 0.91340  0.29190  0.26540  Biso   1.000  C
  H36      1.0000 0.89090  0.30550  0.30580  Biso   1.000  H
  C67      1.0000 0.88140  0.27998  0.19870  Biso   1.000  C
  H37      1.0000 0.83810  0.28540  0.19560  Biso   1.000  H
  C68      1.0000 0.91440  0.26040  0.13840  Biso   1.000  C
  C69      1.0000 0.98140  0.25230  0.14320  Biso   1.000  C
  H38      1.0000 0.00520  0.24060  0.10280  Biso   1.000  H
  C70      1.0000 0.00940  0.26290  0.21240  Biso   1.000  C
  H39      1.0000 0.05220  0.25540  0.21820  Biso   1.000  H
  C71      1.0000 0.88320  0.25060  0.06720  Biso   1.000  C
  C72      1.0000 0.81840  0.23660  0.06780  Biso   1.000  C
  H40      1.0000 0.79690  0.23160  0.11190  Biso   1.000  H
  C73      1.0000 0.21910  0.19830  0.15710  Biso   1.000  C
  C74      1.0000 0.22310  0.16660  0.22890  Biso   1.000  C
  C75      1.0000 0.19320  0.18790  0.29090  Biso   1.000  C
  H41      1.0000 0.16790  0.22110  0.28750  Biso   1.000  H
  C76      1.0000 0.20050  0.15990  0.35830  Biso   1.000  C
  H42      1.0000 0.18070  0.17470  0.39990  Biso   1.000  H
  C77      1.0000 0.23760  0.10980  0.36320  Biso   1.000  C
  C78      1.0000 0.26810  0.08810  0.30050  Biso   1.000  C
  H43      1.0000 0.29310  0.05470  0.30350  Biso   1.000  H
  C79      1.0000 0.26070  0.11700  0.23370  Biso   1.000  C
  H44      1.0000 0.28100  0.10290  0.19200  Biso   1.000  H
  C80      1.0000 0.23960  0.07640  0.43270  Biso   1.000  C
  C81      1.0000 0.24760  0.01420  0.43680  Biso   1.000  C
  H45      1.0000 0.25070  0.99320  0.39320  Biso   1.000  H
  N3       1.0000 0.37520  0.09400  0.96020  Biso   1.000  N
  O21      1.0000 0.63274  0.09601  0.84560  Biso   1.000  O
  O22      1.0000 0.58442  0.02121  0.90077  Biso   1.000  O
  O23      1.0000 0.39753  0.82639  0.55949  Biso   1.000  O
  O24      1.0000 0.06909  0.28861  0.34366  Biso   1.000  O
  O25      1.0000 0.97909  0.31396  0.39051  Biso   1.000  O
  O26      1.0000 0.69354  0.20206  0.93815  Biso   1.000  O
  O27      1.0000 0.25278  0.18660  0.10748  Biso   1.000  O
  O28      1.0000 0.17719  0.23773  0.15217  Biso   1.000  O
  O29      1.0000 0.26763  0.89472  0.55943  Biso   1.000  O
  O30      1.0000 0.42760  0.09940  0.00900  Biso   1.000  O
  Zn5      1.0000 0.61695  0.16359  0.91089  Biso   1.000  Zn
  Zn6      1.0000 0.30491  0.81198  0.58043  Biso   1.000  Zn
  C82      1.0000 0.39190  0.95450  0.84770  Biso   1.000  C
  C83      1.0000 0.40160  0.98390  0.77510  Biso   1.000  C
  C84      1.0000 0.38350  0.95490  0.70900  Biso   1.000  C
  H46      1.0000 0.36390  0.91850  0.71050  Biso   1.000  H
  C85      1.0000 0.39580  0.98214  0.64240  Biso   1.000  C
  H47      1.0000 0.38400  0.96280  0.59960  Biso   1.000  H
  C86      1.0000 0.42465  0.03674  0.63570  Biso   1.000  C
  C87      1.0000 0.43960  0.06670  0.70560  Biso   1.000  C
  H48      1.0000 0.45700  0.10410  0.70490  Biso   1.000  H
  C88      1.0000 0.42760  0.03962  0.77110  Biso   1.000  C
  H49      1.0000 0.43730  0.05920  0.81450  Biso   1.000  H
  C89      1.0000 0.44680  0.06200  0.56790  Biso   1.000  C
  C90      1.0000 0.49540  0.10180  0.56690  Biso   1.000  C
  H50      1.0000 0.51180  0.11630  0.61070  Biso   1.000  H
  C91      1.0000 0.98820  0.70150  0.33690  Biso   1.000  C
  C92      1.0000 0.02380  0.71640  0.27090  Biso   1.000  C
  C93      1.0000 0.08660  0.70810  0.26540  Biso   1.000  C
  H51      1.0000 0.10910  0.69450  0.30580  Biso   1.000  H
  C94      1.0000 0.11860  0.72002  0.19870  Biso   1.000  C
  H52      1.0000 0.16190  0.71460  0.19560  Biso   1.000  H
  C95      1.0000 0.08560  0.73960  0.13840  Biso   1.000  C
  C96      1.0000 0.01860  0.74770  0.14320  Biso   1.000  C
  H53      1.0000 0.99480  0.75940  0.10280  Biso   1.000  H
  C97      1.0000 0.99060  0.73710  0.21240  Biso   1.000  C
  H54      1.0000 0.94780  0.74460  0.21820  Biso   1.000  H
  C98      1.0000 0.11680  0.74940  0.06720  Biso   1.000  C
  C99      1.0000 0.18160  0.76340  0.06780  Biso   1.000  C
  H55      1.0000 0.20310  0.76840  0.11190  Biso   1.000  H
  C100     1.0000 0.78090  0.80170  0.15710  Biso   1.000  C
  C101     1.0000 0.77690  0.83340  0.22890  Biso   1.000  C
  C102     1.0000 0.80680  0.81210  0.29090  Biso   1.000  C
  H56      1.0000 0.83210  0.77890  0.28750  Biso   1.000  H
  C103     1.0000 0.79950  0.84010  0.35830  Biso   1.000  C
  H57      1.0000 0.81930  0.82530  0.39990  Biso   1.000  H
  C104     1.0000 0.76240  0.89020  0.36320  Biso   1.000  C
  C105     1.0000 0.73190  0.91190  0.30050  Biso   1.000  C
  H58      1.0000 0.70690  0.94530  0.30350  Biso   1.000  H
  C106     1.0000 0.73930  0.88300  0.23370  Biso   1.000  C
  H59      1.0000 0.71900  0.89710  0.19200  Biso   1.000  H
  C107     1.0000 0.76040  0.92360  0.43270  Biso   1.000  C
  C108     1.0000 0.75240  0.98580  0.43680  Biso   1.000  C
  H60      1.0000 0.74930  0.00680  0.39320  Biso   1.000  H
  N4       1.0000 0.62480  0.90600  0.96020  Biso   1.000  N
  O31      1.0000 0.36726  0.90399  0.84560  Biso   1.000  O
  O32      1.0000 0.41558  0.97879  0.90077  Biso   1.000  O
  O33      1.0000 0.60247  0.17361  0.55949  Biso   1.000  O
  O34      1.0000 0.93091  0.71139  0.34366  Biso   1.000  O
  O35      1.0000 0.02091  0.68604  0.39051  Biso   1.000  O
  O36      1.0000 0.30646  0.79794  0.93815  Biso   1.000  O
  O37      1.0000 0.74722  0.81340  0.10748  Biso   1.000  O
  O38      1.0000 0.82281  0.76227  0.15217  Biso   1.000  O
  O39      1.0000 0.73237  0.10528  0.55943  Biso   1.000  O
  O40      1.0000 0.57240  0.90060  0.00900  Biso   1.000  O
  Zn7      1.0000 0.38305  0.83641  0.91089  Biso   1.000  Zn
  Zn8      1.0000 0.69509  0.18802  0.58043  Biso   1.000  Zn
  C109     1.0000 0.10810  0.45450  0.34770  Biso   1.000  C
  C110     1.0000 0.09840  0.48390  0.27510  Biso   1.000  C
  C111     1.0000 0.11650  0.45490  0.20900  Biso   1.000  C
  H61      1.0000 0.13610  0.41850  0.21050  Biso   1.000  H
  C112     1.0000 0.10420  0.48214  0.14240  Biso   1.000  C
  H62      1.0000 0.11600  0.46280  0.09960  Biso   1.000  H
  C113     1.0000 0.07535  0.53674  0.13570  Biso   1.000  C
  C114     1.0000 0.06040  0.56670  0.20560  Biso   1.000  C
  H63      1.0000 0.04300  0.60410  0.20490  Biso   1.000  H
  C115     1.0000 0.07240  0.53962  0.27110  Biso   1.000  C
  H64      1.0000 0.06270  0.55920  0.31450  Biso   1.000  H
  C116     1.0000 0.05320  0.56200  0.06790  Biso   1.000  C
  C117     1.0000 0.00460  0.60180  0.06690  Biso   1.000  C
  H65      1.0000 0.98820  0.61630  0.11070  Biso   1.000  H
  C118     1.0000 0.51180  0.20150  0.83690  Biso   1.000  C
  C119     1.0000 0.47620  0.21640  0.77090  Biso   1.000  C
  C120     1.0000 0.41340  0.20810  0.76540  Biso   1.000  C
  H66      1.0000 0.39090  0.19450  0.80580  Biso   1.000  H
  C121     1.0000 0.38140  0.22002  0.69870  Biso   1.000  C
  H67      1.0000 0.33810  0.21460  0.69560  Biso   1.000  H
  C122     1.0000 0.41440  0.23960  0.63840  Biso   1.000  C
  C123     1.0000 0.48140  0.24770  0.64320  Biso   1.000  C
  H68      1.0000 0.50520  0.25940  0.60280  Biso   1.000  H
  C124     1.0000 0.50940  0.23710  0.71240  Biso   1.000  C
  H69      1.0000 0.55220  0.24460  0.71820  Biso   1.000  H
  C125     1.0000 0.38320  0.24940  0.56720  Biso   1.000  C
  C126     1.0000 0.31840  0.26340  0.56780  Biso   1.000  C
  H70      1.0000 0.29690  0.26840  0.61190  Biso   1.000  H
  C127     1.0000 0.71910  0.30170  0.65710  Biso   1.000  C
  C128     1.0000 0.72310  0.33340  0.72890  Biso   1.000  C
  C129     1.0000 0.69320  0.31210  0.79090  Biso   1.000  C
  H71      1.0000 0.66790  0.27890  0.78750  Biso   1.000  H
  C130     1.0000 0.70050  0.34010  0.85830  Biso   1.000  C
  H72      1.0000 0.68070  0.32530  0.89990  Biso   1.000  H
  C131     1.0000 0.73760  0.39020  0.86320  Biso   1.000  C
  C132     1.0000 0.76810  0.41190  0.80050  Biso   1.000  C
  H73      1.0000 0.79310  0.44530  0.80350  Biso   1.000  H
  C133     1.0000 0.76070  0.38300  0.73370  Biso   1.000  C
  H74      1.0000 0.78100  0.39710  0.69200  Biso   1.000  H
  C134     1.0000 0.73960  0.42360  0.93270  Biso   1.000  C
  C135     1.0000 0.74760  0.48580  0.93680  Biso   1.000  C
  H75      1.0000 0.75070  0.50680  0.89320  Biso   1.000  H
  N5       1.0000 0.87520  0.40600  0.46020  Biso   1.000  N
  O41      1.0000 0.13274  0.40399  0.34560  Biso   1.000  O
  O42      1.0000 0.08442  0.47879  0.40077  Biso   1.000  O
  O43      1.0000 0.89753  0.67361  0.05949  Biso   1.000  O
  O44      1.0000 0.56909  0.21139  0.84366  Biso   1.000  O
  O45      1.0000 0.47909  0.18604  0.89051  Biso   1.000  O
  O46      1.0000 0.19354  0.29794  0.43815  Biso   1.000  O
  O47      1.0000 0.75278  0.31340  0.60748  Biso   1.000  O
  O48      1.0000 0.67719  0.26227  0.65217  Biso   1.000  O
  O49      1.0000 0.76763  0.60528  0.05943  Biso   1.000  O
  O50      1.0000 0.92760  0.40060  0.50900  Biso   1.000  O
  Zn9      1.0000 0.11695  0.33641  0.41089  Biso   1.000  Zn
  Zn10     1.0000 0.80491  0.68802  0.08043  Biso   1.000  Zn
  C136     1.0000 0.89190  0.54550  0.34770  Biso   1.000  C
  C137     1.0000 0.90160  0.51610  0.27510  Biso   1.000  C
  C138     1.0000 0.88350  0.54510  0.20900  Biso   1.000  C
  H76      1.0000 0.86390  0.58150  0.21050  Biso   1.000  H
  C139     1.0000 0.89580  0.51786  0.14240  Biso   1.000  C
  H77      1.0000 0.88400  0.53720  0.09960  Biso   1.000  H
  C140     1.0000 0.92465  0.46326  0.13570  Biso   1.000  C
  C141     1.0000 0.93960  0.43330  0.20560  Biso   1.000  C
  H78      1.0000 0.95700  0.39590  0.20490  Biso   1.000  H
  C142     1.0000 0.92760  0.46038  0.27110  Biso   1.000  C
  H79      1.0000 0.93730  0.44080  0.31450  Biso   1.000  H
  C143     1.0000 0.94680  0.43800  0.06790  Biso   1.000  C
  C144     1.0000 0.99540  0.39820  0.06690  Biso   1.000  C
  H80      1.0000 0.01180  0.38370  0.11070  Biso   1.000  H
  C145     1.0000 0.48820  0.79850  0.83690  Biso   1.000  C
  C146     1.0000 0.52380  0.78360  0.77090  Biso   1.000  C
  C147     1.0000 0.58660  0.79190  0.76540  Biso   1.000  C
  H81      1.0000 0.60910  0.80550  0.80580  Biso   1.000  H
  C148     1.0000 0.61860  0.77998  0.69870  Biso   1.000  C
  H82      1.0000 0.66190  0.78540  0.69560  Biso   1.000  H
  C149     1.0000 0.58560  0.76040  0.63840  Biso   1.000  C
  C150     1.0000 0.51860  0.75230  0.64320  Biso   1.000  C
  H83      1.0000 0.49480  0.74060  0.60280  Biso   1.000  H
  C151     1.0000 0.49060  0.76290  0.71240  Biso   1.000  C
  H84      1.0000 0.44780  0.75540  0.71820  Biso   1.000  H
  C152     1.0000 0.61680  0.75060  0.56720  Biso   1.000  C
  C153     1.0000 0.68160  0.73660  0.56780  Biso   1.000  C
  H85      1.0000 0.70310  0.73160  0.61190  Biso   1.000  H
  C154     1.0000 0.28090  0.69830  0.65710  Biso   1.000  C
  C155     1.0000 0.27690  0.66660  0.72890  Biso   1.000  C
  C156     1.0000 0.30680  0.68790  0.79090  Biso   1.000  C
  H86      1.0000 0.33210  0.72110  0.78750  Biso   1.000  H
  C157     1.0000 0.29950  0.65990  0.85830  Biso   1.000  C
  H87      1.0000 0.31930  0.67470  0.89990  Biso   1.000  H
  C158     1.0000 0.26240  0.60980  0.86320  Biso   1.000  C
  C159     1.0000 0.23190  0.58810  0.80050  Biso   1.000  C
  H88      1.0000 0.20690  0.55470  0.80350  Biso   1.000  H
  C160     1.0000 0.23930  0.61700  0.73370  Biso   1.000  C
  H89      1.0000 0.21900  0.60290  0.69200  Biso   1.000  H
  C161     1.0000 0.26040  0.57640  0.93270  Biso   1.000  C
  C162     1.0000 0.25240  0.51420  0.93680  Biso   1.000  C
  H90      1.0000 0.24930  0.49320  0.89320  Biso   1.000  H
  N6       1.0000 0.12480  0.59400  0.46020  Biso   1.000  N
  O51      1.0000 0.86726  0.59601  0.34560  Biso   1.000  O
  O52      1.0000 0.91558  0.52121  0.40077  Biso   1.000  O
  O53      1.0000 0.10247  0.32639  0.05949  Biso   1.000  O
  O54      1.0000 0.43091  0.78861  0.84366  Biso   1.000  O
  O55      1.0000 0.52091  0.81396  0.89051  Biso   1.000  O
  O56      1.0000 0.80646  0.70206  0.43815  Biso   1.000  O
  O57      1.0000 0.24722  0.68660  0.60748  Biso   1.000  O
  O58      1.0000 0.32281  0.73773  0.65217  Biso   1.000  O
  O59      1.0000 0.23237  0.39472  0.05943  Biso   1.000  O
  O60      1.0000 0.07240  0.59940  0.50900  Biso   1.000  O
  Zn11     1.0000 0.88305  0.66359  0.41089  Biso   1.000  Zn
  Zn12     1.0000 0.19509  0.31198  0.08043  Biso   1.000  Zn
  C163     1.0000 0.39190  0.95450  0.15230  Biso   1.000  C
  C164     1.0000 0.40160  0.98390  0.22490  Biso   1.000  C
  C165     1.0000 0.38350  0.95490  0.29100  Biso   1.000  C
  H91      1.0000 0.36390  0.91850  0.28950  Biso   1.000  H
  C166     1.0000 0.39580  0.98214  0.35760  Biso   1.000  C
  H92      1.0000 0.38400  0.96280  0.40040  Biso   1.000  H
  C167     1.0000 0.42465  0.03674  0.36430  Biso   1.000  C
  C168     1.0000 0.43960  0.06670  0.29440  Biso   1.000  C
  H93      1.0000 0.45700  0.10410  0.29510  Biso   1.000  H
  C169     1.0000 0.42760  0.03962  0.22890  Biso   1.000  C
  H94      1.0000 0.43730  0.05920  0.18550  Biso   1.000  H
  C170     1.0000 0.44680  0.06200  0.43210  Biso   1.000  C
  C171     1.0000 0.49540  0.10180  0.43310  Biso   1.000  C
  H95      1.0000 0.51180  0.11630  0.38930  Biso   1.000  H
  C172     1.0000 0.98820  0.70150  0.66310  Biso   1.000  C
  C173     1.0000 0.02380  0.71640  0.72910  Biso   1.000  C
  C174     1.0000 0.08660  0.70810  0.73460  Biso   1.000  C
  H96      1.0000 0.10910  0.69450  0.69420  Biso   1.000  H
  C175     1.0000 0.11860  0.72002  0.80130  Biso   1.000  C
  H97      1.0000 0.16190  0.71460  0.80440  Biso   1.000  H
  C176     1.0000 0.08560  0.73960  0.86160  Biso   1.000  C
  C177     1.0000 0.01860  0.74770  0.85680  Biso   1.000  C
  H98      1.0000 0.99480  0.75940  0.89720  Biso   1.000  H
  C178     1.0000 0.99060  0.73710  0.78760  Biso   1.000  C
  H99      1.0000 0.94780  0.74460  0.78180  Biso   1.000  H
  C179     1.0000 0.11680  0.74940  0.93280  Biso   1.000  C
  C180     1.0000 0.18160  0.76340  0.93220  Biso   1.000  C
  H100     1.0000 0.20310  0.76840  0.88810  Biso   1.000  H
  C181     1.0000 0.78090  0.80170  0.84290  Biso   1.000  C
  C182     1.0000 0.77690  0.83340  0.77110  Biso   1.000  C
  C183     1.0000 0.80680  0.81210  0.70910  Biso   1.000  C
  H101     1.0000 0.83210  0.77890  0.71250  Biso   1.000  H
  C184     1.0000 0.79950  0.84010  0.64170  Biso   1.000  C
  H102     1.0000 0.81930  0.82530  0.60010  Biso   1.000  H
  C185     1.0000 0.76240  0.89020  0.63680  Biso   1.000  C
  C186     1.0000 0.73190  0.91190  0.69950  Biso   1.000  C
  H103     1.0000 0.70690  0.94530  0.69650  Biso   1.000  H
  C187     1.0000 0.73930  0.88300  0.76630  Biso   1.000  C
  H104     1.0000 0.71900  0.89710  0.80800  Biso   1.000  H
  C188     1.0000 0.76040  0.92360  0.56730  Biso   1.000  C
  C189     1.0000 0.75240  0.98580  0.56320  Biso   1.000  C
  H105     1.0000 0.74930  0.00680  0.60680  Biso   1.000  H
  N7       1.0000 0.62480  0.90600  0.03980  Biso   1.000  N
  O61      1.0000 0.36726  0.90399  0.15440  Biso   1.000  O
  O62      1.0000 0.41558  0.97879  0.09923  Biso   1.000  O
  O63      1.0000 0.60247  0.17361  0.44051  Biso   1.000  O
  O64      1.0000 0.93091  0.71139  0.65634  Biso   1.000  O
  O65      1.0000 0.02091  0.68604  0.60949  Biso   1.000  O
  O66      1.0000 0.30646  0.79794  0.06185  Biso   1.000  O
  O67      1.0000 0.74722  0.81340  0.89252  Biso   1.000  O
  O68      1.0000 0.82281  0.76227  0.84783  Biso   1.000  O
  O69      1.0000 0.73237  0.10528  0.44057  Biso   1.000  O
  O70      1.0000 0.57240  0.90060  0.99100  Biso   1.000  O
  Zn13     1.0000 0.38305  0.83641  0.08911  Biso   1.000  Zn
  Zn14     1.0000 0.69509  0.18802  0.41957  Biso   1.000  Zn
  C190     1.0000 0.60810  0.04550  0.15230  Biso   1.000  C
  C191     1.0000 0.59840  0.01610  0.22490  Biso   1.000  C
  C192     1.0000 0.61650  0.04510  0.29100  Biso   1.000  C
  H106     1.0000 0.63610  0.08150  0.28950  Biso   1.000  H
  C193     1.0000 0.60420  0.01786  0.35760  Biso   1.000  C
  H107     1.0000 0.61600  0.03720  0.40040  Biso   1.000  H
  C194     1.0000 0.57535  0.96326  0.36430  Biso   1.000  C
  C195     1.0000 0.56040  0.93330  0.29440  Biso   1.000  C
  H108     1.0000 0.54300  0.89590  0.29510  Biso   1.000  H
  C196     1.0000 0.57240  0.96038  0.22890  Biso   1.000  C
  H109     1.0000 0.56270  0.94080  0.18550  Biso   1.000  H
  C197     1.0000 0.55320  0.93800  0.43210  Biso   1.000  C
  C198     1.0000 0.50460  0.89820  0.43310  Biso   1.000  C
  H110     1.0000 0.48820  0.88370  0.38930  Biso   1.000  H
  C199     1.0000 0.01180  0.29850  0.66310  Biso   1.000  C
  C200     1.0000 0.97620  0.28360  0.72910  Biso   1.000  C
  C201     1.0000 0.91340  0.29190  0.73460  Biso   1.000  C
  H111     1.0000 0.89090  0.30550  0.69420  Biso   1.000  H
  C202     1.0000 0.88140  0.27998  0.80130  Biso   1.000  C
  H112     1.0000 0.83810  0.28540  0.80440  Biso   1.000  H
  C203     1.0000 0.91440  0.26040  0.86160  Biso   1.000  C
  C204     1.0000 0.98140  0.25230  0.85680  Biso   1.000  C
  H113     1.0000 0.00520  0.24060  0.89720  Biso   1.000  H
  C205     1.0000 0.00940  0.26290  0.78760  Biso   1.000  C
  H114     1.0000 0.05220  0.25540  0.78180  Biso   1.000  H
  C206     1.0000 0.88320  0.25060  0.93280  Biso   1.000  C
  C207     1.0000 0.81840  0.23660  0.93220  Biso   1.000  C
  H115     1.0000 0.79690  0.23160  0.88810  Biso   1.000  H
  C208     1.0000 0.21910  0.19830  0.84290  Biso   1.000  C
  C209     1.0000 0.22310  0.16660  0.77110  Biso   1.000  C
  C210     1.0000 0.19320  0.18790  0.70910  Biso   1.000  C
  H116     1.0000 0.16790  0.22110  0.71250  Biso   1.000  H
  C211     1.0000 0.20050  0.15990  0.64170  Biso   1.000  C
  H117     1.0000 0.18070  0.17470  0.60010  Biso   1.000  H
  C212     1.0000 0.23760  0.10980  0.63680  Biso   1.000  C
  C213     1.0000 0.26810  0.08810  0.69950  Biso   1.000  C
  H118     1.0000 0.29310  0.05470  0.69650  Biso   1.000  H
  C214     1.0000 0.26070  0.11700  0.76630  Biso   1.000  C
  H119     1.0000 0.28100  0.10290  0.80800  Biso   1.000  H
  C215     1.0000 0.23960  0.07640  0.56730  Biso   1.000  C
  C216     1.0000 0.24760  0.01420  0.56320  Biso   1.000  C
  H120     1.0000 0.25070  0.99320  0.60680  Biso   1.000  H
  N8       1.0000 0.37520  0.09400  0.03980  Biso   1.000  N
  O71      1.0000 0.63274  0.09601  0.15440  Biso   1.000  O
  O72      1.0000 0.58442  0.02121  0.09923  Biso   1.000  O
  O73      1.0000 0.39753  0.82639  0.44051  Biso   1.000  O
  O74      1.0000 0.06909  0.28861  0.65634  Biso   1.000  O
  O75      1.0000 0.97909  0.31396  0.60949  Biso   1.000  O
  O76      1.0000 0.69354  0.20206  0.06185  Biso   1.000  O
  O77      1.0000 0.25278  0.18660  0.89252  Biso   1.000  O
  O78      1.0000 0.17719  0.23773  0.84783  Biso   1.000  O
  O79      1.0000 0.26763  0.89472  0.44057  Biso   1.000  O
  O80      1.0000 0.42760  0.09940  0.99100  Biso   1.000  O
  Zn15     1.0000 0.61695  0.16359  0.08911  Biso   1.000  Zn
  Zn16     1.0000 0.30491  0.81198  0.41957  Biso   1.000  Zn
  C217     1.0000 0.92090  0.45780  0.00000  Biso   1.000  C
  H121     1.0000 0.88690  0.48370  0.00000  Biso   1.000  H
  C218     1.0000 0.01980  0.37960  0.00000  Biso   1.000  C
  C219     1.0000 0.07760  0.34070  0.00000  Biso   1.000  C
  C220     1.0000 0.25750  0.60850  0.00000  Biso   1.000  C
  H122     1.0000 0.25390  0.64910  0.00000  Biso   1.000  H
  C221     1.0000 0.24930  0.48490  0.00000  Biso   1.000  C
  C222     1.0000 0.23990  0.42320  0.00000  Biso   1.000  C
  O81      1.0000 0.22790  0.27460  0.00000  Biso   1.000  O
  H123     1.0000 0.26430  0.29000  0.00000  Biso   1.000  H
  C223     1.0000 0.07910  0.54220  0.00000  Biso   1.000  C
  H124     1.0000 0.11310  0.51630  0.00000  Biso   1.000  H
  C224     1.0000 0.98020  0.62040  0.00000  Biso   1.000  C
  C225     1.0000 0.92240  0.65930  0.00000  Biso   1.000  C
  C226     1.0000 0.74250  0.39150  0.00000  Biso   1.000  C
  H125     1.0000 0.74610  0.35090  0.00000  Biso   1.000  H
  C227     1.0000 0.75070  0.51510  0.00000  Biso   1.000  C
  C228     1.0000 0.76010  0.57680  0.00000  Biso   1.000  C
  O82      1.0000 0.77210  0.72540  0.00000  Biso   1.000  O
  H126     1.0000 0.73570  0.71000  0.00000  Biso   1.000  H
  C229     1.0000 0.57910  0.95780  0.50000  Biso   1.000  C
  H127     1.0000 0.61310  0.98370  0.50000  Biso   1.000  H
  C230     1.0000 0.48020  0.87960  0.50000  Biso   1.000  C
  C231     1.0000 0.42240  0.84070  0.50000  Biso   1.000  C
  C232     1.0000 0.24250  0.10850  0.50000  Biso   1.000  C
  H128     1.0000 0.24610  0.14910  0.50000  Biso   1.000  H
  C233     1.0000 0.25070  0.98490  0.50000  Biso   1.000  C
  C234     1.0000 0.26010  0.92320  0.50000  Biso   1.000  C
  O83      1.0000 0.27210  0.77460  0.50000  Biso   1.000  O
  H129     1.0000 0.23570  0.79000  0.50000  Biso   1.000  H
  C235     1.0000 0.42090  0.04220  0.50000  Biso   1.000  C
  H130     1.0000 0.38690  0.01630  0.50000  Biso   1.000  H
  C236     1.0000 0.51980  0.12040  0.50000  Biso   1.000  C
  C237     1.0000 0.57760  0.15930  0.50000  Biso   1.000  C
  C238     1.0000 0.75750  0.89150  0.50000  Biso   1.000  C
  H131     1.0000 0.75390  0.85090  0.50000  Biso   1.000  H
  C239     1.0000 0.74930  0.01510  0.50000  Biso   1.000  C
  C240     1.0000 0.73990  0.07680  0.50000  Biso   1.000  C
  O84      1.0000 0.72790  0.22540  0.50000  Biso   1.000  O
  H132     1.0000 0.76430  0.21000  0.50000  Biso   1.000  H
  C241     1.0000 0.58620  0.75920  0.50000  Biso   1.000  C
  H133     1.0000 0.54420  0.77110  0.50000  Biso   1.000  H
  C242     1.0000 0.71300  0.73030  0.50000  Biso   1.000  C
  C243     1.0000 0.78140  0.71160  0.50000  Biso   1.000  C
  O85      1.0000 0.92204  0.63437  0.50000  Biso   1.000  O
  Zn17     1.0000 0.89925  0.54996  0.50000  Biso   1.000  Zn
  Zn18     1.0000 0.00723  0.66713  0.50000  Biso   1.000  Zn
  C244     1.0000 0.41380  0.24080  0.50000  Biso   1.000  C
  H134     1.0000 0.45580  0.22890  0.50000  Biso   1.000  H
  C245     1.0000 0.28700  0.26970  0.50000  Biso   1.000  C
  C246     1.0000 0.21860  0.28840  0.50000  Biso   1.000  C
  O86      1.0000 0.07796  0.36563  0.50000  Biso   1.000  O
  Zn19     1.0000 0.10075  0.45004  0.50000  Biso   1.000  Zn
  Zn20     1.0000 0.99277  0.33287  0.50000  Biso   1.000  Zn
  C247     1.0000 0.91380  0.25920  0.00000  Biso   1.000  C
  H135     1.0000 0.95580  0.27110  0.00000  Biso   1.000  H
  C248     1.0000 0.78700  0.23030  0.00000  Biso   1.000  C
  C249     1.0000 0.71860  0.21160  0.00000  Biso   1.000  C
  O87      1.0000 0.57796  0.13437  0.00000  Biso   1.000  O
  Zn21     1.0000 0.60075  0.04996  0.00000  Biso   1.000  Zn
  Zn22     1.0000 0.49277  0.16713  0.00000  Biso   1.000  Zn
  C250     1.0000 0.08620  0.74080  0.00000  Biso   1.000  C
  H136     1.0000 0.04420  0.72890  0.00000  Biso   1.000  H
  C251     1.0000 0.21300  0.76970  0.00000  Biso   1.000  C
  C252     1.0000 0.28140  0.78840  0.00000  Biso   1.000  C
  O88      1.0000 0.42204  0.86563  0.00000  Biso   1.000  O
  Zn23     1.0000 0.39925  0.95004  0.00000  Biso   1.000  Zn
  Zn24     1.0000 0.50723  0.83287  0.00000  Biso   1.000  Zn
  O89      1.0000 0.17520  0.61070  0.50000  Biso   1.000  O
  Zn25     1.0000 0.23560  0.69048  0.50000  Biso   1.000  Zn
  H137     1.0000 0.76230  0.20640  0.50000  Biso   1.000  H
  O90      1.0000 0.82480  0.38930  0.50000  Biso   1.000  O
  Zn26     1.0000 0.76440  0.30952  0.50000  Biso   1.000  Zn
  H138     1.0000 0.23770  0.79360  0.50000  Biso   1.000  H
  O91      1.0000 0.32480  0.11070  0.00000  Biso   1.000  O
  Zn27     1.0000 0.26440  0.19048  0.00000  Biso   1.000  Zn
  H139     1.0000 0.73770  0.70640  0.00000  Biso   1.000  H
  O92      1.0000 0.67520  0.88930  0.00000  Biso   1.000  O
  Zn28     1.0000 0.73560  0.80952  0.00000  Biso   1.000  Zn
  H140     1.0000 0.26230  0.29360  0.00000  Biso   1.000  H
