data_image0
_cell_length_a       23.941
_cell_length_b       18.794
_cell_length_c       19.897
_cell_angle_alpha    90
_cell_angle_beta     124.96
_cell_angle_gamma    90

_symmetry_space_group_name_H-M    "P 1"
_symmetry_int_tables_number       1

loop_
  _symmetry_equiv_pos_as_xyz
  'x, y, z'

loop_
  _atom_site_label
  _atom_site_occupancy
  _atom_site_fract_x
  _atom_site_fract_y
  _atom_site_fract_z
  _atom_site_thermal_displace_type
  _atom_site_B_iso_or_equiv
  _atom_site_type_symbol
  Cu1      1.0000 0.71663  0.71518  0.52459  Biso   1.000  Cu
  C1       1.0000 0.85910  0.72770  0.63570  Biso   1.000  C
  N1       1.0000 0.10980  0.72490  0.80570  Biso   1.000  N
  O1       1.0000 0.04930  0.57100  0.96310  Biso   1.000  O
  C2       1.0000 0.92700  0.71040  0.71520  Biso   1.000  C
  O2       1.0000 0.93680  0.57150  0.88810  Biso   1.000  O
  C3       1.0000 0.92870  0.66570  0.77460  Biso   1.000  C
  H1       1.0000 0.88750  0.64870  0.76520  Biso   1.000  H
  O3       1.0000 0.80620  0.70170  0.62730  Biso   1.000  O
  C4       1.0000 0.99140  0.64730  0.84650  Biso   1.000  C
  O4       1.0000 0.86050  0.76080  0.58260  Biso   1.000  O
  C5       1.0000 0.99340  0.59470  0.90610  Biso   1.000  C
  O5       1.0000 0.09020  0.67850  0.68570  Biso   1.000  O
  C6       1.0000 0.05040  0.67070  0.85660  Biso   1.000  C
  H2       1.0000 0.09290  0.65990  0.90640  Biso   1.000  H
  O6       1.0000 0.16060  0.78870  0.92590  Biso   1.000  O
  C7       1.0000 0.05020  0.70850  0.79830  Biso   1.000  C
  C8       1.0000 0.98800  0.73030  0.72670  Biso   1.000  C
  H3       1.0000 0.98760  0.75820  0.68670  Biso   1.000  H
  C9       1.0000 0.12610  0.71380  0.75220  Biso   1.000  C
  C10      1.0000 0.19340  0.74110  0.78140  Biso   1.000  C
  C11      1.0000 0.23350  0.73960  0.75020  Biso   1.000  C
  H4       1.0000 0.21940  0.71520  0.70100  Biso   1.000  H
  C12      1.0000 0.29550  0.77650  0.79680  Biso   1.000  C
  H5       1.0000 0.32350  0.77760  0.77730  Biso   1.000  H
  C13      1.0000 0.31840  0.81180  0.86990  Biso   1.000  C
  H6       1.0000 0.36150  0.83480  0.90100  Biso   1.000  H
  C14      1.0000 0.27460  0.81150  0.89520  Biso   1.000  C
  H7       1.0000 0.28820  0.83710  0.94350  Biso   1.000  H
  C15      1.0000 0.21130  0.77550  0.85340  Biso   1.000  C
  C16      1.0000 0.16010  0.76790  0.86830  Biso   1.000  C
  C17      1.0000 0.73240  0.86650  0.55130  Biso   1.000  C
  O7       1.0000 0.70950  0.80900  0.56140  Biso   1.000  O
  O8       1.0000 0.76450  0.86900  0.51740  Biso   1.000  O
  C18      1.0000 0.71340  0.93510  0.57190  Biso   1.000  C
  C19      1.0000 0.67380  0.93440  0.59980  Biso   1.000  C
  H8       1.0000 0.66130  0.89050  0.61120  Biso   1.000  H
  H9       1.0000 0.44530  0.98950  0.75030  Biso   1.000  H
  C20      1.0000 0.60920  0.97630  0.70320  Biso   1.000  C
  C21      1.0000 0.52890  0.97540  0.74690  Biso   1.000  C
  H10      1.0000 0.55870  0.94820  0.79500  Biso   1.000  H
  C22      1.0000 0.41860  0.03370  0.64750  Biso   1.000  C
  H11      1.0000 0.37340  0.04650  0.62840  Biso   1.000  H
  C23      1.0000 0.44430  0.05860  0.60440  Biso   1.000  C
  H12      1.0000 0.41870  0.08810  0.55730  Biso   1.000  H
  C24      1.0000 0.50450  0.03740  0.62460  Biso   1.000  C
  O9       1.0000 0.66310  0.94490  0.75260  Biso   1.000  O
  O10      1.0000 0.98200  0.42550  0.47380  Biso   1.000  O
  C25      1.0000 0.54560  0.04280  0.59190  Biso   1.000  C
  Cu2      1.0000 0.21663  0.21518  0.52459  Biso   1.000  Cu
  C26      1.0000 0.35910  0.22770  0.63570  Biso   1.000  C
  N2       1.0000 0.60980  0.22490  0.80570  Biso   1.000  N
  O11      1.0000 0.54930  0.07100  0.96310  Biso   1.000  O
  C27      1.0000 0.42700  0.21040  0.71520  Biso   1.000  C
  O12      1.0000 0.43680  0.07150  0.88810  Biso   1.000  O
  C28      1.0000 0.42870  0.16570  0.77460  Biso   1.000  C
  H13      1.0000 0.38750  0.14870  0.76520  Biso   1.000  H
  O13      1.0000 0.30620  0.20170  0.62730  Biso   1.000  O
  C29      1.0000 0.49140  0.14730  0.84650  Biso   1.000  C
  O14      1.0000 0.36050  0.26080  0.58260  Biso   1.000  O
  C30      1.0000 0.49340  0.09470  0.90610  Biso   1.000  C
  O15      1.0000 0.59020  0.17850  0.68570  Biso   1.000  O
  C31      1.0000 0.55040  0.17070  0.85660  Biso   1.000  C
  H14      1.0000 0.59290  0.15990  0.90640  Biso   1.000  H
  O16      1.0000 0.66060  0.28870  0.92590  Biso   1.000  O
  C32      1.0000 0.55020  0.20850  0.79830  Biso   1.000  C
  C33      1.0000 0.48800  0.23030  0.72670  Biso   1.000  C
  H15      1.0000 0.48760  0.25820  0.68670  Biso   1.000  H
  C34      1.0000 0.62610  0.21380  0.75220  Biso   1.000  C
  C35      1.0000 0.69340  0.24110  0.78140  Biso   1.000  C
  C36      1.0000 0.73350  0.23960  0.75020  Biso   1.000  C
  H16      1.0000 0.71940  0.21520  0.70100  Biso   1.000  H
  C37      1.0000 0.79550  0.27650  0.79680  Biso   1.000  C
  H17      1.0000 0.82350  0.27760  0.77730  Biso   1.000  H
  C38      1.0000 0.81840  0.31180  0.86990  Biso   1.000  C
  H18      1.0000 0.86150  0.33480  0.90100  Biso   1.000  H
  C39      1.0000 0.77460  0.31150  0.89520  Biso   1.000  C
  H19      1.0000 0.78820  0.33710  0.94350  Biso   1.000  H
  C40      1.0000 0.71130  0.27550  0.85340  Biso   1.000  C
  C41      1.0000 0.66010  0.26790  0.86830  Biso   1.000  C
  C42      1.0000 0.23240  0.36650  0.55130  Biso   1.000  C
  O17      1.0000 0.20950  0.30900  0.56140  Biso   1.000  O
  O18      1.0000 0.26450  0.36900  0.51740  Biso   1.000  O
  C43      1.0000 0.21340  0.43510  0.57190  Biso   1.000  C
  C44      1.0000 0.17380  0.43440  0.59980  Biso   1.000  C
  H20      1.0000 0.16130  0.39050  0.61120  Biso   1.000  H
  H21      1.0000 0.94530  0.48950  0.75030  Biso   1.000  H
  C45      1.0000 0.10920  0.47630  0.70320  Biso   1.000  C
  C46      1.0000 0.02890  0.47540  0.74690  Biso   1.000  C
  H22      1.0000 0.05870  0.44820  0.79500  Biso   1.000  H
  C47      1.0000 0.91860  0.53370  0.64750  Biso   1.000  C
  H23      1.0000 0.87340  0.54650  0.62840  Biso   1.000  H
  C48      1.0000 0.94430  0.55860  0.60440  Biso   1.000  C
  H24      1.0000 0.91870  0.58810  0.55730  Biso   1.000  H
  C49      1.0000 0.00450  0.53740  0.62460  Biso   1.000  C
  O19      1.0000 0.16310  0.44490  0.75260  Biso   1.000  O
  O20      1.0000 0.48200  0.92550  0.47380  Biso   1.000  O
  C50      1.0000 0.04560  0.54280  0.59190  Biso   1.000  C
  Cu3      1.0000 0.28337  0.71518  0.47541  Biso   1.000  Cu
  C51      1.0000 0.14090  0.72770  0.36430  Biso   1.000  C
  N3       1.0000 0.89020  0.72490  0.19430  Biso   1.000  N
  O21      1.0000 0.95070  0.57100  0.03690  Biso   1.000  O
  C52      1.0000 0.07300  0.71040  0.28480  Biso   1.000  C
  O22      1.0000 0.06320  0.57150  0.11190  Biso   1.000  O
  C53      1.0000 0.07130  0.66570  0.22540  Biso   1.000  C
  H25      1.0000 0.11250  0.64870  0.23480  Biso   1.000  H
  O23      1.0000 0.19380  0.70170  0.37270  Biso   1.000  O
  C54      1.0000 0.00860  0.64730  0.15350  Biso   1.000  C
  O24      1.0000 0.13950  0.76080  0.41740  Biso   1.000  O
  C55      1.0000 0.00660  0.59470  0.09390  Biso   1.000  C
  O25      1.0000 0.90980  0.67850  0.31430  Biso   1.000  O
  C56      1.0000 0.94960  0.67070  0.14340  Biso   1.000  C
  H26      1.0000 0.90710  0.65990  0.09360  Biso   1.000  H
  O26      1.0000 0.83940  0.78870  0.07410  Biso   1.000  O
  C57      1.0000 0.94980  0.70850  0.20170  Biso   1.000  C
  C58      1.0000 0.01200  0.73030  0.27330  Biso   1.000  C
  H27      1.0000 0.01240  0.75820  0.31330  Biso   1.000  H
  C59      1.0000 0.87390  0.71380  0.24780  Biso   1.000  C
  C60      1.0000 0.80660  0.74110  0.21860  Biso   1.000  C
  C61      1.0000 0.76650  0.73960  0.24980  Biso   1.000  C
  H28      1.0000 0.78060  0.71520  0.29900  Biso   1.000  H
  C62      1.0000 0.70450  0.77650  0.20320  Biso   1.000  C
  H29      1.0000 0.67650  0.77760  0.22270  Biso   1.000  H
  C63      1.0000 0.68160  0.81180  0.13010  Biso   1.000  C
  H30      1.0000 0.63850  0.83480  0.09900  Biso   1.000  H
  C64      1.0000 0.72540  0.81150  0.10480  Biso   1.000  C
  H31      1.0000 0.71180  0.83710  0.05650  Biso   1.000  H
  C65      1.0000 0.78870  0.77550  0.14660  Biso   1.000  C
  C66      1.0000 0.83990  0.76790  0.13170  Biso   1.000  C
  C67      1.0000 0.26760  0.86650  0.44870  Biso   1.000  C
  O27      1.0000 0.29050  0.80900  0.43860  Biso   1.000  O
  O28      1.0000 0.23550  0.86900  0.48260  Biso   1.000  O
  C68      1.0000 0.28660  0.93510  0.42810  Biso   1.000  C
  C69      1.0000 0.32620  0.93440  0.40020  Biso   1.000  C
  H32      1.0000 0.33870  0.89050  0.38880  Biso   1.000  H
  H33      1.0000 0.55470  0.98950  0.24970  Biso   1.000  H
  C70      1.0000 0.39080  0.97630  0.29680  Biso   1.000  C
  C71      1.0000 0.47110  0.97540  0.25310  Biso   1.000  C
  H34      1.0000 0.44130  0.94820  0.20500  Biso   1.000  H
  C72      1.0000 0.58140  0.03370  0.35250  Biso   1.000  C
  H35      1.0000 0.62660  0.04650  0.37160  Biso   1.000  H
  C73      1.0000 0.55570  0.05860  0.39560  Biso   1.000  C
  H36      1.0000 0.58130  0.08810  0.44270  Biso   1.000  H
  C74      1.0000 0.49550  0.03740  0.37540  Biso   1.000  C
  O29      1.0000 0.33690  0.94490  0.24740  Biso   1.000  O
  O30      1.0000 0.01800  0.42550  0.52620  Biso   1.000  O
  C75      1.0000 0.45440  0.04280  0.40810  Biso   1.000  C
  Cu4      1.0000 0.78337  0.21518  0.47541  Biso   1.000  Cu
  C76      1.0000 0.64090  0.22770  0.36430  Biso   1.000  C
  N4       1.0000 0.39020  0.22490  0.19430  Biso   1.000  N
  O31      1.0000 0.45070  0.07100  0.03690  Biso   1.000  O
  C77      1.0000 0.57300  0.21040  0.28480  Biso   1.000  C
  O32      1.0000 0.56320  0.07150  0.11190  Biso   1.000  O
  C78      1.0000 0.57130  0.16570  0.22540  Biso   1.000  C
  H37      1.0000 0.61250  0.14870  0.23480  Biso   1.000  H
  O33      1.0000 0.69380  0.20170  0.37270  Biso   1.000  O
  C79      1.0000 0.50860  0.14730  0.15350  Biso   1.000  C
  O34      1.0000 0.63950  0.26080  0.41740  Biso   1.000  O
  C80      1.0000 0.50660  0.09470  0.09390  Biso   1.000  C
  O35      1.0000 0.40980  0.17850  0.31430  Biso   1.000  O
  C81      1.0000 0.44960  0.17070  0.14340  Biso   1.000  C
  H38      1.0000 0.40710  0.15990  0.09360  Biso   1.000  H
  O36      1.0000 0.33940  0.28870  0.07410  Biso   1.000  O
  C82      1.0000 0.44980  0.20850  0.20170  Biso   1.000  C
  C83      1.0000 0.51200  0.23030  0.27330  Biso   1.000  C
  H39      1.0000 0.51240  0.25820  0.31330  Biso   1.000  H
  C84      1.0000 0.37390  0.21380  0.24780  Biso   1.000  C
  C85      1.0000 0.30660  0.24110  0.21860  Biso   1.000  C
  C86      1.0000 0.26650  0.23960  0.24980  Biso   1.000  C
  H40      1.0000 0.28060  0.21520  0.29900  Biso   1.000  H
  C87      1.0000 0.20450  0.27650  0.20320  Biso   1.000  C
  H41      1.0000 0.17650  0.27760  0.22270  Biso   1.000  H
  C88      1.0000 0.18160  0.31180  0.13010  Biso   1.000  C
  H42      1.0000 0.13850  0.33480  0.09900  Biso   1.000  H
  C89      1.0000 0.22540  0.31150  0.10480  Biso   1.000  C
  H43      1.0000 0.21180  0.33710  0.05650  Biso   1.000  H
  C90      1.0000 0.28870  0.27550  0.14660  Biso   1.000  C
  C91      1.0000 0.33990  0.26790  0.13170  Biso   1.000  C
  C92      1.0000 0.76760  0.36650  0.44870  Biso   1.000  C
  O37      1.0000 0.79050  0.30900  0.43860  Biso   1.000  O
  O38      1.0000 0.73550  0.36900  0.48260  Biso   1.000  O
  C93      1.0000 0.78660  0.43510  0.42810  Biso   1.000  C
  C94      1.0000 0.82620  0.43440  0.40020  Biso   1.000  C
  H44      1.0000 0.83870  0.39050  0.38880  Biso   1.000  H
  H45      1.0000 0.05470  0.48950  0.24970  Biso   1.000  H
  C95      1.0000 0.89080  0.47630  0.29680  Biso   1.000  C
  C96      1.0000 0.97110  0.47540  0.25310  Biso   1.000  C
  H46      1.0000 0.94130  0.44820  0.20500  Biso   1.000  H
  C97      1.0000 0.08140  0.53370  0.35250  Biso   1.000  C
  H47      1.0000 0.12660  0.54650  0.37160  Biso   1.000  H
  C98      1.0000 0.05570  0.55860  0.39560  Biso   1.000  C
  H48      1.0000 0.08130  0.58810  0.44270  Biso   1.000  H
  C99      1.0000 0.99550  0.53740  0.37540  Biso   1.000  C
  O39      1.0000 0.83690  0.44490  0.24740  Biso   1.000  O
  O40      1.0000 0.51800  0.92550  0.52620  Biso   1.000  O
  C100     1.0000 0.95440  0.54280  0.40810  Biso   1.000  C
  Cu5      1.0000 0.28337  0.28482  0.47541  Biso   1.000  Cu
  C101     1.0000 0.14090  0.27230  0.36430  Biso   1.000  C
  N5       1.0000 0.89020  0.27510  0.19430  Biso   1.000  N
  O41      1.0000 0.95070  0.42900  0.03690  Biso   1.000  O
  C102     1.0000 0.07300  0.28960  0.28480  Biso   1.000  C
  O42      1.0000 0.06320  0.42850  0.11190  Biso   1.000  O
  C103     1.0000 0.07130  0.33430  0.22540  Biso   1.000  C
  H49      1.0000 0.11250  0.35130  0.23480  Biso   1.000  H
  O43      1.0000 0.19380  0.29830  0.37270  Biso   1.000  O
  C104     1.0000 0.00860  0.35270  0.15350  Biso   1.000  C
  O44      1.0000 0.13950  0.23920  0.41740  Biso   1.000  O
  C105     1.0000 0.00660  0.40530  0.09390  Biso   1.000  C
  O45      1.0000 0.90980  0.32150  0.31430  Biso   1.000  O
  C106     1.0000 0.94960  0.32930  0.14340  Biso   1.000  C
  H50      1.0000 0.90710  0.34010  0.09360  Biso   1.000  H
  O46      1.0000 0.83940  0.21130  0.07410  Biso   1.000  O
  C107     1.0000 0.94980  0.29150  0.20170  Biso   1.000  C
  C108     1.0000 0.01200  0.26970  0.27330  Biso   1.000  C
  H51      1.0000 0.01240  0.24180  0.31330  Biso   1.000  H
  C109     1.0000 0.87390  0.28620  0.24780  Biso   1.000  C
  C110     1.0000 0.80660  0.25890  0.21860  Biso   1.000  C
  C111     1.0000 0.76650  0.26040  0.24980  Biso   1.000  C
  H52      1.0000 0.78060  0.28480  0.29900  Biso   1.000  H
  C112     1.0000 0.70450  0.22350  0.20320  Biso   1.000  C
  H53      1.0000 0.67650  0.22240  0.22270  Biso   1.000  H
  C113     1.0000 0.68160  0.18820  0.13010  Biso   1.000  C
  H54      1.0000 0.63850  0.16520  0.09900  Biso   1.000  H
  C114     1.0000 0.72540  0.18850  0.10480  Biso   1.000  C
  H55      1.0000 0.71180  0.16290  0.05650  Biso   1.000  H
  C115     1.0000 0.78870  0.22450  0.14660  Biso   1.000  C
  C116     1.0000 0.83990  0.23210  0.13170  Biso   1.000  C
  C117     1.0000 0.26760  0.13350  0.44870  Biso   1.000  C
  O47      1.0000 0.29050  0.19100  0.43860  Biso   1.000  O
  O48      1.0000 0.23550  0.13100  0.48260  Biso   1.000  O
  C118     1.0000 0.28660  0.06490  0.42810  Biso   1.000  C
  C119     1.0000 0.32620  0.06560  0.40020  Biso   1.000  C
  H56      1.0000 0.33870  0.10950  0.38880  Biso   1.000  H
  H57      1.0000 0.55470  0.01050  0.24970  Biso   1.000  H
  C120     1.0000 0.39080  0.02370  0.29680  Biso   1.000  C
  C121     1.0000 0.47110  0.02460  0.25310  Biso   1.000  C
  H58      1.0000 0.44130  0.05180  0.20500  Biso   1.000  H
  C122     1.0000 0.58140  0.96630  0.35250  Biso   1.000  C
  H59      1.0000 0.62660  0.95350  0.37160  Biso   1.000  H
  C123     1.0000 0.55570  0.94140  0.39560  Biso   1.000  C
  H60      1.0000 0.58130  0.91190  0.44270  Biso   1.000  H
  C124     1.0000 0.49550  0.96260  0.37540  Biso   1.000  C
  O49      1.0000 0.33690  0.05510  0.24740  Biso   1.000  O
  O50      1.0000 0.01800  0.57450  0.52620  Biso   1.000  O
  C125     1.0000 0.45440  0.95720  0.40810  Biso   1.000  C
  Cu6      1.0000 0.78337  0.78482  0.47541  Biso   1.000  Cu
  C126     1.0000 0.64090  0.77230  0.36430  Biso   1.000  C
  N6       1.0000 0.39020  0.77510  0.19430  Biso   1.000  N
  O51      1.0000 0.45070  0.92900  0.03690  Biso   1.000  O
  C127     1.0000 0.57300  0.78960  0.28480  Biso   1.000  C
  O52      1.0000 0.56320  0.92850  0.11190  Biso   1.000  O
  C128     1.0000 0.57130  0.83430  0.22540  Biso   1.000  C
  H61      1.0000 0.61250  0.85130  0.23480  Biso   1.000  H
  O53      1.0000 0.69380  0.79830  0.37270  Biso   1.000  O
  C129     1.0000 0.50860  0.85270  0.15350  Biso   1.000  C
  O54      1.0000 0.63950  0.73920  0.41740  Biso   1.000  O
  C130     1.0000 0.50660  0.90530  0.09390  Biso   1.000  C
  O55      1.0000 0.40980  0.82150  0.31430  Biso   1.000  O
  C131     1.0000 0.44960  0.82930  0.14340  Biso   1.000  C
  H62      1.0000 0.40710  0.84010  0.09360  Biso   1.000  H
  O56      1.0000 0.33940  0.71130  0.07410  Biso   1.000  O
  C132     1.0000 0.44980  0.79150  0.20170  Biso   1.000  C
  C133     1.0000 0.51200  0.76970  0.27330  Biso   1.000  C
  H63      1.0000 0.51240  0.74180  0.31330  Biso   1.000  H
  C134     1.0000 0.37390  0.78620  0.24780  Biso   1.000  C
  C135     1.0000 0.30660  0.75890  0.21860  Biso   1.000  C
  C136     1.0000 0.26650  0.76040  0.24980  Biso   1.000  C
  H64      1.0000 0.28060  0.78480  0.29900  Biso   1.000  H
  C137     1.0000 0.20450  0.72350  0.20320  Biso   1.000  C
  H65      1.0000 0.17650  0.72240  0.22270  Biso   1.000  H
  C138     1.0000 0.18160  0.68820  0.13010  Biso   1.000  C
  H66      1.0000 0.13850  0.66520  0.09900  Biso   1.000  H
  C139     1.0000 0.22540  0.68850  0.10480  Biso   1.000  C
  H67      1.0000 0.21180  0.66290  0.05650  Biso   1.000  H
  C140     1.0000 0.28870  0.72450  0.14660  Biso   1.000  C
  C141     1.0000 0.33990  0.73210  0.13170  Biso   1.000  C
  C142     1.0000 0.76760  0.63350  0.44870  Biso   1.000  C
  O57      1.0000 0.79050  0.69100  0.43860  Biso   1.000  O
  O58      1.0000 0.73550  0.63100  0.48260  Biso   1.000  O
  C143     1.0000 0.78660  0.56490  0.42810  Biso   1.000  C
  C144     1.0000 0.82620  0.56560  0.40020  Biso   1.000  C
  H68      1.0000 0.83870  0.60950  0.38880  Biso   1.000  H
  H69      1.0000 0.05470  0.51050  0.24970  Biso   1.000  H
  C145     1.0000 0.89080  0.52370  0.29680  Biso   1.000  C
  C146     1.0000 0.97110  0.52460  0.25310  Biso   1.000  C
  H70      1.0000 0.94130  0.55180  0.20500  Biso   1.000  H
  C147     1.0000 0.08140  0.46630  0.35250  Biso   1.000  C
  H71      1.0000 0.12660  0.45350  0.37160  Biso   1.000  H
  C148     1.0000 0.05570  0.44140  0.39560  Biso   1.000  C
  H72      1.0000 0.08130  0.41190  0.44270  Biso   1.000  H
  C149     1.0000 0.99550  0.46260  0.37540  Biso   1.000  C
  O59      1.0000 0.83690  0.55510  0.24740  Biso   1.000  O
  O60      1.0000 0.51800  0.07450  0.52620  Biso   1.000  O
  C150     1.0000 0.95440  0.45720  0.40810  Biso   1.000  C
  Cu7      1.0000 0.71663  0.28482  0.52459  Biso   1.000  Cu
  C151     1.0000 0.85910  0.27230  0.63570  Biso   1.000  C
  N7       1.0000 0.10980  0.27510  0.80570  Biso   1.000  N
  O61      1.0000 0.04930  0.42900  0.96310  Biso   1.000  O
  C152     1.0000 0.92700  0.28960  0.71520  Biso   1.000  C
  O62      1.0000 0.93680  0.42850  0.88810  Biso   1.000  O
  C153     1.0000 0.92870  0.33430  0.77460  Biso   1.000  C
  H73      1.0000 0.88750  0.35130  0.76520  Biso   1.000  H
  O63      1.0000 0.80620  0.29830  0.62730  Biso   1.000  O
  C154     1.0000 0.99140  0.35270  0.84650  Biso   1.000  C
  O64      1.0000 0.86050  0.23920  0.58260  Biso   1.000  O
  C155     1.0000 0.99340  0.40530  0.90610  Biso   1.000  C
  O65      1.0000 0.09020  0.32150  0.68570  Biso   1.000  O
  C156     1.0000 0.05040  0.32930  0.85660  Biso   1.000  C
  H74      1.0000 0.09290  0.34010  0.90640  Biso   1.000  H
  O66      1.0000 0.16060  0.21130  0.92590  Biso   1.000  O
  C157     1.0000 0.05020  0.29150  0.79830  Biso   1.000  C
  C158     1.0000 0.98800  0.26970  0.72670  Biso   1.000  C
  H75      1.0000 0.98760  0.24180  0.68670  Biso   1.000  H
  C159     1.0000 0.12610  0.28620  0.75220  Biso   1.000  C
  C160     1.0000 0.19340  0.25890  0.78140  Biso   1.000  C
  C161     1.0000 0.23350  0.26040  0.75020  Biso   1.000  C
  H76      1.0000 0.21940  0.28480  0.70100  Biso   1.000  H
  C162     1.0000 0.29550  0.22350  0.79680  Biso   1.000  C
  H77      1.0000 0.32350  0.22240  0.77730  Biso   1.000  H
  C163     1.0000 0.31840  0.18820  0.86990  Biso   1.000  C
  H78      1.0000 0.36150  0.16520  0.90100  Biso   1.000  H
  C164     1.0000 0.27460  0.18850  0.89520  Biso   1.000  C
  H79      1.0000 0.28820  0.16290  0.94350  Biso   1.000  H
  C165     1.0000 0.21130  0.22450  0.85340  Biso   1.000  C
  C166     1.0000 0.16010  0.23210  0.86830  Biso   1.000  C
  C167     1.0000 0.73240  0.13350  0.55130  Biso   1.000  C
  O67      1.0000 0.70950  0.19100  0.56140  Biso   1.000  O
  O68      1.0000 0.76450  0.13100  0.51740  Biso   1.000  O
  C168     1.0000 0.71340  0.06490  0.57190  Biso   1.000  C
  C169     1.0000 0.67380  0.06560  0.59980  Biso   1.000  C
  H80      1.0000 0.66130  0.10950  0.61120  Biso   1.000  H
  H81      1.0000 0.44530  0.01050  0.75030  Biso   1.000  H
  C170     1.0000 0.60920  0.02370  0.70320  Biso   1.000  C
  C171     1.0000 0.52890  0.02460  0.74690  Biso   1.000  C
  H82      1.0000 0.55870  0.05180  0.79500  Biso   1.000  H
  C172     1.0000 0.41860  0.96630  0.64750  Biso   1.000  C
  H83      1.0000 0.37340  0.95350  0.62840  Biso   1.000  H
  C173     1.0000 0.44430  0.94140  0.60440  Biso   1.000  C
  H84      1.0000 0.41870  0.91190  0.55730  Biso   1.000  H
  C174     1.0000 0.50450  0.96260  0.62460  Biso   1.000  C
  O69      1.0000 0.66310  0.05510  0.75260  Biso   1.000  O
  O70      1.0000 0.98200  0.57450  0.47380  Biso   1.000  O
  C175     1.0000 0.54560  0.95720  0.59190  Biso   1.000  C
  Cu8      1.0000 0.21663  0.78482  0.52459  Biso   1.000  Cu
  C176     1.0000 0.35910  0.77230  0.63570  Biso   1.000  C
  N8       1.0000 0.60980  0.77510  0.80570  Biso   1.000  N
  O71      1.0000 0.54930  0.92900  0.96310  Biso   1.000  O
  C177     1.0000 0.42700  0.78960  0.71520  Biso   1.000  C
  O72      1.0000 0.43680  0.92850  0.88810  Biso   1.000  O
  C178     1.0000 0.42870  0.83430  0.77460  Biso   1.000  C
  H85      1.0000 0.38750  0.85130  0.76520  Biso   1.000  H
  O73      1.0000 0.30620  0.79830  0.62730  Biso   1.000  O
  C179     1.0000 0.49140  0.85270  0.84650  Biso   1.000  C
  O74      1.0000 0.36050  0.73920  0.58260  Biso   1.000  O
  C180     1.0000 0.49340  0.90530  0.90610  Biso   1.000  C
  O75      1.0000 0.59020  0.82150  0.68570  Biso   1.000  O
  C181     1.0000 0.55040  0.82930  0.85660  Biso   1.000  C
  H86      1.0000 0.59290  0.84010  0.90640  Biso   1.000  H
  O76      1.0000 0.66060  0.71130  0.92590  Biso   1.000  O
  C182     1.0000 0.55020  0.79150  0.79830  Biso   1.000  C
  C183     1.0000 0.48800  0.76970  0.72670  Biso   1.000  C
  H87      1.0000 0.48760  0.74180  0.68670  Biso   1.000  H
  C184     1.0000 0.62610  0.78620  0.75220  Biso   1.000  C
  C185     1.0000 0.69340  0.75890  0.78140  Biso   1.000  C
  C186     1.0000 0.73350  0.76040  0.75020  Biso   1.000  C
  H88      1.0000 0.71940  0.78480  0.70100  Biso   1.000  H
  C187     1.0000 0.79550  0.72350  0.79680  Biso   1.000  C
  H89      1.0000 0.82350  0.72240  0.77730  Biso   1.000  H
  C188     1.0000 0.81840  0.68820  0.86990  Biso   1.000  C
  H90      1.0000 0.86150  0.66520  0.90100  Biso   1.000  H
  C189     1.0000 0.77460  0.68850  0.89520  Biso   1.000  C
  H91      1.0000 0.78820  0.66290  0.94350  Biso   1.000  H
  C190     1.0000 0.71130  0.72450  0.85340  Biso   1.000  C
  C191     1.0000 0.66010  0.73210  0.86830  Biso   1.000  C
  C192     1.0000 0.23240  0.63350  0.55130  Biso   1.000  C
  O77      1.0000 0.20950  0.69100  0.56140  Biso   1.000  O
  O78      1.0000 0.26450  0.63100  0.51740  Biso   1.000  O
  C193     1.0000 0.21340  0.56490  0.57190  Biso   1.000  C
  C194     1.0000 0.17380  0.56560  0.59980  Biso   1.000  C
  H92      1.0000 0.16130  0.60950  0.61120  Biso   1.000  H
  H93      1.0000 0.94530  0.51050  0.75030  Biso   1.000  H
  C195     1.0000 0.10920  0.52370  0.70320  Biso   1.000  C
  C196     1.0000 0.02890  0.52460  0.74690  Biso   1.000  C
  H94      1.0000 0.05870  0.55180  0.79500  Biso   1.000  H
  C197     1.0000 0.91860  0.46630  0.64750  Biso   1.000  C
  H95      1.0000 0.87340  0.45350  0.62840  Biso   1.000  H
  C198     1.0000 0.94430  0.44140  0.60440  Biso   1.000  C
  H96      1.0000 0.91870  0.41190  0.55730  Biso   1.000  H
  C199     1.0000 0.00450  0.46260  0.62460  Biso   1.000  C
  O79      1.0000 0.16310  0.55510  0.75260  Biso   1.000  O
  O80      1.0000 0.48200  0.07450  0.47380  Biso   1.000  O
  C200     1.0000 0.04560  0.45720  0.59190  Biso   1.000  C
  Cu9      1.0000 0.06717  0.50000  0.04234  Biso   1.000  Cu
  Cu10     1.0000 0.56717  0.00000  0.04234  Biso   1.000  Cu
  Cu11     1.0000 0.93283  0.50000  0.95766  Biso   1.000  Cu
  Cu12     1.0000 0.43283  0.00000  0.95766  Biso   1.000  Cu
  N9       1.0000 0.60460  0.00000  0.63690  Biso   1.000  N
  C201     1.0000 0.73480  0.00000  0.55650  Biso   1.000  C
  H97      1.0000 0.76250  0.00000  0.53650  Biso   1.000  H
  C202     1.0000 0.65080  0.00000  0.61210  Biso   1.000  C
  C203     1.0000 0.54520  0.00000  0.69360  Biso   1.000  C
  C204     1.0000 0.46270  0.00000  0.71890  Biso   1.000  C
  N10      1.0000 0.10460  0.50000  0.63690  Biso   1.000  N
  C205     1.0000 0.23480  0.50000  0.55650  Biso   1.000  C
  H98      1.0000 0.26250  0.50000  0.53650  Biso   1.000  H
  C206     1.0000 0.15080  0.50000  0.61210  Biso   1.000  C
  C207     1.0000 0.04520  0.50000  0.69360  Biso   1.000  C
  C208     1.0000 0.96270  0.50000  0.71890  Biso   1.000  C
  N11      1.0000 0.39540  0.00000  0.36310  Biso   1.000  N
  C209     1.0000 0.26520  0.00000  0.44350  Biso   1.000  C
  H99      1.0000 0.23750  0.00000  0.46350  Biso   1.000  H
  C210     1.0000 0.34920  0.00000  0.38790  Biso   1.000  C
  C211     1.0000 0.45480  0.00000  0.30640  Biso   1.000  C
  C212     1.0000 0.53730  0.00000  0.28110  Biso   1.000  C
  N12      1.0000 0.89540  0.50000  0.36310  Biso   1.000  N
  C213     1.0000 0.76520  0.50000  0.44350  Biso   1.000  C
  H100     1.0000 0.73750  0.50000  0.46350  Biso   1.000  H
  C214     1.0000 0.84920  0.50000  0.38790  Biso   1.000  C
  C215     1.0000 0.95480  0.50000  0.30640  Biso   1.000  C
  C216     1.0000 0.03730  0.50000  0.28110  Biso   1.000  C
