data_image0
_cell_length_a       16.1703
_cell_length_b       15.1042
_cell_length_c       7.9858
_cell_angle_alpha    90
_cell_angle_beta     92.845
_cell_angle_gamma    90

_symmetry_space_group_name_H-M    "P 1"
_symmetry_int_tables_number       1

loop_
  _symmetry_equiv_pos_as_xyz
  'x, y, z'

loop_
  _atom_site_label
  _atom_site_occupancy
  _atom_site_fract_x
  _atom_site_fract_y
  _atom_site_fract_z
  _atom_site_thermal_displace_type
  _atom_site_B_iso_or_equiv
  _atom_site_type_symbol
  Sm1      1.0000 0.95247  0.88364  0.04772  Biso   1.000  Sm
  Ag1      1.0000 0.47193  0.76177  0.60049  Biso   1.000  Ag
  C1       1.0000 0.83190  0.74910  0.29660  Biso   1.000  C
  C2       1.0000 0.74760  0.74990  0.36580  Biso   1.000  C
  C3       1.0000 0.70800  0.82900  0.39070  Biso   1.000  C
  H1       1.0000 0.73320  0.88220  0.36390  Biso   1.000  H
  C4       1.0000 0.63040  0.82900  0.45580  Biso   1.000  C
  H2       1.0000 0.60420  0.88290  0.47260  Biso   1.000  H
  C5       1.0000 0.63030  0.67780  0.46920  Biso   1.000  C
  H3       1.0000 0.60370  0.62530  0.49480  Biso   1.000  H
  C6       1.0000 0.70770  0.67300  0.40620  Biso   1.000  C
  H4       1.0000 0.73280  0.61840  0.39110  Biso   1.000  H
  C7       1.0000 0.86650  0.08310  0.13750  Biso   1.000  C
  C8       1.0000 0.78830  0.12430  0.19400  Biso   1.000  C
  C9       1.0000 0.71770  0.07390  0.20210  Biso   1.000  C
  H5       1.0000 0.71860  0.01430  0.17280  Biso   1.000  H
  C10      1.0000 0.64660  0.11140  0.25340  Biso   1.000  C
  H6       1.0000 0.59910  0.07670  0.25660  Biso   1.000  H
  C11      1.0000 0.71150  0.24550  0.29030  Biso   1.000  C
  H7       1.0000 0.70960  0.30480  0.32160  Biso   1.000  H
  C12      1.0000 0.78430  0.21270  0.23760  Biso   1.000  C
  H8       1.0000 0.83040  0.24900  0.23100  Biso   1.000  H
  O1       1.0000 0.85430  0.81567  0.21720  Biso   1.000  O
  O2       1.0000 0.87650  0.68130  0.32200  Biso   1.000  O
  O3       1.0000 0.86990  0.00050  0.13910  Biso   1.000  O
  O4       1.0000 0.92360  0.13450  0.09410  Biso   1.000  O
  O5       1.0000 0.94960  0.99873  0.83770  Biso   1.000  O
  O6       1.0000 0.96360  0.11510  0.68440  Biso   1.000  O
  N1       1.0000 0.59150  0.75400  0.49550  Biso   1.000  N
  N2       1.0000 0.64270  0.19700  0.29950  Biso   1.000  N
  C13      1.0000 0.92840  0.04210  0.70940  Biso   1.000  C
  C14      1.0000 0.86910  0.00290  0.57700  Biso   1.000  C
  H9       1.0000 0.83800  0.04960  0.52210  Biso   1.000  H
  H10      1.0000 0.83180  0.96310  0.62930  Biso   1.000  H
  H11      1.0000 0.89970  0.97120  0.49660  Biso   1.000  H
  C15      1.0000 0.85080  0.01570  0.60800  Biso   1.000  C
  H12      1.0000 0.84960  0.95250  0.59530  Biso   1.000  H
  H13      1.0000 0.85060  0.04320  0.50000  Biso   1.000  H
  H14      1.0000 0.80310  0.03450  0.66560  Biso   1.000  H
  Sm2      1.0000 0.04753  0.38364  0.45228  Biso   1.000  Sm
  Ag2      1.0000 0.52807  0.26177  0.89951  Biso   1.000  Ag
  C16      1.0000 0.16810  0.24910  0.20340  Biso   1.000  C
  C17      1.0000 0.25240  0.24990  0.13420  Biso   1.000  C
  C18      1.0000 0.29200  0.32900  0.10930  Biso   1.000  C
  H15      1.0000 0.26680  0.38220  0.13610  Biso   1.000  H
  C19      1.0000 0.36960  0.32900  0.04420  Biso   1.000  C
  H16      1.0000 0.39580  0.38290  0.02740  Biso   1.000  H
  C20      1.0000 0.36970  0.17780  0.03080  Biso   1.000  C
  H17      1.0000 0.39630  0.12530  0.00520  Biso   1.000  H
  C21      1.0000 0.29230  0.17300  0.09380  Biso   1.000  C
  H18      1.0000 0.26720  0.11840  0.10890  Biso   1.000  H
  C22      1.0000 0.13350  0.58310  0.36250  Biso   1.000  C
  C23      1.0000 0.21170  0.62430  0.30600  Biso   1.000  C
  C24      1.0000 0.28230  0.57390  0.29790  Biso   1.000  C
  H19      1.0000 0.28140  0.51430  0.32720  Biso   1.000  H
  C25      1.0000 0.35340  0.61140  0.24660  Biso   1.000  C
  H20      1.0000 0.40090  0.57670  0.24340  Biso   1.000  H
  C26      1.0000 0.28850  0.74550  0.20970  Biso   1.000  C
  H21      1.0000 0.29040  0.80480  0.17840  Biso   1.000  H
  C27      1.0000 0.21570  0.71270  0.26240  Biso   1.000  C
  H22      1.0000 0.16960  0.74900  0.26900  Biso   1.000  H
  O7       1.0000 0.14570  0.31567  0.28280  Biso   1.000  O
  O8       1.0000 0.12350  0.18130  0.17800  Biso   1.000  O
  O9       1.0000 0.13010  0.50050  0.36090  Biso   1.000  O
  O10      1.0000 0.07640  0.63450  0.40590  Biso   1.000  O
  O11      1.0000 0.05040  0.49873  0.66230  Biso   1.000  O
  O12      1.0000 0.03640  0.61510  0.81560  Biso   1.000  O
  N3       1.0000 0.40850  0.25400  0.00450  Biso   1.000  N
  N4       1.0000 0.35730  0.69700  0.20050  Biso   1.000  N
  C28      1.0000 0.07160  0.54210  0.79060  Biso   1.000  C
  C29      1.0000 0.13090  0.50290  0.92300  Biso   1.000  C
  H23      1.0000 0.16200  0.54960  0.97790  Biso   1.000  H
  H24      1.0000 0.16820  0.46310  0.87070  Biso   1.000  H
  H25      1.0000 0.10030  0.47120  0.00340  Biso   1.000  H
  C30      1.0000 0.14920  0.51570  0.89200  Biso   1.000  C
  H26      1.0000 0.15040  0.45250  0.90470  Biso   1.000  H
  H27      1.0000 0.14940  0.54320  0.00000  Biso   1.000  H
  H28      1.0000 0.19690  0.53450  0.83440  Biso   1.000  H
  Sm3      1.0000 0.04753  0.11636  0.95228  Biso   1.000  Sm
  Ag3      1.0000 0.52807  0.23823  0.39951  Biso   1.000  Ag
  C31      1.0000 0.16810  0.25090  0.70340  Biso   1.000  C
  C32      1.0000 0.25240  0.25010  0.63420  Biso   1.000  C
  C33      1.0000 0.29200  0.17100  0.60930  Biso   1.000  C
  H29      1.0000 0.26680  0.11780  0.63610  Biso   1.000  H
  C34      1.0000 0.36960  0.17100  0.54420  Biso   1.000  C
  H30      1.0000 0.39580  0.11710  0.52740  Biso   1.000  H
  C35      1.0000 0.36970  0.32220  0.53080  Biso   1.000  C
  H31      1.0000 0.39630  0.37470  0.50520  Biso   1.000  H
  C36      1.0000 0.29230  0.32700  0.59380  Biso   1.000  C
  H32      1.0000 0.26720  0.38160  0.60890  Biso   1.000  H
  C37      1.0000 0.13350  0.91690  0.86250  Biso   1.000  C
  C38      1.0000 0.21170  0.87570  0.80600  Biso   1.000  C
  C39      1.0000 0.28230  0.92610  0.79790  Biso   1.000  C
  H33      1.0000 0.28140  0.98570  0.82720  Biso   1.000  H
  C40      1.0000 0.35340  0.88860  0.74660  Biso   1.000  C
  H34      1.0000 0.40090  0.92330  0.74340  Biso   1.000  H
  C41      1.0000 0.28850  0.75450  0.70970  Biso   1.000  C
  H35      1.0000 0.29040  0.69520  0.67840  Biso   1.000  H
  C42      1.0000 0.21570  0.78730  0.76240  Biso   1.000  C
  H36      1.0000 0.16960  0.75100  0.76900  Biso   1.000  H
  O13      1.0000 0.14570  0.18433  0.78280  Biso   1.000  O
  O14      1.0000 0.12350  0.31870  0.67800  Biso   1.000  O
  O15      1.0000 0.13010  0.99950  0.86090  Biso   1.000  O
  O16      1.0000 0.07640  0.86550  0.90590  Biso   1.000  O
  O17      1.0000 0.05040  0.00127  0.16230  Biso   1.000  O
  O18      1.0000 0.03640  0.88490  0.31560  Biso   1.000  O
  N5       1.0000 0.40850  0.24600  0.50450  Biso   1.000  N
  N6       1.0000 0.35730  0.80300  0.70050  Biso   1.000  N
  C43      1.0000 0.07160  0.95790  0.29060  Biso   1.000  C
  C44      1.0000 0.13090  0.99710  0.42300  Biso   1.000  C
  H37      1.0000 0.16200  0.95040  0.47790  Biso   1.000  H
  H38      1.0000 0.16820  0.03690  0.37070  Biso   1.000  H
  H39      1.0000 0.10030  0.02880  0.50340  Biso   1.000  H
  C45      1.0000 0.14920  0.98430  0.39200  Biso   1.000  C
  H40      1.0000 0.15040  0.04750  0.40470  Biso   1.000  H
  H41      1.0000 0.14940  0.95680  0.50000  Biso   1.000  H
  H42      1.0000 0.19690  0.96550  0.33440  Biso   1.000  H
  Sm4      1.0000 0.95247  0.61636  0.54772  Biso   1.000  Sm
  Ag4      1.0000 0.47193  0.73823  0.10049  Biso   1.000  Ag
  C46      1.0000 0.83190  0.75090  0.79660  Biso   1.000  C
  C47      1.0000 0.74760  0.75010  0.86580  Biso   1.000  C
  C48      1.0000 0.70800  0.67100  0.89070  Biso   1.000  C
  H43      1.0000 0.73320  0.61780  0.86390  Biso   1.000  H
  C49      1.0000 0.63040  0.67100  0.95580  Biso   1.000  C
  H44      1.0000 0.60420  0.61710  0.97260  Biso   1.000  H
  C50      1.0000 0.63030  0.82220  0.96920  Biso   1.000  C
  H45      1.0000 0.60370  0.87470  0.99480  Biso   1.000  H
  C51      1.0000 0.70770  0.82700  0.90620  Biso   1.000  C
  H46      1.0000 0.73280  0.88160  0.89110  Biso   1.000  H
  C52      1.0000 0.86650  0.41690  0.63750  Biso   1.000  C
  C53      1.0000 0.78830  0.37570  0.69400  Biso   1.000  C
  C54      1.0000 0.71770  0.42610  0.70210  Biso   1.000  C
  H47      1.0000 0.71860  0.48570  0.67280  Biso   1.000  H
  C55      1.0000 0.64660  0.38860  0.75340  Biso   1.000  C
  H48      1.0000 0.59910  0.42330  0.75660  Biso   1.000  H
  C56      1.0000 0.71150  0.25450  0.79030  Biso   1.000  C
  H49      1.0000 0.70960  0.19520  0.82160  Biso   1.000  H
  C57      1.0000 0.78430  0.28730  0.73760  Biso   1.000  C
  H50      1.0000 0.83040  0.25100  0.73100  Biso   1.000  H
  O19      1.0000 0.85430  0.68433  0.71720  Biso   1.000  O
  O20      1.0000 0.87650  0.81870  0.82200  Biso   1.000  O
  O21      1.0000 0.86990  0.49950  0.63910  Biso   1.000  O
  O22      1.0000 0.92360  0.36550  0.59410  Biso   1.000  O
  O23      1.0000 0.94960  0.50127  0.33770  Biso   1.000  O
  O24      1.0000 0.96360  0.38490  0.18440  Biso   1.000  O
  N7       1.0000 0.59150  0.74600  0.99550  Biso   1.000  N
  N8       1.0000 0.64270  0.30300  0.79950  Biso   1.000  N
  C58      1.0000 0.92840  0.45790  0.20940  Biso   1.000  C
  C59      1.0000 0.86910  0.49710  0.07700  Biso   1.000  C
  H51      1.0000 0.83800  0.45040  0.02210  Biso   1.000  H
  H52      1.0000 0.83180  0.53690  0.12930  Biso   1.000  H
  H53      1.0000 0.89970  0.52880  0.99660  Biso   1.000  H
  C60      1.0000 0.85080  0.48430  0.10800  Biso   1.000  C
  H54      1.0000 0.84960  0.54750  0.09530  Biso   1.000  H
  H55      1.0000 0.85060  0.45680  0.00000  Biso   1.000  H
  H56      1.0000 0.80310  0.46550  0.16560  Biso   1.000  H
