data_image0
_cell_length_a       23.4939
_cell_length_b       23.4954
_cell_length_c       31.9724
_cell_angle_alpha    90
_cell_angle_beta     90
_cell_angle_gamma    90

_symmetry_space_group_name_H-M    "P 1"
_symmetry_int_tables_number       1

loop_
  _symmetry_equiv_pos_as_xyz
  'x, y, z'

loop_
  _atom_site_label
  _atom_site_occupancy
  _atom_site_fract_x
  _atom_site_fract_y
  _atom_site_fract_z
  _atom_site_thermal_displace_type
  _atom_site_B_iso_or_equiv
  _atom_site_type_symbol
  O1       1.0000 0.46901  0.09070  0.76008  Biso   1.000  O
  O2       1.0000 0.48221  0.06064  0.69547  Biso   1.000  O
  O3       1.0000 0.09071  0.46928  0.76009  Biso   1.000  O
  O4       1.0000 0.06053  0.48218  0.69505  Biso   1.000  O
  C1       1.0000 0.46801  0.09864  0.72049  Biso   1.000  C
  N1       1.0000 0.49150  0.50410  0.56224  Biso   1.000  N
  C2       1.0000 0.42675  0.42669  0.57532  Biso   1.000  C
  C3       1.0000 0.44880  0.15612  0.70376  Biso   1.000  C
  C4       1.0000 0.41064  0.26062  0.67391  Biso   1.000  C
  C5       1.0000 0.41435  0.41494  0.53498  Biso   1.000  C
  C6       1.0000 0.42860  0.19620  0.73139  Biso   1.000  C
  H1       1.0000 0.42830  0.18870  0.75990  Biso   1.000  H
  C7       1.0000 0.26056  0.41037  0.67403  Biso   1.000  C
  C8       1.0000 0.38794  0.31538  0.65700  Biso   1.000  C
  C9       1.0000 0.39504  0.39488  0.60981  Biso   1.000  C
  C10      1.0000 0.31525  0.38749  0.65673  Biso   1.000  C
  C11      1.0000 0.33919  0.33916  0.67228  Biso   1.000  C
  H2       1.0000 0.32130  0.32130  0.69460  Biso   1.000  H
  C12      1.0000 0.34448  0.41733  0.62529  Biso   1.000  C
  H3       1.0000 0.33030  0.45150  0.61500  Biso   1.000  H
  C13      1.0000 0.19720  0.42840  0.73094  Biso   1.000  C
  H4       1.0000 0.19040  0.42890  0.75960  Biso   1.000  H
  C14      1.0000 0.46738  0.46801  0.58890  Biso   1.000  C
  C15      1.0000 0.40808  0.24970  0.71579  Biso   1.000  C
  H5       1.0000 0.39320  0.27660  0.73410  Biso   1.000  H
  C16      1.0000 0.24837  0.40700  0.71620  Biso   1.000  C
  H6       1.0000 0.27430  0.39050  0.73450  Biso   1.000  H
  C17      1.0000 0.45170  0.16756  0.66157  Biso   1.000  C
  H7       1.0000 0.46550  0.14020  0.64320  Biso   1.000  H
  C18      1.0000 0.43390  0.22020  0.64655  Biso   1.000  C
  H8       1.0000 0.43750  0.22870  0.61820  Biso   1.000  H
  C19      1.0000 0.41790  0.34395  0.62525  Biso   1.000  C
  H9       1.0000 0.45190  0.32950  0.61480  Biso   1.000  H
  C20      1.0000 0.21928  0.43440  0.64656  Biso   1.000  C
  H10      1.0000 0.22720  0.43780  0.61820  Biso   1.000  H
  C21      1.0000 0.37367  0.37413  0.52128  Biso   1.000  C
  H11      1.0000 0.35110  0.35150  0.53840  Biso   1.000  H
  C22      1.0000 0.16787  0.45240  0.66208  Biso   1.000  C
  H12      1.0000 0.14070  0.46710  0.64390  Biso   1.000  H
  C23      1.0000 0.47986  0.48040  0.63120  Biso   1.000  C
  H13      1.0000 0.46290  0.46410  0.65460  Biso   1.000  H
  C24      1.0000 0.09880  0.46797  0.72120  Biso   1.000  C
  C25      1.0000 0.15580  0.44911  0.70378  Biso   1.000  C
  O5       1.0000 0.53099  0.90930  0.76008  Biso   1.000  O
  O6       1.0000 0.51779  0.93936  0.69547  Biso   1.000  O
  O7       1.0000 0.90929  0.53072  0.76009  Biso   1.000  O
  O8       1.0000 0.93947  0.51782  0.69505  Biso   1.000  O
  C26      1.0000 0.53199  0.90136  0.72049  Biso   1.000  C
  N2       1.0000 0.50850  0.49590  0.56224  Biso   1.000  N
  C27      1.0000 0.57325  0.57331  0.57532  Biso   1.000  C
  C28      1.0000 0.55120  0.84388  0.70376  Biso   1.000  C
  C29      1.0000 0.58936  0.73938  0.67391  Biso   1.000  C
  C30      1.0000 0.58565  0.58506  0.53498  Biso   1.000  C
  C31      1.0000 0.57140  0.80380  0.73139  Biso   1.000  C
  H14      1.0000 0.57170  0.81130  0.75990  Biso   1.000  H
  C32      1.0000 0.73944  0.58963  0.67403  Biso   1.000  C
  C33      1.0000 0.61206  0.68462  0.65700  Biso   1.000  C
  C34      1.0000 0.60496  0.60512  0.60981  Biso   1.000  C
  C35      1.0000 0.68475  0.61251  0.65673  Biso   1.000  C
  C36      1.0000 0.66081  0.66084  0.67228  Biso   1.000  C
  H15      1.0000 0.67870  0.67870  0.69460  Biso   1.000  H
  C37      1.0000 0.65552  0.58267  0.62529  Biso   1.000  C
  H16      1.0000 0.66970  0.54850  0.61500  Biso   1.000  H
  C38      1.0000 0.80280  0.57160  0.73094  Biso   1.000  C
  H17      1.0000 0.80960  0.57110  0.75960  Biso   1.000  H
  C39      1.0000 0.53262  0.53199  0.58890  Biso   1.000  C
  C40      1.0000 0.59192  0.75030  0.71579  Biso   1.000  C
  H18      1.0000 0.60680  0.72340  0.73410  Biso   1.000  H
  C41      1.0000 0.75163  0.59300  0.71620  Biso   1.000  C
  H19      1.0000 0.72570  0.60950  0.73450  Biso   1.000  H
  C42      1.0000 0.54830  0.83244  0.66157  Biso   1.000  C
  H20      1.0000 0.53450  0.85980  0.64320  Biso   1.000  H
  C43      1.0000 0.56610  0.77980  0.64655  Biso   1.000  C
  H21      1.0000 0.56250  0.77130  0.61820  Biso   1.000  H
  C44      1.0000 0.58210  0.65605  0.62525  Biso   1.000  C
  H22      1.0000 0.54810  0.67050  0.61480  Biso   1.000  H
  C45      1.0000 0.78072  0.56560  0.64656  Biso   1.000  C
  H23      1.0000 0.77280  0.56220  0.61820  Biso   1.000  H
  C46      1.0000 0.62633  0.62587  0.52128  Biso   1.000  C
  H24      1.0000 0.64890  0.64850  0.53840  Biso   1.000  H
  C47      1.0000 0.83213  0.54760  0.66208  Biso   1.000  C
  H25      1.0000 0.85930  0.53290  0.64390  Biso   1.000  H
  C48      1.0000 0.52014  0.51960  0.63120  Biso   1.000  C
  H26      1.0000 0.53710  0.53590  0.65460  Biso   1.000  H
  C49      1.0000 0.90120  0.53203  0.72120  Biso   1.000  C
  C50      1.0000 0.84420  0.55089  0.70378  Biso   1.000  C
  O9       1.0000 0.03099  0.59070  0.73992  Biso   1.000  O
  O10      1.0000 0.01779  0.56064  0.80453  Biso   1.000  O
  O11      1.0000 0.40929  0.96928  0.73991  Biso   1.000  O
  O12      1.0000 0.43947  0.98218  0.80495  Biso   1.000  O
  C51      1.0000 0.03199  0.59864  0.77951  Biso   1.000  C
  N3       1.0000 0.00850  0.00410  0.93776  Biso   1.000  N
  C52      1.0000 0.07325  0.92669  0.92468  Biso   1.000  C
  C53      1.0000 0.05120  0.65612  0.79624  Biso   1.000  C
  C54      1.0000 0.08936  0.76062  0.82609  Biso   1.000  C
  C55      1.0000 0.08565  0.91494  0.96502  Biso   1.000  C
  C56      1.0000 0.07140  0.69620  0.76861  Biso   1.000  C
  H27      1.0000 0.07170  0.68870  0.74010  Biso   1.000  H
  C57      1.0000 0.23944  0.91037  0.82597  Biso   1.000  C
  C58      1.0000 0.11206  0.81538  0.84300  Biso   1.000  C
  C59      1.0000 0.10496  0.89488  0.89019  Biso   1.000  C
  C60      1.0000 0.18475  0.88749  0.84327  Biso   1.000  C
  C61      1.0000 0.16081  0.83916  0.82772  Biso   1.000  C
  H28      1.0000 0.17870  0.82130  0.80540  Biso   1.000  H
  C62      1.0000 0.15552  0.91733  0.87471  Biso   1.000  C
  H29      1.0000 0.16970  0.95150  0.88500  Biso   1.000  H
  C63      1.0000 0.30280  0.92840  0.76906  Biso   1.000  C
  H30      1.0000 0.30960  0.92890  0.74040  Biso   1.000  H
  C64      1.0000 0.03262  0.96801  0.91110  Biso   1.000  C
  C65      1.0000 0.09192  0.74970  0.78421  Biso   1.000  C
  H31      1.0000 0.10680  0.77660  0.76590  Biso   1.000  H
  C66      1.0000 0.25163  0.90700  0.78380  Biso   1.000  C
  H32      1.0000 0.22570  0.89050  0.76550  Biso   1.000  H
  C67      1.0000 0.04830  0.66756  0.83843  Biso   1.000  C
  H33      1.0000 0.03450  0.64020  0.85680  Biso   1.000  H
  C68      1.0000 0.06610  0.72020  0.85345  Biso   1.000  C
  H34      1.0000 0.06250  0.72870  0.88180  Biso   1.000  H
  C69      1.0000 0.08210  0.84395  0.87475  Biso   1.000  C
  H35      1.0000 0.04810  0.82950  0.88520  Biso   1.000  H
  C70      1.0000 0.28072  0.93440  0.85344  Biso   1.000  C
  H36      1.0000 0.27280  0.93780  0.88180  Biso   1.000  H
  C71      1.0000 0.12633  0.87413  0.97872  Biso   1.000  C
  H37      1.0000 0.14890  0.85150  0.96160  Biso   1.000  H
  C72      1.0000 0.33213  0.95240  0.83792  Biso   1.000  C
  H38      1.0000 0.35930  0.96710  0.85610  Biso   1.000  H
  C73      1.0000 0.02014  0.98040  0.86880  Biso   1.000  C
  H39      1.0000 0.03710  0.96410  0.84540  Biso   1.000  H
  C74      1.0000 0.40120  0.96797  0.77880  Biso   1.000  C
  C75      1.0000 0.34420  0.94911  0.79622  Biso   1.000  C
  O13      1.0000 0.96901  0.40930  0.73992  Biso   1.000  O
  O14      1.0000 0.98221  0.43936  0.80453  Biso   1.000  O
  O15      1.0000 0.59071  0.03072  0.73991  Biso   1.000  O
  O16      1.0000 0.56053  0.01782  0.80495  Biso   1.000  O
  C76      1.0000 0.96801  0.40136  0.77951  Biso   1.000  C
  N4       1.0000 0.99150  0.99590  0.93776  Biso   1.000  N
  C77      1.0000 0.92675  0.07331  0.92468  Biso   1.000  C
  C78      1.0000 0.94880  0.34388  0.79624  Biso   1.000  C
  C79      1.0000 0.91064  0.23938  0.82609  Biso   1.000  C
  C80      1.0000 0.91435  0.08506  0.96502  Biso   1.000  C
  C81      1.0000 0.92860  0.30380  0.76861  Biso   1.000  C
  H40      1.0000 0.92830  0.31130  0.74010  Biso   1.000  H
  C82      1.0000 0.76056  0.08963  0.82597  Biso   1.000  C
  C83      1.0000 0.88794  0.18462  0.84300  Biso   1.000  C
  C84      1.0000 0.89504  0.10512  0.89019  Biso   1.000  C
  C85      1.0000 0.81525  0.11251  0.84327  Biso   1.000  C
  C86      1.0000 0.83919  0.16084  0.82772  Biso   1.000  C
  H41      1.0000 0.82130  0.17870  0.80540  Biso   1.000  H
  C87      1.0000 0.84448  0.08267  0.87471  Biso   1.000  C
  H42      1.0000 0.83030  0.04850  0.88500  Biso   1.000  H
  C88      1.0000 0.69720  0.07160  0.76906  Biso   1.000  C
  H43      1.0000 0.69040  0.07110  0.74040  Biso   1.000  H
  C89      1.0000 0.96738  0.03199  0.91110  Biso   1.000  C
  C90      1.0000 0.90808  0.25030  0.78421  Biso   1.000  C
  H44      1.0000 0.89320  0.22340  0.76590  Biso   1.000  H
  C91      1.0000 0.74837  0.09300  0.78380  Biso   1.000  C
  H45      1.0000 0.77430  0.10950  0.76550  Biso   1.000  H
  C92      1.0000 0.95170  0.33244  0.83843  Biso   1.000  C
  H46      1.0000 0.96550  0.35980  0.85680  Biso   1.000  H
  C93      1.0000 0.93390  0.27980  0.85345  Biso   1.000  C
  H47      1.0000 0.93750  0.27130  0.88180  Biso   1.000  H
  C94      1.0000 0.91790  0.15605  0.87475  Biso   1.000  C
  H48      1.0000 0.95190  0.17050  0.88520  Biso   1.000  H
  C95      1.0000 0.71928  0.06560  0.85344  Biso   1.000  C
  H49      1.0000 0.72720  0.06220  0.88180  Biso   1.000  H
  C96      1.0000 0.87367  0.12587  0.97872  Biso   1.000  C
  H50      1.0000 0.85110  0.14850  0.96160  Biso   1.000  H
  C97      1.0000 0.66787  0.04760  0.83792  Biso   1.000  C
  H51      1.0000 0.64070  0.03290  0.85610  Biso   1.000  H
  C98      1.0000 0.97986  0.01960  0.86880  Biso   1.000  C
  H52      1.0000 0.96290  0.03590  0.84540  Biso   1.000  H
  C99      1.0000 0.59880  0.03203  0.77880  Biso   1.000  C
  C100     1.0000 0.65580  0.05089  0.79622  Biso   1.000  C
  O17      1.0000 0.53099  0.90930  0.23992  Biso   1.000  O
  O18      1.0000 0.51779  0.93936  0.30453  Biso   1.000  O
  O19      1.0000 0.90929  0.53072  0.23991  Biso   1.000  O
  O20      1.0000 0.93947  0.51782  0.30495  Biso   1.000  O
  C101     1.0000 0.53199  0.90136  0.27951  Biso   1.000  C
  N5       1.0000 0.50850  0.49590  0.43776  Biso   1.000  N
  C102     1.0000 0.57325  0.57331  0.42468  Biso   1.000  C
  C103     1.0000 0.55120  0.84388  0.29624  Biso   1.000  C
  C104     1.0000 0.58936  0.73938  0.32609  Biso   1.000  C
  C105     1.0000 0.58565  0.58506  0.46502  Biso   1.000  C
  C106     1.0000 0.57140  0.80380  0.26861  Biso   1.000  C
  H53      1.0000 0.57170  0.81130  0.24010  Biso   1.000  H
  C107     1.0000 0.73944  0.58963  0.32597  Biso   1.000  C
  C108     1.0000 0.61206  0.68462  0.34300  Biso   1.000  C
  C109     1.0000 0.60496  0.60512  0.39019  Biso   1.000  C
  C110     1.0000 0.68475  0.61251  0.34327  Biso   1.000  C
  C111     1.0000 0.66081  0.66084  0.32772  Biso   1.000  C
  H54      1.0000 0.67870  0.67870  0.30540  Biso   1.000  H
  C112     1.0000 0.65552  0.58267  0.37471  Biso   1.000  C
  H55      1.0000 0.66970  0.54850  0.38500  Biso   1.000  H
  C113     1.0000 0.80280  0.57160  0.26906  Biso   1.000  C
  H56      1.0000 0.80960  0.57110  0.24040  Biso   1.000  H
  C114     1.0000 0.53262  0.53199  0.41110  Biso   1.000  C
  C115     1.0000 0.59192  0.75030  0.28421  Biso   1.000  C
  H57      1.0000 0.60680  0.72340  0.26590  Biso   1.000  H
  C116     1.0000 0.75163  0.59300  0.28380  Biso   1.000  C
  H58      1.0000 0.72570  0.60950  0.26550  Biso   1.000  H
  C117     1.0000 0.54830  0.83244  0.33843  Biso   1.000  C
  H59      1.0000 0.53450  0.85980  0.35680  Biso   1.000  H
  C118     1.0000 0.56610  0.77980  0.35345  Biso   1.000  C
  H60      1.0000 0.56250  0.77130  0.38180  Biso   1.000  H
  C119     1.0000 0.58210  0.65605  0.37475  Biso   1.000  C
  H61      1.0000 0.54810  0.67050  0.38520  Biso   1.000  H
  C120     1.0000 0.78072  0.56560  0.35344  Biso   1.000  C
  H62      1.0000 0.77280  0.56220  0.38180  Biso   1.000  H
  C121     1.0000 0.62633  0.62587  0.47872  Biso   1.000  C
  H63      1.0000 0.64890  0.64850  0.46160  Biso   1.000  H
  C122     1.0000 0.83213  0.54760  0.33792  Biso   1.000  C
  H64      1.0000 0.85930  0.53290  0.35610  Biso   1.000  H
  C123     1.0000 0.52014  0.51960  0.36880  Biso   1.000  C
  H65      1.0000 0.53710  0.53590  0.34540  Biso   1.000  H
  C124     1.0000 0.90120  0.53203  0.27880  Biso   1.000  C
  C125     1.0000 0.84420  0.55089  0.29622  Biso   1.000  C
  O21      1.0000 0.46901  0.09070  0.23992  Biso   1.000  O
  O22      1.0000 0.48221  0.06064  0.30453  Biso   1.000  O
  O23      1.0000 0.09071  0.46928  0.23991  Biso   1.000  O
  O24      1.0000 0.06053  0.48218  0.30495  Biso   1.000  O
  C126     1.0000 0.46801  0.09864  0.27951  Biso   1.000  C
  N6       1.0000 0.49150  0.50410  0.43776  Biso   1.000  N
  C127     1.0000 0.42675  0.42669  0.42468  Biso   1.000  C
  C128     1.0000 0.44880  0.15612  0.29624  Biso   1.000  C
  C129     1.0000 0.41064  0.26062  0.32609  Biso   1.000  C
  C130     1.0000 0.41435  0.41494  0.46502  Biso   1.000  C
  C131     1.0000 0.42860  0.19620  0.26861  Biso   1.000  C
  H66      1.0000 0.42830  0.18870  0.24010  Biso   1.000  H
  C132     1.0000 0.26056  0.41037  0.32597  Biso   1.000  C
  C133     1.0000 0.38794  0.31538  0.34300  Biso   1.000  C
  C134     1.0000 0.39504  0.39488  0.39019  Biso   1.000  C
  C135     1.0000 0.31525  0.38749  0.34327  Biso   1.000  C
  C136     1.0000 0.33919  0.33916  0.32772  Biso   1.000  C
  H67      1.0000 0.32130  0.32130  0.30540  Biso   1.000  H
  C137     1.0000 0.34448  0.41733  0.37471  Biso   1.000  C
  H68      1.0000 0.33030  0.45150  0.38500  Biso   1.000  H
  C138     1.0000 0.19720  0.42840  0.26906  Biso   1.000  C
  H69      1.0000 0.19040  0.42890  0.24040  Biso   1.000  H
  C139     1.0000 0.46738  0.46801  0.41110  Biso   1.000  C
  C140     1.0000 0.40808  0.24970  0.28421  Biso   1.000  C
  H70      1.0000 0.39320  0.27660  0.26590  Biso   1.000  H
  C141     1.0000 0.24837  0.40700  0.28380  Biso   1.000  C
  H71      1.0000 0.27430  0.39050  0.26550  Biso   1.000  H
  C142     1.0000 0.45170  0.16756  0.33843  Biso   1.000  C
  H72      1.0000 0.46550  0.14020  0.35680  Biso   1.000  H
  C143     1.0000 0.43390  0.22020  0.35345  Biso   1.000  C
  H73      1.0000 0.43750  0.22870  0.38180  Biso   1.000  H
  C144     1.0000 0.41790  0.34395  0.37475  Biso   1.000  C
  H74      1.0000 0.45190  0.32950  0.38520  Biso   1.000  H
  C145     1.0000 0.21928  0.43440  0.35344  Biso   1.000  C
  H75      1.0000 0.22720  0.43780  0.38180  Biso   1.000  H
  C146     1.0000 0.37367  0.37413  0.47872  Biso   1.000  C
  H76      1.0000 0.35110  0.35150  0.46160  Biso   1.000  H
  C147     1.0000 0.16787  0.45240  0.33792  Biso   1.000  C
  H77      1.0000 0.14070  0.46710  0.35610  Biso   1.000  H
  C148     1.0000 0.47986  0.48040  0.36880  Biso   1.000  C
  H78      1.0000 0.46290  0.46410  0.34540  Biso   1.000  H
  C149     1.0000 0.09880  0.46797  0.27880  Biso   1.000  C
  C150     1.0000 0.15580  0.44911  0.29622  Biso   1.000  C
  O25      1.0000 0.96901  0.40930  0.26008  Biso   1.000  O
  O26      1.0000 0.98221  0.43936  0.19547  Biso   1.000  O
  O27      1.0000 0.59071  0.03072  0.26009  Biso   1.000  O
  O28      1.0000 0.56053  0.01782  0.19505  Biso   1.000  O
  C151     1.0000 0.96801  0.40136  0.22049  Biso   1.000  C
  N7       1.0000 0.99150  0.99590  0.06224  Biso   1.000  N
  C152     1.0000 0.92675  0.07331  0.07532  Biso   1.000  C
  C153     1.0000 0.94880  0.34388  0.20376  Biso   1.000  C
  C154     1.0000 0.91064  0.23938  0.17391  Biso   1.000  C
  C155     1.0000 0.91435  0.08506  0.03498  Biso   1.000  C
  C156     1.0000 0.92860  0.30380  0.23139  Biso   1.000  C
  H79      1.0000 0.92830  0.31130  0.25990  Biso   1.000  H
  C157     1.0000 0.76056  0.08963  0.17403  Biso   1.000  C
  C158     1.0000 0.88794  0.18462  0.15700  Biso   1.000  C
  C159     1.0000 0.89504  0.10512  0.10981  Biso   1.000  C
  C160     1.0000 0.81525  0.11251  0.15673  Biso   1.000  C
  C161     1.0000 0.83919  0.16084  0.17228  Biso   1.000  C
  H80      1.0000 0.82130  0.17870  0.19460  Biso   1.000  H
  C162     1.0000 0.84448  0.08267  0.12529  Biso   1.000  C
  H81      1.0000 0.83030  0.04850  0.11500  Biso   1.000  H
  C163     1.0000 0.69720  0.07160  0.23094  Biso   1.000  C
  H82      1.0000 0.69040  0.07110  0.25960  Biso   1.000  H
  C164     1.0000 0.96738  0.03199  0.08890  Biso   1.000  C
  C165     1.0000 0.90808  0.25030  0.21579  Biso   1.000  C
  H83      1.0000 0.89320  0.22340  0.23410  Biso   1.000  H
  C166     1.0000 0.74837  0.09300  0.21620  Biso   1.000  C
  H84      1.0000 0.77430  0.10950  0.23450  Biso   1.000  H
  C167     1.0000 0.95170  0.33244  0.16157  Biso   1.000  C
  H85      1.0000 0.96550  0.35980  0.14320  Biso   1.000  H
  C168     1.0000 0.93390  0.27980  0.14655  Biso   1.000  C
  H86      1.0000 0.93750  0.27130  0.11820  Biso   1.000  H
  C169     1.0000 0.91790  0.15605  0.12525  Biso   1.000  C
  H87      1.0000 0.95190  0.17050  0.11480  Biso   1.000  H
  C170     1.0000 0.71928  0.06560  0.14656  Biso   1.000  C
  H88      1.0000 0.72720  0.06220  0.11820  Biso   1.000  H
  C171     1.0000 0.87367  0.12587  0.02128  Biso   1.000  C
  H89      1.0000 0.85110  0.14850  0.03840  Biso   1.000  H
  C172     1.0000 0.66787  0.04760  0.16208  Biso   1.000  C
  H90      1.0000 0.64070  0.03290  0.14390  Biso   1.000  H
  C173     1.0000 0.97986  0.01960  0.13120  Biso   1.000  C
  H91      1.0000 0.96290  0.03590  0.15460  Biso   1.000  H
  C174     1.0000 0.59880  0.03203  0.22120  Biso   1.000  C
  C175     1.0000 0.65580  0.05089  0.20378  Biso   1.000  C
  O29      1.0000 0.03099  0.59070  0.26008  Biso   1.000  O
  O30      1.0000 0.01779  0.56064  0.19547  Biso   1.000  O
  O31      1.0000 0.40929  0.96928  0.26009  Biso   1.000  O
  O32      1.0000 0.43947  0.98218  0.19505  Biso   1.000  O
  C176     1.0000 0.03199  0.59864  0.22049  Biso   1.000  C
  N8       1.0000 0.00850  0.00410  0.06224  Biso   1.000  N
  C177     1.0000 0.07325  0.92669  0.07532  Biso   1.000  C
  C178     1.0000 0.05120  0.65612  0.20376  Biso   1.000  C
  C179     1.0000 0.08936  0.76062  0.17391  Biso   1.000  C
  C180     1.0000 0.08565  0.91494  0.03498  Biso   1.000  C
  C181     1.0000 0.07140  0.69620  0.23139  Biso   1.000  C
  H92      1.0000 0.07170  0.68870  0.25990  Biso   1.000  H
  C182     1.0000 0.23944  0.91037  0.17403  Biso   1.000  C
  C183     1.0000 0.11206  0.81538  0.15700  Biso   1.000  C
  C184     1.0000 0.10496  0.89488  0.10981  Biso   1.000  C
  C185     1.0000 0.18475  0.88749  0.15673  Biso   1.000  C
  C186     1.0000 0.16081  0.83916  0.17228  Biso   1.000  C
  H93      1.0000 0.17870  0.82130  0.19460  Biso   1.000  H
  C187     1.0000 0.15552  0.91733  0.12529  Biso   1.000  C
  H94      1.0000 0.16970  0.95150  0.11500  Biso   1.000  H
  C188     1.0000 0.30280  0.92840  0.23094  Biso   1.000  C
  H95      1.0000 0.30960  0.92890  0.25960  Biso   1.000  H
  C189     1.0000 0.03262  0.96801  0.08890  Biso   1.000  C
  C190     1.0000 0.09192  0.74970  0.21579  Biso   1.000  C
  H96      1.0000 0.10680  0.77660  0.23410  Biso   1.000  H
  C191     1.0000 0.25163  0.90700  0.21620  Biso   1.000  C
  H97      1.0000 0.22570  0.89050  0.23450  Biso   1.000  H
  C192     1.0000 0.04830  0.66756  0.16157  Biso   1.000  C
  H98      1.0000 0.03450  0.64020  0.14320  Biso   1.000  H
  C193     1.0000 0.06610  0.72020  0.14655  Biso   1.000  C
  H99      1.0000 0.06250  0.72870  0.11820  Biso   1.000  H
  C194     1.0000 0.08210  0.84395  0.12525  Biso   1.000  C
  H100     1.0000 0.04810  0.82950  0.11480  Biso   1.000  H
  C195     1.0000 0.28072  0.93440  0.14656  Biso   1.000  C
  H101     1.0000 0.27280  0.93780  0.11820  Biso   1.000  H
  C196     1.0000 0.12633  0.87413  0.02128  Biso   1.000  C
  H102     1.0000 0.14890  0.85150  0.03840  Biso   1.000  H
  C197     1.0000 0.33213  0.95240  0.16208  Biso   1.000  C
  H103     1.0000 0.35930  0.96710  0.14390  Biso   1.000  H
  C198     1.0000 0.02014  0.98040  0.13120  Biso   1.000  C
  H104     1.0000 0.03710  0.96410  0.15460  Biso   1.000  H
  C199     1.0000 0.40120  0.96797  0.22120  Biso   1.000  C
  C200     1.0000 0.34420  0.94911  0.20378  Biso   1.000  C
  In1      1.0000 0.50000  0.00000  0.75001  Biso   1.000  In
  In2      1.0000 0.00000  0.50000  0.74999  Biso   1.000  In
  In3      1.0000 0.50000  0.00000  0.24999  Biso   1.000  In
  In4      1.0000 0.00000  0.50000  0.25001  Biso   1.000  In
  Mn1      1.0000 0.50000  0.50000  0.50000  Biso   1.000  Mn
  Mn2      1.0000 0.00000  0.00000  0.00000  Biso   1.000  Mn
  N9       1.0000 0.43851  0.43921  0.50000  Biso   1.000  N
  N10      1.0000 0.56149  0.56079  0.50000  Biso   1.000  N
  N11      1.0000 0.06149  0.93921  0.00000  Biso   1.000  N
  N12      1.0000 0.93851  0.06079  0.00000  Biso   1.000  N
