data_image0
_cell_length_a       23.9836
_cell_length_b       7.3271
_cell_length_c       22.6809
_cell_angle_alpha    90
_cell_angle_beta     94.4257
_cell_angle_gamma    90

_symmetry_space_group_name_H-M    "P 1"
_symmetry_int_tables_number       1

loop_
  _symmetry_equiv_pos_as_xyz
  'x, y, z'

loop_
  _atom_site_label
  _atom_site_occupancy
  _atom_site_fract_x
  _atom_site_fract_y
  _atom_site_fract_z
  _atom_site_thermal_displace_type
  _atom_site_B_iso_or_equiv
  _atom_site_type_symbol
  Co1      1.0000 0.45296  0.02347  0.23954  Biso   1.000  Co
  Co2      1.0000 0.70898  0.98381  0.49718  Biso   1.000  Co
  N1       1.0000 0.27918  0.98260  0.44658  Biso   1.000  N
  N2       1.0000 0.33690  0.14530  0.37770  Biso   1.000  N
  N3       1.0000 0.38584  0.01990  0.29474  Biso   1.000  N
  N4       1.0000 0.50206  0.13380  0.31233  Biso   1.000  N
  N5       1.0000 0.55339  0.24400  0.40377  Biso   1.000  N
  N6       1.0000 0.63870  0.10010  0.45012  Biso   1.000  N
  N7       1.0000 0.77978  0.86750  0.54269  Biso   1.000  N
  N8       1.0000 0.87084  0.72740  0.57243  Biso   1.000  N
  N9       1.0000 0.90600  0.59350  0.66723  Biso   1.000  N
  N10      1.0000 0.66067  0.94330  0.56980  Biso   1.000  N
  N11      1.0000 0.61244  0.84160  0.65572  Biso   1.000  N
  N12      1.0000 0.52420  0.95480  0.69062  Biso   1.000  N
  N13      1.0000 0.75691  0.02680  0.42431  Biso   1.000  N
  N14      1.0000 0.79811  0.14850  0.33595  Biso   1.000  N
  N15      1.0000 0.88281  0.03530  0.29320  Biso   1.000  N
  C1       1.0000 0.30902  0.04440  0.41469  Biso   1.000  C
  C2       1.0000 0.36385  0.06330  0.33577  Biso   1.000  C
  C3       1.0000 0.52810  0.18080  0.35482  Biso   1.000  C
  C4       1.0000 0.59893  0.16340  0.42615  Biso   1.000  C
  C5       1.0000 0.82135  0.79850  0.55973  Biso   1.000  C
  C6       1.0000 0.88662  0.65960  0.62471  Biso   1.000  C
  C7       1.0000 0.63568  0.90250  0.60908  Biso   1.000  C
  C8       1.0000 0.56523  0.90770  0.67179  Biso   1.000  C
  C9       1.0000 0.77826  0.07760  0.38380  Biso   1.000  C
  C10      1.0000 0.84342  0.08260  0.31572  Biso   1.000  C
  N16      1.0000 0.34960  0.11000  0.38820  Biso   1.000  N
  Co3      1.0000 0.95296  0.52347  0.23954  Biso   1.000  Co
  Co4      1.0000 0.20898  0.48381  0.49718  Biso   1.000  Co
  N17      1.0000 0.77918  0.48260  0.44658  Biso   1.000  N
  N18      1.0000 0.83690  0.64530  0.37770  Biso   1.000  N
  N19      1.0000 0.88584  0.51990  0.29474  Biso   1.000  N
  N20      1.0000 0.00206  0.63380  0.31233  Biso   1.000  N
  N21      1.0000 0.05339  0.74400  0.40377  Biso   1.000  N
  N22      1.0000 0.13870  0.60010  0.45012  Biso   1.000  N
  N23      1.0000 0.27978  0.36750  0.54269  Biso   1.000  N
  N24      1.0000 0.37084  0.22740  0.57243  Biso   1.000  N
  N25      1.0000 0.40600  0.09350  0.66723  Biso   1.000  N
  N26      1.0000 0.16067  0.44330  0.56980  Biso   1.000  N
  N27      1.0000 0.11244  0.34160  0.65572  Biso   1.000  N
  N28      1.0000 0.02420  0.45480  0.69062  Biso   1.000  N
  N29      1.0000 0.25691  0.52680  0.42431  Biso   1.000  N
  N30      1.0000 0.29811  0.64850  0.33595  Biso   1.000  N
  N31      1.0000 0.38281  0.53530  0.29320  Biso   1.000  N
  C11      1.0000 0.80902  0.54440  0.41469  Biso   1.000  C
  C12      1.0000 0.86385  0.56330  0.33577  Biso   1.000  C
  C13      1.0000 0.02810  0.68080  0.35482  Biso   1.000  C
  C14      1.0000 0.09893  0.66340  0.42615  Biso   1.000  C
  C15      1.0000 0.32135  0.29850  0.55973  Biso   1.000  C
  C16      1.0000 0.38662  0.15960  0.62471  Biso   1.000  C
  C17      1.0000 0.13568  0.40250  0.60908  Biso   1.000  C
  C18      1.0000 0.06523  0.40770  0.67179  Biso   1.000  C
  C19      1.0000 0.27826  0.57760  0.38380  Biso   1.000  C
  C20      1.0000 0.34342  0.58260  0.31572  Biso   1.000  C
  N32      1.0000 0.84960  0.61000  0.38820  Biso   1.000  N
  Co5      1.0000 0.45296  0.97653  0.73954  Biso   1.000  Co
  Co6      1.0000 0.70898  0.01619  0.99718  Biso   1.000  Co
  N33      1.0000 0.27918  0.01740  0.94658  Biso   1.000  N
  N34      1.0000 0.33690  0.85470  0.87770  Biso   1.000  N
  N35      1.0000 0.38584  0.98010  0.79474  Biso   1.000  N
  N36      1.0000 0.50206  0.86620  0.81233  Biso   1.000  N
  N37      1.0000 0.55339  0.75600  0.90377  Biso   1.000  N
  N38      1.0000 0.63870  0.89990  0.95012  Biso   1.000  N
  N39      1.0000 0.77978  0.13250  0.04269  Biso   1.000  N
  N40      1.0000 0.87084  0.27260  0.07243  Biso   1.000  N
  N41      1.0000 0.90600  0.40650  0.16723  Biso   1.000  N
  N42      1.0000 0.66067  0.05670  0.06980  Biso   1.000  N
  N43      1.0000 0.61244  0.15840  0.15572  Biso   1.000  N
  N44      1.0000 0.52420  0.04520  0.19062  Biso   1.000  N
  N45      1.0000 0.75691  0.97320  0.92431  Biso   1.000  N
  N46      1.0000 0.79811  0.85150  0.83595  Biso   1.000  N
  N47      1.0000 0.88281  0.96470  0.79320  Biso   1.000  N
  C21      1.0000 0.30902  0.95560  0.91469  Biso   1.000  C
  C22      1.0000 0.36385  0.93670  0.83577  Biso   1.000  C
  C23      1.0000 0.52810  0.81920  0.85482  Biso   1.000  C
  C24      1.0000 0.59893  0.83660  0.92615  Biso   1.000  C
  C25      1.0000 0.82135  0.20150  0.05973  Biso   1.000  C
  C26      1.0000 0.88662  0.34040  0.12471  Biso   1.000  C
  C27      1.0000 0.63568  0.09750  0.10908  Biso   1.000  C
  C28      1.0000 0.56523  0.09230  0.17179  Biso   1.000  C
  C29      1.0000 0.77826  0.92240  0.88380  Biso   1.000  C
  C30      1.0000 0.84342  0.91740  0.81572  Biso   1.000  C
  N48      1.0000 0.34960  0.89000  0.88820  Biso   1.000  N
  Co7      1.0000 0.95296  0.47653  0.73954  Biso   1.000  Co
  Co8      1.0000 0.20898  0.51619  0.99718  Biso   1.000  Co
  N49      1.0000 0.77918  0.51740  0.94658  Biso   1.000  N
  N50      1.0000 0.83690  0.35470  0.87770  Biso   1.000  N
  N51      1.0000 0.88584  0.48010  0.79474  Biso   1.000  N
  N52      1.0000 0.00206  0.36620  0.81233  Biso   1.000  N
  N53      1.0000 0.05339  0.25600  0.90377  Biso   1.000  N
  N54      1.0000 0.13870  0.39990  0.95012  Biso   1.000  N
  N55      1.0000 0.27978  0.63250  0.04269  Biso   1.000  N
  N56      1.0000 0.37084  0.77260  0.07243  Biso   1.000  N
  N57      1.0000 0.40600  0.90650  0.16723  Biso   1.000  N
  N58      1.0000 0.16067  0.55670  0.06980  Biso   1.000  N
  N59      1.0000 0.11244  0.65840  0.15572  Biso   1.000  N
  N60      1.0000 0.02420  0.54520  0.19062  Biso   1.000  N
  N61      1.0000 0.25691  0.47320  0.92431  Biso   1.000  N
  N62      1.0000 0.29811  0.35150  0.83595  Biso   1.000  N
  N63      1.0000 0.38281  0.46470  0.79320  Biso   1.000  N
  C31      1.0000 0.80902  0.45560  0.91469  Biso   1.000  C
  C32      1.0000 0.86385  0.43670  0.83577  Biso   1.000  C
  C33      1.0000 0.02810  0.31920  0.85482  Biso   1.000  C
  C34      1.0000 0.09893  0.33660  0.92615  Biso   1.000  C
  C35      1.0000 0.32135  0.70150  0.05973  Biso   1.000  C
  C36      1.0000 0.38662  0.84040  0.12471  Biso   1.000  C
  C37      1.0000 0.13568  0.59750  0.10908  Biso   1.000  C
  C38      1.0000 0.06523  0.59230  0.17179  Biso   1.000  C
  C39      1.0000 0.27826  0.42240  0.88380  Biso   1.000  C
  C40      1.0000 0.34342  0.41740  0.81572  Biso   1.000  C
  N64      1.0000 0.84960  0.39000  0.88820  Biso   1.000  N
