data_image0
_cell_length_a       13.9971
_cell_length_b       14.5785
_cell_length_c       14.7621
_cell_angle_alpha    97.325
_cell_angle_beta     98.477
_cell_angle_gamma    100.96

_symmetry_space_group_name_H-M    "P 1"
_symmetry_int_tables_number       1

loop_
  _symmetry_equiv_pos_as_xyz
  'x, y, z'

loop_
  _atom_site_label
  _atom_site_occupancy
  _atom_site_fract_x
  _atom_site_fract_y
  _atom_site_fract_z
  _atom_site_thermal_displace_type
  _atom_site_B_iso_or_equiv
  _atom_site_type_symbol
  W1       1.0000 0.32531  0.48413  0.69041  Biso   1.000  W
  W2       1.0000 0.24966  0.49383  0.89671  Biso   1.000  W
  W3       1.0000 0.10764  0.54461  0.71119  Biso   1.000  W
  W4       1.0000 0.24895  0.71866  0.03445  Biso   1.000  W
  W5       1.0000 0.10296  0.77630  0.85517  Biso   1.000  W
  W6       1.0000 0.32131  0.92079  0.95451  Biso   1.000  W
  W7       1.0000 0.25529  0.88662  0.70047  Biso   1.000  W
  W8       1.0000 0.26376  0.68075  0.57466  Biso   1.000  W
  W9       1.0000 0.48034  0.83265  0.68548  Biso   1.000  W
  Co1      1.0000 0.48130  0.65719  0.00064  Biso   1.000  Co
  Co2      1.0000 0.55532  0.65505  0.80748  Biso   1.000  Co
  Co3      1.0000 0.55445  0.84427  0.92390  Biso   1.000  Co
  Co4      1.0000 0.26917  0.30875  0.03876  Biso   1.000  Co
  Co5      1.0000 0.65440  0.87310  0.53032  Biso   1.000  Co
  Si1      1.0000 0.33383  0.70845  0.82207  Biso   1.000  Si
  O1       1.0000 0.44890  0.53860  0.74450  Biso   1.000  O
  O2       1.0000 0.28920  0.42220  0.79150  Biso   1.000  O
  O3       1.0000 0.32000  0.57950  0.60700  Biso   1.000  O
  O4       1.0000 0.17800  0.46260  0.65000  Biso   1.000  O
  O5       1.0000 0.27480  0.59680  0.78950  Biso   1.000  O
  O6       1.0000 0.21060  0.39990  0.95450  Biso   1.000  O
  O7       1.0000 0.37500  0.53710  0.94960  Biso   1.000  O
  O8       1.0000 0.20760  0.59350  0.96480  Biso   1.000  O
  O9       1.0000 0.11850  0.47730  0.81100  Biso   1.000  O
  O10      1.0000 0.08180  0.64850  0.79010  Biso   1.000  O
  O11      1.0000 0.15470  0.63140  0.63320  Biso   1.000  O
  O12      1.0000 0.20870  0.70200  0.13750  Biso   1.000  O
  O13      1.0000 0.37400  0.70790  0.05610  Biso   1.000  O
  O14      1.0000 0.28280  0.85560  0.05360  Biso   1.000  O
  O15      1.0000 0.11330  0.73280  0.96810  Biso   1.000  O
  O16      1.0000 0.27210  0.76220  0.89140  Biso   1.000  O
  O17      1.0000 0.17150  0.89760  0.91580  Biso   1.000  O
  O18      1.0000 0.15030  0.81620  0.74700  Biso   1.000  O
  O19      1.0000 0.33760  0.03650  0.01100  Biso   1.000  O
  O20      1.0000 0.44270  0.90110  0.96850  Biso   1.000  O
  O21      1.0000 0.31610  0.93860  0.82740  Biso   1.000  O
  O22      1.0000 0.38210  0.91800  0.66770  Biso   1.000  O
  O23      1.0000 0.21300  0.79690  0.58880  Biso   1.000  O
  O24      1.0000 0.33610  0.75950  0.72830  Biso   1.000  O
  O25      1.0000 0.38490  0.75370  0.56640  Biso   1.000  O
  O26      1.0000 0.56250  0.89040  0.62070  Biso   1.000  O
  O27      1.0000 0.52600  0.89330  0.80030  Biso   1.000  O
  O28      1.0000 0.52430  0.72560  0.69810  Biso   1.000  O
  O29      1.0000 0.51920  0.60860  0.12130  Biso   1.000  O
  O30      1.0000 0.41390  0.38940  0.06500  Biso   1.000  O
  O31      1.0000 0.42890  0.21100  0.95040  Biso   1.000  O
  O32      1.0000 0.44690  0.71450  0.87380  Biso   1.000  O
  O33      1.0000 0.34470  0.22860  0.11910  Biso   1.000  O
  O34      1.0000 0.34550  0.39590  0.26840  Biso   1.000  O
  O35      1.0000 0.27460  0.23250  0.91080  Biso   1.000  O
  O36      1.0000 0.22180  0.38040  0.14900  Biso   1.000  O
  O37      1.0000 0.23100  0.11900  0.55100  Biso   1.000  O
  O38      1.0000 0.28400  0.19390  0.57300  Biso   1.000  O
  O39      1.0000 0.55600  0.75080  0.45680  Biso   1.000  O
  C1       1.0000 0.25840  0.39430  0.23490  Biso   1.000  C
  C2       1.0000 0.18550  0.41140  0.30010  Biso   1.000  C
  H1       1.0000 0.15920  0.46730  0.28590  Biso   1.000  H
  H2       1.0000 0.12920  0.35610  0.28650  Biso   1.000  H
  C3       1.0000 0.22670  0.42680  0.40020  Biso   1.000  C
  H3       1.0000 0.27740  0.48640  0.41680  Biso   1.000  H
  H4       1.0000 0.25860  0.37410  0.41500  Biso   1.000  H
  N1       1.0000 0.14530  0.43200  0.45530  Biso   1.000  N
  H5       1.0000 0.10730  0.47080  0.43240  Biso   1.000  H
  H6       1.0000 0.17200  0.45520  0.51580  Biso   1.000  H
  H7       1.0000 0.10730  0.37300  0.45110  Biso   1.000  H
  C4       1.0000 0.35000  0.20670  0.89120  Biso   1.000  C
  C5       1.0000 0.35130  0.16910  0.79240  Biso   1.000  C
  H8       1.0000 0.32580  0.21230  0.75300  Biso   1.000  H
  H9       1.0000 0.30450  0.10700  0.77550  Biso   1.000  H
  C6       1.0000 0.45100  0.15620  0.76780  Biso   1.000  C
  H10      1.0000 0.49760  0.21840  0.78000  Biso   1.000  H
  H11      1.0000 0.44210  0.13110  0.70090  Biso   1.000  H
  N2       1.0000 0.49500  0.08760  0.82500  Biso   1.000  N
  H12      1.0000 0.50830  0.11310  0.88630  Biso   1.000  H
  H13      1.0000 0.55180  0.07790  0.80610  Biso   1.000  H
  H14      1.0000 0.45080  0.03140  0.81640  Biso   1.000  H
  K1       1.0000 0.00030  0.63620  0.08900  Biso   1.000  K
  K2       1.0000 0.51700  0.59270  0.55430  Biso   1.000  K
  K3       1.0000 0.99010  0.74170  0.57750  Biso   1.000  K
  K4       1.0000 0.45150  0.61650  0.28470  Biso   1.000  K
  O40      1.0000 0.94700  0.54050  0.90830  Biso   1.000  O
  W10      1.0000 0.67469  0.51587  0.30959  Biso   1.000  W
  W11      1.0000 0.75034  0.50617  0.10329  Biso   1.000  W
  W12      1.0000 0.89236  0.45539  0.28881  Biso   1.000  W
  W13      1.0000 0.75105  0.28134  0.96555  Biso   1.000  W
  W14      1.0000 0.89704  0.22370  0.14483  Biso   1.000  W
  W15      1.0000 0.67869  0.07921  0.04549  Biso   1.000  W
  W16      1.0000 0.74471  0.11338  0.29953  Biso   1.000  W
  W17      1.0000 0.73624  0.31925  0.42534  Biso   1.000  W
  W18      1.0000 0.51966  0.16735  0.31452  Biso   1.000  W
  Co6      1.0000 0.51870  0.34281  0.99936  Biso   1.000  Co
  Co7      1.0000 0.44468  0.34495  0.19252  Biso   1.000  Co
  Co8      1.0000 0.44555  0.15573  0.07610  Biso   1.000  Co
  Co9      1.0000 0.73083  0.69125  0.96124  Biso   1.000  Co
  Co10     1.0000 0.34560  0.12690  0.46968  Biso   1.000  Co
  Si2      1.0000 0.66617  0.29155  0.17793  Biso   1.000  Si
  O41      1.0000 0.55110  0.46140  0.25550  Biso   1.000  O
  O42      1.0000 0.71080  0.57780  0.20850  Biso   1.000  O
  O43      1.0000 0.68000  0.42050  0.39300  Biso   1.000  O
  O44      1.0000 0.82200  0.53740  0.35000  Biso   1.000  O
  O45      1.0000 0.72520  0.40320  0.21050  Biso   1.000  O
  O46      1.0000 0.78940  0.60010  0.04550  Biso   1.000  O
  O47      1.0000 0.62500  0.46290  0.05040  Biso   1.000  O
  O48      1.0000 0.79240  0.40650  0.03520  Biso   1.000  O
  O49      1.0000 0.88150  0.52270  0.18900  Biso   1.000  O
  O50      1.0000 0.91820  0.35150  0.20990  Biso   1.000  O
  O51      1.0000 0.84530  0.36860  0.36680  Biso   1.000  O
  O52      1.0000 0.79130  0.29800  0.86250  Biso   1.000  O
  O53      1.0000 0.62600  0.29210  0.94390  Biso   1.000  O
  O54      1.0000 0.71720  0.14440  0.94640  Biso   1.000  O
  O55      1.0000 0.88670  0.26720  0.03190  Biso   1.000  O
  O56      1.0000 0.72790  0.23780  0.10860  Biso   1.000  O
  O57      1.0000 0.82850  0.10240  0.08420  Biso   1.000  O
  O58      1.0000 0.84970  0.18380  0.25300  Biso   1.000  O
  O59      1.0000 0.66240  0.96350  0.98900  Biso   1.000  O
  O60      1.0000 0.55730  0.09890  0.03150  Biso   1.000  O
  O61      1.0000 0.68390  0.06140  0.17260  Biso   1.000  O
  O62      1.0000 0.61790  0.08200  0.33230  Biso   1.000  O
  O63      1.0000 0.78700  0.20310  0.41120  Biso   1.000  O
  O64      1.0000 0.66390  0.24050  0.27170  Biso   1.000  O
  O65      1.0000 0.61510  0.24630  0.43360  Biso   1.000  O
  O66      1.0000 0.43750  0.10960  0.37930  Biso   1.000  O
  O67      1.0000 0.47400  0.10670  0.19970  Biso   1.000  O
  O68      1.0000 0.47570  0.27440  0.30190  Biso   1.000  O
  O69      1.0000 0.48080  0.39140  0.87870  Biso   1.000  O
  O70      1.0000 0.58610  0.61060  0.93500  Biso   1.000  O
  O71      1.0000 0.57110  0.78900  0.04960  Biso   1.000  O
  O72      1.0000 0.55310  0.28550  0.12620  Biso   1.000  O
  O73      1.0000 0.65530  0.77140  0.88090  Biso   1.000  O
  O74      1.0000 0.65450  0.60410  0.73160  Biso   1.000  O
  O75      1.0000 0.72540  0.76750  0.08920  Biso   1.000  O
  O76      1.0000 0.77820  0.61960  0.85100  Biso   1.000  O
  O77      1.0000 0.76900  0.88100  0.44900  Biso   1.000  O
  O78      1.0000 0.71600  0.80610  0.42700  Biso   1.000  O
  O79      1.0000 0.44400  0.24920  0.54320  Biso   1.000  O
  C7       1.0000 0.74160  0.60570  0.76510  Biso   1.000  C
  C8       1.0000 0.81450  0.58860  0.69990  Biso   1.000  C
  H15      1.0000 0.84080  0.53270  0.71410  Biso   1.000  H
  H16      1.0000 0.87080  0.64390  0.71350  Biso   1.000  H
  C9       1.0000 0.77330  0.57320  0.59980  Biso   1.000  C
  H17      1.0000 0.72260  0.51360  0.58320  Biso   1.000  H
  H18      1.0000 0.74140  0.62590  0.58500  Biso   1.000  H
  N3       1.0000 0.85470  0.56800  0.54470  Biso   1.000  N
  H19      1.0000 0.89270  0.52920  0.56760  Biso   1.000  H
  H20      1.0000 0.82800  0.54480  0.48420  Biso   1.000  H
  H21      1.0000 0.89270  0.62700  0.54890  Biso   1.000  H
  C10      1.0000 0.65000  0.79330  0.10880  Biso   1.000  C
  C11      1.0000 0.64870  0.83090  0.20760  Biso   1.000  C
  H22      1.0000 0.67420  0.78770  0.24700  Biso   1.000  H
  H23      1.0000 0.69550  0.89300  0.22450  Biso   1.000  H
  C12      1.0000 0.54900  0.84380  0.23220  Biso   1.000  C
  H24      1.0000 0.50240  0.78160  0.22000  Biso   1.000  H
  H25      1.0000 0.55790  0.86890  0.29910  Biso   1.000  H
  N4       1.0000 0.50500  0.91240  0.17500  Biso   1.000  N
  H26      1.0000 0.49170  0.88690  0.11370  Biso   1.000  H
  H27      1.0000 0.44820  0.92210  0.19390  Biso   1.000  H
  H28      1.0000 0.54920  0.96860  0.18360  Biso   1.000  H
  K5       1.0000 0.99970  0.36380  0.91100  Biso   1.000  K
  K6       1.0000 0.48300  0.40730  0.44570  Biso   1.000  K
  K7       1.0000 0.00990  0.25830  0.42250  Biso   1.000  K
  K8       1.0000 0.54850  0.38350  0.71530  Biso   1.000  K
  O80      1.0000 0.05300  0.45950  0.09170  Biso   1.000  O
