data_image0
_cell_length_a       14.3635
_cell_length_b       12.0029
_cell_length_c       16.9974
_cell_angle_alpha    90
_cell_angle_beta     113.381
_cell_angle_gamma    90

_symmetry_space_group_name_H-M    "P 1"
_symmetry_int_tables_number       1

loop_
  _symmetry_equiv_pos_as_xyz
  'x, y, z'

loop_
  _atom_site_label
  _atom_site_occupancy
  _atom_site_fract_x
  _atom_site_fract_y
  _atom_site_fract_z
  _atom_site_thermal_displace_type
  _atom_site_B_iso_or_equiv
  _atom_site_type_symbol
  Zn1      1.0000 0.89368  0.93755  0.89091  Biso   1.000  Zn
  Zn2      1.0000 0.31876  0.07586  0.93504  Biso   1.000  Zn
  P1       1.0000 0.11709  0.00649  0.93073  Biso   1.000  P
  P2       1.0000 0.31400  0.92878  0.78793  Biso   1.000  P
  N1       1.0000 0.27920  0.89130  0.93200  Biso   1.000  N
  N2       1.0000 0.93700  0.77840  0.93260  Biso   1.000  N
  N3       1.0000 0.38390  0.23210  0.95760  Biso   1.000  N
  C1       1.0000 0.39040  0.93340  0.08350  Biso   1.000  C
  C2       1.0000 0.32560  0.83880  0.87780  Biso   1.000  C
  H1       1.0000 0.39670  0.82410  0.91200  Biso   1.000  H
  H2       1.0000 0.29240  0.76820  0.85630  Biso   1.000  H
  C3       1.0000 0.32180  0.84920  0.02060  Biso   1.000  C
  H3       1.0000 0.26670  0.83000  0.03750  Biso   1.000  H
  H4       1.0000 0.36010  0.78180  0.02300  Biso   1.000  H
  C4       1.0000 0.16550  0.88830  0.89280  Biso   1.000  C
  H5       1.0000 0.14130  0.89090  0.83080  Biso   1.000  H
  H6       1.0000 0.14170  0.81970  0.90860  Biso   1.000  H
  C5       1.0000 0.91570  0.69580  0.87230  Biso   1.000  C
  C6       1.0000 0.94000  0.58300  0.89560  Biso   1.000  C
  C7       1.0000 0.12910  0.30560  0.10560  Biso   1.000  C
  C8       1.0000 0.10700  0.41490  0.07880  Biso   1.000  C
  C9       1.0000 0.98660  0.55910  0.98580  Biso   1.000  C
  C10      1.0000 0.03340  0.64700  0.03650  Biso   1.000  C
  H7       1.0000 0.08290  0.63470  0.09110  Biso   1.000  H
  C11      1.0000 0.00830  0.75260  0.00760  Biso   1.000  C
  H8       1.0000 0.04370  0.81070  0.04310  Biso   1.000  H
  C12      1.0000 0.40030  0.28750  0.02960  Biso   1.000  C
  H9       1.0000 0.38070  0.25370  0.06990  Biso   1.000  H
  C13      1.0000 0.44410  0.39130  0.04860  Biso   1.000  C
  H10      1.0000 0.45230  0.42600  0.09980  Biso   1.000  H
  C14      1.0000 0.47590  0.44390  0.99150  Biso   1.000  C
  C15      1.0000 0.46420  0.38390  0.91900  Biso   1.000  C
  H11      1.0000 0.48760  0.41310  0.87950  Biso   1.000  H
  C16      1.0000 0.41830  0.28130  0.90500  Biso   1.000  C
  H12      1.0000 0.41080  0.24380  0.85490  Biso   1.000  H
  O1       1.0000 0.40510  0.02760  0.05800  Biso   1.000  O
  O2       1.0000 0.42850  0.90260  0.16030  Biso   1.000  O
  O3       1.0000 0.00460  0.01570  0.87530  Biso   1.000  O
  O4       1.0000 0.17570  0.10660  0.91790  Biso   1.000  O
  O5       1.0000 0.13900  0.98510  0.02440  Biso   1.000  O
  O6       1.0000 0.20840  0.91280  0.72010  Biso   1.000  O
  O7       1.0000 0.33260  0.04690  0.82470  Biso   1.000  O
  O8       1.0000 0.39550  0.89050  0.75740  Biso   1.000  O
  Zn3      1.0000 0.10632  0.93755  0.60909  Biso   1.000  Zn
  Zn4      1.0000 0.68124  0.07586  0.56496  Biso   1.000  Zn
  P3       1.0000 0.88291  0.00649  0.56927  Biso   1.000  P
  P4       1.0000 0.68600  0.92878  0.71207  Biso   1.000  P
  N4       1.0000 0.72080  0.89130  0.56800  Biso   1.000  N
  N5       1.0000 0.06300  0.77840  0.56740  Biso   1.000  N
  N6       1.0000 0.61610  0.23210  0.54240  Biso   1.000  N
  C17      1.0000 0.60960  0.93340  0.41650  Biso   1.000  C
  C18      1.0000 0.67440  0.83880  0.62220  Biso   1.000  C
  H13      1.0000 0.60330  0.82410  0.58800  Biso   1.000  H
  H14      1.0000 0.70760  0.76820  0.64370  Biso   1.000  H
  C19      1.0000 0.67820  0.84920  0.47940  Biso   1.000  C
  H15      1.0000 0.73330  0.83000  0.46250  Biso   1.000  H
  H16      1.0000 0.63990  0.78180  0.47700  Biso   1.000  H
  C20      1.0000 0.83450  0.88830  0.60720  Biso   1.000  C
  H17      1.0000 0.85870  0.89090  0.66920  Biso   1.000  H
  H18      1.0000 0.85830  0.81970  0.59140  Biso   1.000  H
  C21      1.0000 0.08430  0.69580  0.62770  Biso   1.000  C
  C22      1.0000 0.06000  0.58300  0.60440  Biso   1.000  C
  C23      1.0000 0.87090  0.30560  0.39440  Biso   1.000  C
  C24      1.0000 0.89300  0.41490  0.42120  Biso   1.000  C
  C25      1.0000 0.01340  0.55910  0.51420  Biso   1.000  C
  C26      1.0000 0.96660  0.64700  0.46350  Biso   1.000  C
  H19      1.0000 0.91710  0.63470  0.40890  Biso   1.000  H
  C27      1.0000 0.99170  0.75260  0.49240  Biso   1.000  C
  H20      1.0000 0.95630  0.81070  0.45690  Biso   1.000  H
  C28      1.0000 0.59970  0.28750  0.47040  Biso   1.000  C
  H21      1.0000 0.61930  0.25370  0.43010  Biso   1.000  H
  C29      1.0000 0.55590  0.39130  0.45140  Biso   1.000  C
  H22      1.0000 0.54770  0.42600  0.40020  Biso   1.000  H
  C30      1.0000 0.52410  0.44390  0.50850  Biso   1.000  C
  C31      1.0000 0.53580  0.38390  0.58100  Biso   1.000  C
  H23      1.0000 0.51240  0.41310  0.62050  Biso   1.000  H
  C32      1.0000 0.58170  0.28130  0.59500  Biso   1.000  C
  H24      1.0000 0.58920  0.24380  0.64510  Biso   1.000  H
  O9       1.0000 0.59490  0.02760  0.44200  Biso   1.000  O
  O10      1.0000 0.57150  0.90260  0.33970  Biso   1.000  O
  O11      1.0000 0.99540  0.01570  0.62470  Biso   1.000  O
  O12      1.0000 0.82430  0.10660  0.58210  Biso   1.000  O
  O13      1.0000 0.86100  0.98510  0.47560  Biso   1.000  O
  O14      1.0000 0.79160  0.91280  0.77990  Biso   1.000  O
  O15      1.0000 0.66740  0.04690  0.67530  Biso   1.000  O
  O16      1.0000 0.60450  0.89050  0.74260  Biso   1.000  O
  Zn5      1.0000 0.10632  0.06245  0.10909  Biso   1.000  Zn
  Zn6      1.0000 0.68124  0.92414  0.06496  Biso   1.000  Zn
  P5       1.0000 0.88291  0.99351  0.06927  Biso   1.000  P
  P6       1.0000 0.68600  0.07122  0.21207  Biso   1.000  P
  N7       1.0000 0.72080  0.10870  0.06800  Biso   1.000  N
  N8       1.0000 0.06300  0.22160  0.06740  Biso   1.000  N
  N9       1.0000 0.61610  0.76790  0.04240  Biso   1.000  N
  C33      1.0000 0.60960  0.06660  0.91650  Biso   1.000  C
  C34      1.0000 0.67440  0.16120  0.12220  Biso   1.000  C
  H25      1.0000 0.60330  0.17590  0.08800  Biso   1.000  H
  H26      1.0000 0.70760  0.23180  0.14370  Biso   1.000  H
  C35      1.0000 0.67820  0.15080  0.97940  Biso   1.000  C
  H27      1.0000 0.73330  0.17000  0.96250  Biso   1.000  H
  H28      1.0000 0.63990  0.21820  0.97700  Biso   1.000  H
  C36      1.0000 0.83450  0.11170  0.10720  Biso   1.000  C
  H29      1.0000 0.85870  0.10910  0.16920  Biso   1.000  H
  H30      1.0000 0.85830  0.18030  0.09140  Biso   1.000  H
  C37      1.0000 0.08430  0.30420  0.12770  Biso   1.000  C
  C38      1.0000 0.06000  0.41700  0.10440  Biso   1.000  C
  C39      1.0000 0.87090  0.69440  0.89440  Biso   1.000  C
  C40      1.0000 0.89300  0.58510  0.92120  Biso   1.000  C
  C41      1.0000 0.01340  0.44090  0.01420  Biso   1.000  C
  C42      1.0000 0.96660  0.35300  0.96350  Biso   1.000  C
  H31      1.0000 0.91710  0.36530  0.90890  Biso   1.000  H
  C43      1.0000 0.99170  0.24740  0.99240  Biso   1.000  C
  H32      1.0000 0.95630  0.18930  0.95690  Biso   1.000  H
  C44      1.0000 0.59970  0.71250  0.97040  Biso   1.000  C
  H33      1.0000 0.61930  0.74630  0.93010  Biso   1.000  H
  C45      1.0000 0.55590  0.60870  0.95140  Biso   1.000  C
  H34      1.0000 0.54770  0.57400  0.90020  Biso   1.000  H
  C46      1.0000 0.52410  0.55610  0.00850  Biso   1.000  C
  C47      1.0000 0.53580  0.61610  0.08100  Biso   1.000  C
  H35      1.0000 0.51240  0.58690  0.12050  Biso   1.000  H
  C48      1.0000 0.58170  0.71870  0.09500  Biso   1.000  C
  H36      1.0000 0.58920  0.75620  0.14510  Biso   1.000  H
  O17      1.0000 0.59490  0.97240  0.94200  Biso   1.000  O
  O18      1.0000 0.57150  0.09740  0.83970  Biso   1.000  O
  O19      1.0000 0.99540  0.98430  0.12470  Biso   1.000  O
  O20      1.0000 0.82430  0.89340  0.08210  Biso   1.000  O
  O21      1.0000 0.86100  0.01490  0.97560  Biso   1.000  O
  O22      1.0000 0.79160  0.08720  0.27990  Biso   1.000  O
  O23      1.0000 0.66740  0.95310  0.17530  Biso   1.000  O
  O24      1.0000 0.60450  0.10950  0.24260  Biso   1.000  O
  Zn7      1.0000 0.89368  0.06245  0.39091  Biso   1.000  Zn
  Zn8      1.0000 0.31876  0.92414  0.43504  Biso   1.000  Zn
  P7       1.0000 0.11709  0.99351  0.43073  Biso   1.000  P
  P8       1.0000 0.31400  0.07122  0.28793  Biso   1.000  P
  N10      1.0000 0.27920  0.10870  0.43200  Biso   1.000  N
  N11      1.0000 0.93700  0.22160  0.43260  Biso   1.000  N
  N12      1.0000 0.38390  0.76790  0.45760  Biso   1.000  N
  C49      1.0000 0.39040  0.06660  0.58350  Biso   1.000  C
  C50      1.0000 0.32560  0.16120  0.37780  Biso   1.000  C
  H37      1.0000 0.39670  0.17590  0.41200  Biso   1.000  H
  H38      1.0000 0.29240  0.23180  0.35630  Biso   1.000  H
  C51      1.0000 0.32180  0.15080  0.52060  Biso   1.000  C
  H39      1.0000 0.26670  0.17000  0.53750  Biso   1.000  H
  H40      1.0000 0.36010  0.21820  0.52300  Biso   1.000  H
  C52      1.0000 0.16550  0.11170  0.39280  Biso   1.000  C
  H41      1.0000 0.14130  0.10910  0.33080  Biso   1.000  H
  H42      1.0000 0.14170  0.18030  0.40860  Biso   1.000  H
  C53      1.0000 0.91570  0.30420  0.37230  Biso   1.000  C
  C54      1.0000 0.94000  0.41700  0.39560  Biso   1.000  C
  C55      1.0000 0.12910  0.69440  0.60560  Biso   1.000  C
  C56      1.0000 0.10700  0.58510  0.57880  Biso   1.000  C
  C57      1.0000 0.98660  0.44090  0.48580  Biso   1.000  C
  C58      1.0000 0.03340  0.35300  0.53650  Biso   1.000  C
  H43      1.0000 0.08290  0.36530  0.59110  Biso   1.000  H
  C59      1.0000 0.00830  0.24740  0.50760  Biso   1.000  C
  H44      1.0000 0.04370  0.18930  0.54310  Biso   1.000  H
  C60      1.0000 0.40030  0.71250  0.52960  Biso   1.000  C
  H45      1.0000 0.38070  0.74630  0.56990  Biso   1.000  H
  C61      1.0000 0.44410  0.60870  0.54860  Biso   1.000  C
  H46      1.0000 0.45230  0.57400  0.59980  Biso   1.000  H
  C62      1.0000 0.47590  0.55610  0.49150  Biso   1.000  C
  C63      1.0000 0.46420  0.61610  0.41900  Biso   1.000  C
  H47      1.0000 0.48760  0.58690  0.37950  Biso   1.000  H
  C64      1.0000 0.41830  0.71870  0.40500  Biso   1.000  C
  H48      1.0000 0.41080  0.75620  0.35490  Biso   1.000  H
  O25      1.0000 0.40510  0.97240  0.55800  Biso   1.000  O
  O26      1.0000 0.42850  0.09740  0.66030  Biso   1.000  O
  O27      1.0000 0.00460  0.98430  0.37530  Biso   1.000  O
  O28      1.0000 0.17570  0.89340  0.41790  Biso   1.000  O
  O29      1.0000 0.13900  0.01490  0.52440  Biso   1.000  O
  O30      1.0000 0.20840  0.08720  0.22010  Biso   1.000  O
  O31      1.0000 0.33260  0.95310  0.32470  Biso   1.000  O
  O32      1.0000 0.39550  0.10950  0.25740  Biso   1.000  O
  Zn9      1.0000 0.50000  0.01420  0.25000  Biso   1.000  Zn
  Zn10     1.0000 0.50000  0.98580  0.75000  Biso   1.000  Zn
