data_image0
_cell_length_a       22.9056
_cell_length_b       24.2276
_cell_length_c       24.8145
_cell_angle_alpha    61.777
_cell_angle_beta     63.599
_cell_angle_gamma    77.407

_symmetry_space_group_name_H-M    "P 1"
_symmetry_int_tables_number       1

loop_
  _symmetry_equiv_pos_as_xyz
  'x, y, z'

loop_
  _atom_site_label
  _atom_site_occupancy
  _atom_site_fract_x
  _atom_site_fract_y
  _atom_site_fract_z
  _atom_site_thermal_displace_type
  _atom_site_B_iso_or_equiv
  _atom_site_type_symbol
  Cu1      1.0000 0.04632  0.89042  0.94921  Biso   1.000  Cu
  Cu2      1.0000 0.03222  0.91565  0.84060  Biso   1.000  Cu
  Cu3      1.0000 0.06949  0.35986  0.58604  Biso   1.000  Cu
  Cu4      1.0000 0.98586  0.64772  0.77386  Biso   1.000  Cu
  Cu5      1.0000 0.98452  0.52895  0.85619  Biso   1.000  Cu
  Cu6      1.0000 0.33680  0.18944  0.27492  Biso   1.000  Cu
  Cu7      1.0000 0.62023  0.11653  0.87658  Biso   1.000  Cu
  Cu8      1.0000 0.05591  0.26645  0.56661  Biso   1.000  Cu
  Cu9      1.0000 0.44737  0.24918  0.20482  Biso   1.000  Cu
  Cu10     1.0000 0.71290  0.08636  0.78495  Biso   1.000  Cu
  Cu11     1.0000 0.42672  0.77659  0.57067  Biso   1.000  Cu
  Cu12     1.0000 0.31999  0.83051  0.55415  Biso   1.000  Cu
  O1       1.0000 0.31420  0.47280  0.76940  Biso   1.000  O
  H1       1.0000 0.30620  0.46110  0.80890  Biso   1.000  H
  O2       1.0000 0.97540  0.66034  0.84907  Biso   1.000  O
  O3       1.0000 0.06190  0.99879  0.81233  Biso   1.000  O
  O4       1.0000 0.09840  0.28949  0.65478  Biso   1.000  O
  O5       1.0000 0.03280  0.80341  0.97283  Biso   1.000  O
  O6       1.0000 0.98340  0.56014  0.91675  Biso   1.000  O
  O7       1.0000 0.65540  0.48070  0.00770  Biso   1.000  O
  H2       1.0000 0.65800  0.47750  0.04090  Biso   1.000  H
  O8       1.0000 0.42010  0.28050  0.70930  Biso   1.000  O
  H3       1.0000 0.39700  0.27290  0.69620  Biso   1.000  H
  O9       1.0000 0.03320  0.40900  0.51740  Biso   1.000  O
  O10      1.0000 0.00470  0.82753  0.88799  Biso   1.000  O
  O11      1.0000 0.01770  0.57170  0.09764  Biso   1.000  O
  O12      1.0000 0.07780  0.21168  0.64243  Biso   1.000  O
  O13      1.0000 0.03340  0.33058  0.49377  Biso   1.000  O
  O14      1.0000 0.58500  0.16370  0.80800  Biso   1.000  O
  O15      1.0000 0.13870  0.88188  0.89400  Biso   1.000  O
  O16      1.0000 0.05760  0.97981  0.91184  Biso   1.000  O
  O17      1.0000 0.35710  0.47160  0.32120  Biso   1.000  O
  H4       1.0000 0.32780  0.49660  0.31420  Biso   1.000  H
  O18      1.0000 0.46810  0.20350  0.15080  Biso   1.000  O
  O19      1.0000 0.75860  0.15990  0.76020  Biso   1.000  O
  O20      1.0000 0.94370  0.94040  0.88633  Biso   1.000  O
  O21      1.0000 0.90870  0.57600  0.38940  Biso   1.000  O
  O22      1.0000 0.08020  0.63550  0.75320  Biso   1.000  O
  O23      1.0000 0.00110  0.37702  0.29455  Biso   1.000  O
  O24      1.0000 0.94876  0.90131  0.98590  Biso   1.000  O
  O25      1.0000 0.01110  0.47947  0.22124  Biso   1.000  O
  O26      1.0000 0.31740  0.23680  0.32670  Biso   1.000  O
  O27      1.0000 0.96610  0.27070  0.63010  Biso   1.000  O
  O28      1.0000 0.89160  0.63570  0.81000  Biso   1.000  O
  O29      1.0000 0.69270  0.73700  0.78720  Biso   1.000  O
  O30      1.0000 0.64320  0.18620  0.52480  Biso   1.000  O
  O31      1.0000 0.38010  0.12436  0.32950  Biso   1.000  O
  O32      1.0000 0.55140  0.23160  0.51180  Biso   1.000  O
  O33      1.0000 0.59720  0.68560  0.85010  Biso   1.000  O
  O34      1.0000 0.12250  0.88748  0.80884  Biso   1.000  O
  O35      1.0000 0.89120  0.53701  0.88650  Biso   1.000  O
  O36      1.0000 0.08840  0.19322  0.88420  Biso   1.000  O
  H5       1.0000 0.07480  0.16730  0.92330  Biso   1.000  H
  O37      1.0000 0.74690  0.03840  0.85460  Biso   1.000  O
  O38      1.0000 0.66470  0.13770  0.72980  Biso   1.000  O
  O39      1.0000 0.42580  0.95720  0.09480  Biso   1.000  O
  O40      1.0000 0.66640  0.06350  0.93370  Biso   1.000  O
  O41      1.0000 0.29910  0.83897  0.63550  Biso   1.000  O
  O42      1.0000 0.08000  0.53240  0.81630  Biso   1.000  O
  O43      1.0000 0.98100  0.34370  0.65270  Biso   1.000  O
  O44      1.0000 0.45909  0.86262  0.51660  Biso   1.000  O
  O45      1.0000 0.40980  0.29054  0.26420  Biso   1.000  O
  O46      1.0000 0.47370  0.17620  0.27180  Biso   1.000  O
  O47      1.0000 0.14940  0.28247  0.50613  Biso   1.000  O
  O48      1.0000 0.36830  0.90897  0.50000  Biso   1.000  O
  O49      1.0000 0.34530  0.98310  0.17500  Biso   1.000  O
  O50      1.0000 0.15590  0.36804  0.51581  Biso   1.000  O
  O51      1.0000 0.39020  0.79100  0.65160  Biso   1.000  O
  O52      1.0000 0.37290  0.15260  0.21070  Biso   1.000  O
  O53      1.0000 0.37640  0.69750  0.62380  Biso   1.000  O
  O54      1.0000 0.67900  0.18500  0.83880  Biso   1.000  O
  O55      1.0000 0.36200  0.78910  0.86490  Biso   1.000  O
  H6       1.0000 0.36550  0.81680  0.87340  Biso   1.000  H
  O56      1.0000 0.55440  0.15570  0.94610  Biso   1.000  O
  O57      1.0000 0.28550  0.74460  0.61030  Biso   1.000  O
  O58      1.0000 0.61460  0.03970  0.39330  Biso   1.000  O
  H7       1.0000 0.61950  0.07680  0.38130  Biso   1.000  H
  O59      1.0000 0.76440  0.36390  0.82580  Biso   1.000  O
  H8       1.0000 0.77060  0.40080  0.79890  Biso   1.000  H
  O60      1.0000 0.71940  0.92950  0.13650  Biso   1.000  O
  H9       1.0000 0.68480  0.91350  0.14950  Biso   1.000  H
  C1       1.0000 0.68860  0.53330  0.95430  Biso   1.000  C
  C2       1.0000 0.51520  0.22370  0.72910  Biso   1.000  C
  H10      1.0000 0.49820  0.22300  0.77110  Biso   1.000  H
  C3       1.0000 0.48150  0.25390  0.68670  Biso   1.000  C
  C4       1.0000 0.27850  0.52890  0.74790  Biso   1.000  C
  C5       1.0000 0.94850  0.30330  0.66060  Biso   1.000  C
  C6       1.0000 0.98350  0.61760  0.90000  Biso   1.000  C
  C7       1.0000 0.06330  0.01520  0.85370  Biso   1.000  C
  C8       1.0000 0.35420  0.27920  0.30850  Biso   1.000  C
  C9       1.0000 0.01570  0.79000  0.93920  Biso   1.000  C
  C10      1.0000 0.59940  0.19150  0.64550  Biso   1.000  C
  H11      1.0000 0.63950  0.17200  0.63170  Biso   1.000  H
  C11      1.0000 0.99440  0.70280  0.92450  Biso   1.000  C
  H12      1.0000 0.98950  0.73220  0.88560  Biso   1.000  H
  C12      1.0000 0.17550  0.32860  0.49030  Biso   1.000  C
  C13      1.0000 0.73380  0.19220  0.79290  Biso   1.000  C
  C14      1.0000 0.39890  0.99310  0.12660  Biso   1.000  C
  C15      1.0000 0.86370  0.58690  0.85590  Biso   1.000  C
  C16      1.0000 0.00610  0.72150  0.96340  Biso   1.000  C
  C17      1.0000 0.08650  0.16820  0.84540  Biso   1.000  C
  C18      1.0000 0.99690  0.59420  0.00330  Biso   1.000  C
  H13      1.0000 0.99430  0.55160  0.01650  Biso   1.000  H
  C19      1.0000 0.08930  0.23360  0.67280  Biso   1.000  C
  C20      1.0000 0.98990  0.63770  0.94520  Biso   1.000  C
  C21      1.0000 0.58800  0.21170  0.54250  Biso   1.000  C
  C22      1.0000 0.42670  0.16580  0.16400  Biso   1.000  C
  C23      1.0000 0.01410  0.67770  0.02130  Biso   1.000  C
  H14      1.0000 0.02360  0.69090  0.04610  Biso   1.000  H
  C24      1.0000 0.09440  0.20940  0.78080  Biso   1.000  C
  H15      1.0000 0.10210  0.25140  0.76520  Biso   1.000  H
  C25      1.0000 0.15710  0.87590  0.84090  Biso   1.000  C
  C26      1.0000 0.42710  0.90890  0.49080  Biso   1.000  C
  C27      1.0000 0.00050  0.43550  0.27840  Biso   1.000  C
  C28      1.0000 0.96760  0.48490  0.43390  Biso   1.000  C
  H16      1.0000 0.96330  0.49600  0.46660  Biso   1.000  H
  C29      1.0000 0.10850  0.58400  0.77500  Biso   1.000  C
  C30      1.0000 0.99940  0.42900  0.43270  Biso   1.000  C
  C31      1.0000 0.26870  0.30570  0.39980  Biso   1.000  C
  H17      1.0000 0.24620  0.27010  0.41500  Biso   1.000  H
  C32      1.0000 0.07770  0.10530  0.86860  Biso   1.000  C
  H18      1.0000 0.07350  0.07760  0.91180  Biso   1.000  H
  C33      1.0000 0.08100  0.12430  0.76230  Biso   1.000  C
  H19      1.0000 0.07860  0.10910  0.73520  Biso   1.000  H
  C34      1.0000 0.24870  0.84870  0.75370  Biso   1.000  C
  H20      1.0000 0.22370  0.86230  0.72860  Biso   1.000  H
  C35      1.0000 0.71980  0.03710  0.91060  Biso   1.000  C
  C36      1.0000 0.09080  0.18880  0.73860  Biso   1.000  C
  C37      1.0000 0.98580  0.45370  0.33400  Biso   1.000  C
  C38      1.0000 0.00800  0.61450  0.04220  Biso   1.000  C
  C39      1.0000 0.02330  0.38640  0.48690  Biso   1.000  C
  C40      1.0000 0.34930  0.80220  0.76870  Biso   1.000  C
  H21      1.0000 0.38960  0.78320  0.75460  Biso   1.000  H
  C41      1.0000 0.41630  0.08080  0.14000  Biso   1.000  C
  H22      1.0000 0.38200  0.06570  0.18170  Biso   1.000  H
  C42      1.0000 0.75760  0.63660  0.85010  Biso   1.000  C
  H23      1.0000 0.78010  0.67270  0.81530  Biso   1.000  H
  C43      1.0000 0.07510  0.08390  0.82780  Biso   1.000  C
  C44      1.0000 0.00650  0.41230  0.38430  Biso   1.000  C
  H24      1.0000 0.02490  0.37380  0.38520  Biso   1.000  H
  C45      1.0000 0.33620  0.81720  0.66760  Biso   1.000  C
  C46      1.0000 0.46140  0.97070  0.44610  Biso   1.000  C
  C47      1.0000 0.32660  0.31960  0.34580  Biso   1.000  C
  C48      1.0000 0.43790  0.12990  0.31550  Biso   1.000  C
  C49      1.0000 0.84810  0.94460  0.97710  Biso   1.000  C
  C50      1.0000 0.24320  0.34420  0.43250  Biso   1.000  C
  C51      1.0000 0.81660  0.97870  0.93390  Biso   1.000  C
  H25      1.0000 0.83810  0.98790  0.88880  Biso   1.000  H
  C52      1.0000 0.79120  0.58580  0.88070  Biso   1.000  C
  C53      1.0000 0.46860  0.07690  0.36130  Biso   1.000  C
  C54      1.0000 0.87810  0.29760  0.71140  Biso   1.000  C
  C55      1.0000 0.22460  0.85350  0.81380  Biso   1.000  C
  C56      1.0000 0.26290  0.83560  0.85130  Biso   1.000  C
  H26      1.0000 0.24710  0.84030  0.89050  Biso   1.000  H
  C57      1.0000 0.69140  0.63460  0.87030  Biso   1.000  C
  C58      1.0000 0.31730  0.69790  0.63500  Biso   1.000  C
  C59      1.0000 0.91870  0.92700  0.94790  Biso   1.000  C
  C60      1.0000 0.95380  0.50900  0.33230  Biso   1.000  C
  H27      1.0000 0.94010  0.53570  0.29820  Biso   1.000  H
  C61      1.0000 0.32580  0.81050  0.82760  Biso   1.000  C
  C62      1.0000 0.43440  0.02110  0.40710  Biso   1.000  C
  H28      1.0000 0.39270  0.01790  0.41130  Biso   1.000  H
  C63      1.0000 0.61040  0.16290  0.75300  Biso   1.000  C
  C64      1.0000 0.44870  0.13370  0.11870  Biso   1.000  C
  C65      1.0000 0.43380  0.05000  0.10100  Biso   1.000  C
  C66      1.0000 0.31050  0.82330  0.73170  Biso   1.000  C
  C67      1.0000 0.55690  0.03250  0.39600  Biso   1.000  C
  C68      1.0000 0.75290  0.28030  0.80590  Biso   1.000  C
  H29      1.0000 0.71020  0.27550  0.83740  Biso   1.000  H
  C69      1.0000 0.21460  0.63790  0.70330  Biso   1.000  C
  H30      1.0000 0.19180  0.67430  0.68690  Biso   1.000  H
  C70      1.0000 0.56460  0.21690  0.60550  Biso   1.000  C
  C71      1.0000 0.83900  0.25140  0.72690  Biso   1.000  C
  H31      1.0000 0.85560  0.22560  0.70500  Biso   1.000  H
  C72      1.0000 0.51100  0.12970  0.01260  Biso   1.000  C
  C73      1.0000 0.94260  0.52380  0.38620  Biso   1.000  C
  C74      1.0000 0.49590  0.16130  0.05310  Biso   1.000  C
  H32      1.0000 0.51630  0.19840  0.03700  Biso   1.000  H
  C75      1.0000 0.65670  0.69020  0.83350  Biso   1.000  C
  C76      1.0000 0.77610  0.24310  0.77420  Biso   1.000  C
  C77      1.0000 0.18110  0.58260  0.74950  Biso   1.000  C
  C78      1.0000 0.28140  0.64010  0.68100  Biso   1.000  C
  C79      1.0000 0.48330  0.07530  0.03510  Biso   1.000  C
  H33      1.0000 0.49620  0.05450  0.00820  Biso   1.000  H
  C80      1.0000 0.36020  0.37440  0.32330  Biso   1.000  C
  H34      1.0000 0.39980  0.38470  0.28650  Biso   1.000  H
  C81      1.0000 0.75430  0.99840  0.95820  Biso   1.000  C
  C82      1.0000 0.79160  0.32570  0.79250  Biso   1.000  C
  C83      1.0000 0.52240  0.97630  0.44000  Biso   1.000  C
  H35      1.0000 0.54140  0.94230  0.46540  Biso   1.000  H
  C84      1.0000 0.52860  0.08190  0.35870  Biso   1.000  C
  H36      1.0000 0.55040  0.11990  0.33070  Biso   1.000  H
  C85      1.0000 0.57480  0.19480  0.70610  Biso   1.000  C
  C86      1.0000 0.85360  0.33510  0.74410  Biso   1.000  C
  H37      1.0000 0.87890  0.36690  0.73350  Biso   1.000  H
  C87      1.0000 0.65710  0.58290  0.92270  Biso   1.000  C
  H38      1.0000 0.61220  0.58180  0.93650  Biso   1.000  H
  C88      1.0000 0.71950  0.98250  0.02620  Biso   1.000  C
  H39      1.0000 0.67660  0.99560  0.04300  Biso   1.000  H
  C89      1.0000 0.27630  0.39710  0.41050  Biso   1.000  C
  H40      1.0000 0.25950  0.42270  0.43270  Biso   1.000  H
  C90      1.0000 0.75270  0.94580  0.06760  Biso   1.000  C
  C91      1.0000 0.21080  0.52800  0.77230  Biso   1.000  C
  H41      1.0000 0.18750  0.49110  0.80300  Biso   1.000  H
  C92      1.0000 0.81570  0.92780  0.04270  Biso   1.000  C
  H42      1.0000 0.83660  0.90360  0.07140  Biso   1.000  H
  C93      1.0000 0.33400  0.41140  0.35600  Biso   1.000  C
  C94      1.0000 0.75600  0.53200  0.93340  Biso   1.000  C
  H43      1.0000 0.77730  0.49630  0.95380  Biso   1.000  H
  C95      1.0000 0.31490  0.58400  0.70120  Biso   1.000  C
  H44      1.0000 0.36020  0.58280  0.68440  Biso   1.000  H
  C96      1.0000 0.50630  0.24680  0.62590  Biso   1.000  C
  H45      1.0000 0.48230  0.26280  0.59970  Biso   1.000  H
  O61      1.0000 0.38070  0.45370  0.34560  Biso   1.000  O
  H46      1.0000 0.38350  0.44350  0.38100  Biso   1.000  H
  H47      1.0000 0.58620  0.13050  0.93990  Biso   1.000  H
  Cu13     1.0000 0.95368  0.10958  0.05079  Biso   1.000  Cu
  Cu14     1.0000 0.96778  0.08435  0.15940  Biso   1.000  Cu
  Cu15     1.0000 0.93051  0.64014  0.41396  Biso   1.000  Cu
  Cu16     1.0000 0.01414  0.35228  0.22614  Biso   1.000  Cu
  Cu17     1.0000 0.01548  0.47105  0.14381  Biso   1.000  Cu
  Cu18     1.0000 0.66320  0.81056  0.72508  Biso   1.000  Cu
  Cu19     1.0000 0.37977  0.88347  0.12342  Biso   1.000  Cu
  Cu20     1.0000 0.94409  0.73355  0.43339  Biso   1.000  Cu
  Cu21     1.0000 0.55263  0.75082  0.79518  Biso   1.000  Cu
  Cu22     1.0000 0.28710  0.91364  0.21505  Biso   1.000  Cu
  Cu23     1.0000 0.57328  0.22341  0.42933  Biso   1.000  Cu
  Cu24     1.0000 0.68001  0.16949  0.44585  Biso   1.000  Cu
  O62      1.0000 0.68580  0.52720  0.23060  Biso   1.000  O
  H48      1.0000 0.69380  0.53890  0.19110  Biso   1.000  H
  O63      1.0000 0.02460  0.33966  0.15093  Biso   1.000  O
  O64      1.0000 0.93810  0.00121  0.18767  Biso   1.000  O
  O65      1.0000 0.90160  0.71051  0.34522  Biso   1.000  O
  O66      1.0000 0.96720  0.19659  0.02717  Biso   1.000  O
  O67      1.0000 0.01660  0.43986  0.08325  Biso   1.000  O
  O68      1.0000 0.34460  0.51930  0.99230  Biso   1.000  O
  H49      1.0000 0.34200  0.52250  0.95910  Biso   1.000  H
  O69      1.0000 0.57990  0.71950  0.29070  Biso   1.000  O
  H50      1.0000 0.60300  0.72710  0.30380  Biso   1.000  H
  O70      1.0000 0.96680  0.59100  0.48260  Biso   1.000  O
  O71      1.0000 0.99530  0.17247  0.11201  Biso   1.000  O
  O72      1.0000 0.98230  0.42830  0.90236  Biso   1.000  O
  O73      1.0000 0.92220  0.78832  0.35757  Biso   1.000  O
  O74      1.0000 0.96660  0.66942  0.50623  Biso   1.000  O
  O75      1.0000 0.41500  0.83630  0.19200  Biso   1.000  O
  O76      1.0000 0.86130  0.11812  0.10600  Biso   1.000  O
  O77      1.0000 0.94240  0.02019  0.08816  Biso   1.000  O
  O78      1.0000 0.64290  0.52840  0.67880  Biso   1.000  O
  H51      1.0000 0.67220  0.50340  0.68580  Biso   1.000  H
  O79      1.0000 0.53190  0.79650  0.84920  Biso   1.000  O
  O80      1.0000 0.24140  0.84010  0.23980  Biso   1.000  O
  O81      1.0000 0.05630  0.05960  0.11367  Biso   1.000  O
  O82      1.0000 0.09130  0.42400  0.61060  Biso   1.000  O
  O83      1.0000 0.91980  0.36450  0.24680  Biso   1.000  O
  O84      1.0000 0.99890  0.62298  0.70545  Biso   1.000  O
  O85      1.0000 0.05124  0.09869  0.01410  Biso   1.000  O
  O86      1.0000 0.98890  0.52053  0.77876  Biso   1.000  O
  O87      1.0000 0.68260  0.76320  0.67330  Biso   1.000  O
  O88      1.0000 0.03390  0.72930  0.36990  Biso   1.000  O
  O89      1.0000 0.10840  0.36430  0.19000  Biso   1.000  O
  O90      1.0000 0.30730  0.26300  0.21280  Biso   1.000  O
  O91      1.0000 0.35680  0.81380  0.47520  Biso   1.000  O
  O92      1.0000 0.61990  0.87564  0.67050  Biso   1.000  O
  O93      1.0000 0.44860  0.76840  0.48820  Biso   1.000  O
  O94      1.0000 0.40280  0.31440  0.14990  Biso   1.000  O
  O95      1.0000 0.87750  0.11252  0.19116  Biso   1.000  O
  O96      1.0000 0.10880  0.46299  0.11350  Biso   1.000  O
  O97      1.0000 0.91160  0.80678  0.11580  Biso   1.000  O
  H52      1.0000 0.92520  0.83270  0.07670  Biso   1.000  H
  O98      1.0000 0.25310  0.96160  0.14540  Biso   1.000  O
  O99      1.0000 0.33530  0.86230  0.27020  Biso   1.000  O
  O100     1.0000 0.57420  0.04280  0.90520  Biso   1.000  O
  O101     1.0000 0.33360  0.93650  0.06630  Biso   1.000  O
  O102     1.0000 0.70090  0.16103  0.36450  Biso   1.000  O
  O103     1.0000 0.92000  0.46760  0.18370  Biso   1.000  O
  O104     1.0000 0.01900  0.65630  0.34730  Biso   1.000  O
  O105     1.0000 0.54091  0.13738  0.48340  Biso   1.000  O
  O106     1.0000 0.59020  0.70946  0.73580  Biso   1.000  O
  O107     1.0000 0.52630  0.82380  0.72820  Biso   1.000  O
  O108     1.0000 0.85060  0.71753  0.49387  Biso   1.000  O
  O109     1.0000 0.63170  0.09103  0.50000  Biso   1.000  O
  O110     1.0000 0.65470  0.01690  0.82500  Biso   1.000  O
  O111     1.0000 0.84410  0.63196  0.48419  Biso   1.000  O
  O112     1.0000 0.60980  0.20900  0.34840  Biso   1.000  O
  O113     1.0000 0.62710  0.84740  0.78930  Biso   1.000  O
  O114     1.0000 0.62360  0.30250  0.37620  Biso   1.000  O
  O115     1.0000 0.32100  0.81500  0.16120  Biso   1.000  O
  O116     1.0000 0.63800  0.21090  0.13510  Biso   1.000  O
  H53      1.0000 0.63450  0.18320  0.12660  Biso   1.000  H
  O117     1.0000 0.44560  0.84430  0.05390  Biso   1.000  O
  O118     1.0000 0.71450  0.25540  0.38970  Biso   1.000  O
  O119     1.0000 0.38540  0.96030  0.60670  Biso   1.000  O
  H54      1.0000 0.38050  0.92320  0.61870  Biso   1.000  H
  O120     1.0000 0.23560  0.63610  0.17420  Biso   1.000  O
  H55      1.0000 0.22940  0.59920  0.20110  Biso   1.000  H
  O121     1.0000 0.28060  0.07050  0.86350  Biso   1.000  O
  H56      1.0000 0.31520  0.08650  0.85050  Biso   1.000  H
  C97      1.0000 0.31140  0.46670  0.04570  Biso   1.000  C
  C98      1.0000 0.48480  0.77630  0.27090  Biso   1.000  C
  H57      1.0000 0.50180  0.77700  0.22890  Biso   1.000  H
  C99      1.0000 0.51850  0.74610  0.31330  Biso   1.000  C
  C100     1.0000 0.72150  0.47110  0.25210  Biso   1.000  C
  C101     1.0000 0.05150  0.69670  0.33940  Biso   1.000  C
  C102     1.0000 0.01650  0.38240  0.10000  Biso   1.000  C
  C103     1.0000 0.93670  0.98480  0.14630  Biso   1.000  C
  C104     1.0000 0.64580  0.72080  0.69150  Biso   1.000  C
  C105     1.0000 0.98430  0.21000  0.06080  Biso   1.000  C
  C106     1.0000 0.40060  0.80850  0.35450  Biso   1.000  C
  H58      1.0000 0.36050  0.82800  0.36830  Biso   1.000  H
  C107     1.0000 0.00560  0.29720  0.07550  Biso   1.000  C
  H59      1.0000 0.01050  0.26780  0.11440  Biso   1.000  H
  C108     1.0000 0.82450  0.67140  0.50970  Biso   1.000  C
  C109     1.0000 0.26620  0.80780  0.20710  Biso   1.000  C
  C110     1.0000 0.60110  0.00690  0.87340  Biso   1.000  C
  C111     1.0000 0.13630  0.41310  0.14410  Biso   1.000  C
  C112     1.0000 0.99390  0.27850  0.03660  Biso   1.000  C
  C113     1.0000 0.91350  0.83180  0.15460  Biso   1.000  C
  C114     1.0000 0.00310  0.40580  0.99670  Biso   1.000  C
  H60      1.0000 0.00570  0.44840  0.98350  Biso   1.000  H
  C115     1.0000 0.91070  0.76640  0.32720  Biso   1.000  C
  C116     1.0000 0.01010  0.36230  0.05480  Biso   1.000  C
  C117     1.0000 0.41200  0.78830  0.45750  Biso   1.000  C
  C118     1.0000 0.57330  0.83420  0.83600  Biso   1.000  C
  C119     1.0000 0.98590  0.32230  0.97870  Biso   1.000  C
  H61      1.0000 0.97640  0.30910  0.95390  Biso   1.000  H
  C120     1.0000 0.90560  0.79060  0.21920  Biso   1.000  C
  H62      1.0000 0.89790  0.74860  0.23480  Biso   1.000  H
  C121     1.0000 0.84290  0.12410  0.15910  Biso   1.000  C
  C122     1.0000 0.57290  0.09110  0.50920  Biso   1.000  C
  C123     1.0000 0.99950  0.56450  0.72160  Biso   1.000  C
  C124     1.0000 0.03240  0.51510  0.56610  Biso   1.000  C
  H63      1.0000 0.03670  0.50400  0.53340  Biso   1.000  H
  C125     1.0000 0.89150  0.41600  0.22500  Biso   1.000  C
  C126     1.0000 0.00060  0.57100  0.56730  Biso   1.000  C
  C127     1.0000 0.73130  0.69430  0.60020  Biso   1.000  C
  H64      1.0000 0.75380  0.72990  0.58500  Biso   1.000  H
  C128     1.0000 0.92230  0.89470  0.13140  Biso   1.000  C
  H65      1.0000 0.92650  0.92240  0.08820  Biso   1.000  H
  C129     1.0000 0.91900  0.87570  0.23770  Biso   1.000  C
  H66      1.0000 0.92140  0.89090  0.26480  Biso   1.000  H
  C130     1.0000 0.75130  0.15130  0.24630  Biso   1.000  C
  H67      1.0000 0.77630  0.13770  0.27140  Biso   1.000  H
  C131     1.0000 0.28020  0.96290  0.08940  Biso   1.000  C
  C132     1.0000 0.90920  0.81120  0.26140  Biso   1.000  C
  C133     1.0000 0.01420  0.54630  0.66600  Biso   1.000  C
  C134     1.0000 0.99200  0.38550  0.95780  Biso   1.000  C
  C135     1.0000 0.97670  0.61360  0.51310  Biso   1.000  C
  C136     1.0000 0.65070  0.19780  0.23130  Biso   1.000  C
  H68      1.0000 0.61040  0.21680  0.24540  Biso   1.000  H
  C137     1.0000 0.58370  0.91920  0.86000  Biso   1.000  C
  H69      1.0000 0.61800  0.93430  0.81830  Biso   1.000  H
  C138     1.0000 0.24240  0.36340  0.14990  Biso   1.000  C
  H70      1.0000 0.21990  0.32730  0.18470  Biso   1.000  H
  C139     1.0000 0.92490  0.91610  0.17220  Biso   1.000  C
  C140     1.0000 0.99350  0.58770  0.61570  Biso   1.000  C
  H71      1.0000 0.97510  0.62620  0.61480  Biso   1.000  H
  C141     1.0000 0.66380  0.18280  0.33240  Biso   1.000  C
  C142     1.0000 0.53860  0.02930  0.55390  Biso   1.000  C
  C143     1.0000 0.67340  0.68040  0.65420  Biso   1.000  C
  C144     1.0000 0.56210  0.87010  0.68450  Biso   1.000  C
  C145     1.0000 0.15190  0.05540  0.02290  Biso   1.000  C
  C146     1.0000 0.75680  0.65580  0.56750  Biso   1.000  C
  C147     1.0000 0.18340  0.02130  0.06610  Biso   1.000  C
  H72      1.0000 0.16190  0.01210  0.11120  Biso   1.000  H
  C148     1.0000 0.20880  0.41420  0.11930  Biso   1.000  C
  C149     1.0000 0.53140  0.92310  0.63870  Biso   1.000  C
  C150     1.0000 0.12190  0.70240  0.28860  Biso   1.000  C
  C151     1.0000 0.77540  0.14650  0.18620  Biso   1.000  C
  C152     1.0000 0.73710  0.16440  0.14870  Biso   1.000  C
  H73      1.0000 0.75290  0.15970  0.10950  Biso   1.000  H
  C153     1.0000 0.30860  0.36540  0.12970  Biso   1.000  C
  C154     1.0000 0.68270  0.30210  0.36500  Biso   1.000  C
  C155     1.0000 0.08130  0.07300  0.05210  Biso   1.000  C
  C156     1.0000 0.04620  0.49100  0.66770  Biso   1.000  C
  H74      1.0000 0.05990  0.46430  0.70180  Biso   1.000  H
  C157     1.0000 0.67420  0.18950  0.17240  Biso   1.000  C
  C158     1.0000 0.56560  0.97890  0.59290  Biso   1.000  C
  H75      1.0000 0.60730  0.98210  0.58870  Biso   1.000  H
  C159     1.0000 0.38960  0.83710  0.24700  Biso   1.000  C
  C160     1.0000 0.55130  0.86630  0.88130  Biso   1.000  C
  C161     1.0000 0.56620  0.95000  0.89900  Biso   1.000  C
  C162     1.0000 0.68950  0.17670  0.26830  Biso   1.000  C
  C163     1.0000 0.44310  0.96750  0.60400  Biso   1.000  C
  C164     1.0000 0.24710  0.71970  0.19410  Biso   1.000  C
  H76      1.0000 0.28980  0.72450  0.16260  Biso   1.000  H
  C165     1.0000 0.78540  0.36210  0.29670  Biso   1.000  C
  H77      1.0000 0.80820  0.32570  0.31310  Biso   1.000  H
  C166     1.0000 0.43540  0.78310  0.39450  Biso   1.000  C
  C167     1.0000 0.16100  0.74860  0.27310  Biso   1.000  C
  H78      1.0000 0.14440  0.77440  0.29500  Biso   1.000  H
  C168     1.0000 0.48900  0.87030  0.98740  Biso   1.000  C
  C169     1.0000 0.05740  0.47620  0.61380  Biso   1.000  C
  C170     1.0000 0.50410  0.83870  0.94690  Biso   1.000  C
  H79      1.0000 0.48370  0.80160  0.96300  Biso   1.000  H
  C171     1.0000 0.34330  0.30980  0.16650  Biso   1.000  C
  C172     1.0000 0.22390  0.75690  0.22580  Biso   1.000  C
  C173     1.0000 0.81890  0.41740  0.25050  Biso   1.000  C
  C174     1.0000 0.71860  0.35990  0.31900  Biso   1.000  C
  C175     1.0000 0.51670  0.92470  0.96490  Biso   1.000  C
  H80      1.0000 0.50380  0.94550  0.99180  Biso   1.000  H
  C176     1.0000 0.63980  0.62560  0.67670  Biso   1.000  C
  H81      1.0000 0.60020  0.61530  0.71350  Biso   1.000  H
  C177     1.0000 0.24570  0.00160  0.04180  Biso   1.000  C
  C178     1.0000 0.20840  0.67430  0.20750  Biso   1.000  C
  C179     1.0000 0.47760  0.02370  0.56000  Biso   1.000  C
  H82      1.0000 0.45860  0.05770  0.53460  Biso   1.000  H
  C180     1.0000 0.47140  0.91810  0.64130  Biso   1.000  C
  H83      1.0000 0.44960  0.88010  0.66930  Biso   1.000  H
  C181     1.0000 0.42520  0.80520  0.29390  Biso   1.000  C
  C182     1.0000 0.14640  0.66490  0.25590  Biso   1.000  C
  H84      1.0000 0.12110  0.63310  0.26650  Biso   1.000  H
  C183     1.0000 0.34290  0.41710  0.07730  Biso   1.000  C
  H85      1.0000 0.38780  0.41820  0.06350  Biso   1.000  H
  C184     1.0000 0.28050  0.01750  0.97380  Biso   1.000  C
  H86      1.0000 0.32340  0.00440  0.95700  Biso   1.000  H
  C185     1.0000 0.72370  0.60290  0.58950  Biso   1.000  C
  H87      1.0000 0.74050  0.57730  0.56730  Biso   1.000  H
  C186     1.0000 0.24730  0.05420  0.93240  Biso   1.000  C
  C187     1.0000 0.78920  0.47200  0.22770  Biso   1.000  C
  H88      1.0000 0.81250  0.50890  0.19700  Biso   1.000  H
  C188     1.0000 0.18430  0.07220  0.95730  Biso   1.000  C
  H89      1.0000 0.16340  0.09640  0.92860  Biso   1.000  H
  C189     1.0000 0.66600  0.58860  0.64400  Biso   1.000  C
  C190     1.0000 0.24400  0.46800  0.06660  Biso   1.000  C
  H90      1.0000 0.22270  0.50370  0.04620  Biso   1.000  H
  C191     1.0000 0.68510  0.41600  0.29880  Biso   1.000  C
  H91      1.0000 0.63980  0.41720  0.31560  Biso   1.000  H
  C192     1.0000 0.49370  0.75320  0.37410  Biso   1.000  C
  H92      1.0000 0.51770  0.73720  0.40030  Biso   1.000  H
  O122     1.0000 0.61930  0.54630  0.65440  Biso   1.000  O
  H93      1.0000 0.61650  0.55650  0.61900  Biso   1.000  H
  H94      1.0000 0.41380  0.86950  0.06010  Biso   1.000  H
