data_image0
_cell_length_a       8.7509
_cell_length_b       34.339
_cell_length_c       11.0652
_cell_angle_alpha    90
_cell_angle_beta     110.917
_cell_angle_gamma    90

_symmetry_space_group_name_H-M    "P 1"
_symmetry_int_tables_number       1

loop_
  _symmetry_equiv_pos_as_xyz
  'x, y, z'

loop_
  _atom_site_label
  _atom_site_occupancy
  _atom_site_fract_x
  _atom_site_fract_y
  _atom_site_fract_z
  _atom_site_thermal_displace_type
  _atom_site_B_iso_or_equiv
  _atom_site_type_symbol
  O1       1.0000 0.92810  0.38730  0.40680  Biso   1.000  O
  O2       1.0000 0.69610  0.36780  0.42740  Biso   1.000  O
  O3       1.0000 0.83140  0.43148  0.15580  Biso   1.000  O
  O4       1.0000 0.60450  0.40900  0.17900  Biso   1.000  O
  O5       1.0000 0.83710  0.34450  0.15790  Biso   1.000  O
  O6       1.0000 0.60880  0.32280  0.17400  Biso   1.000  O
  C1       1.0000 0.84330  0.37830  0.47220  Biso   1.000  C
  C2       1.0000 0.92440  0.37950  0.61690  Biso   1.000  C
  C3       1.0000 0.84000  0.38940  0.69520  Biso   1.000  C
  H1       1.0000 0.72970  0.39610  0.65780  Biso   1.000  H
  C4       1.0000 0.91400  0.38970  0.82970  Biso   1.000  C
  H2       1.0000 0.85570  0.39660  0.88180  Biso   1.000  H
  C5       1.0000 0.68260  0.43380  0.13790  Biso   1.000  C
  C6       1.0000 0.58790  0.46780  0.06680  Biso   1.000  C
  C7       1.0000 0.66070  0.49230  0.00000  Biso   1.000  C
  H3       1.0000 0.76440  0.48710  0.99860  Biso   1.000  H
  C8       1.0000 0.56970  0.52500  0.93520  Biso   1.000  C
  H4       1.0000 0.61620  0.54210  0.89300  Biso   1.000  H
  C9       1.0000 0.72940  0.31970  0.13970  Biso   1.000  C
  C10      1.0000 0.74100  0.28280  0.06820  Biso   1.000  C
  C11      1.0000 0.62110  0.25390  0.04820  Biso   1.000  C
  H5       1.0000 0.53510  0.25660  0.07820  Biso   1.000  H
  C12      1.0000 0.63860  0.22100  0.98050  Biso   1.000  C
  H6       1.0000 0.56400  0.20080  0.96840  Biso   1.000  H
  C13      1.0000 0.83300  0.36840  0.69200  Biso   1.000  C
  H7       1.0000 0.72420  0.36090  0.65220  Biso   1.000  H
  C14      1.0000 0.90300  0.36870  0.82700  Biso   1.000  C
  H8       1.0000 0.84270  0.36220  0.87830  Biso   1.000  H
  O7       1.0000 0.42810  0.88730  0.40680  Biso   1.000  O
  O8       1.0000 0.19610  0.86780  0.42740  Biso   1.000  O
  O9       1.0000 0.33140  0.93148  0.15580  Biso   1.000  O
  O10      1.0000 0.10450  0.90900  0.17900  Biso   1.000  O
  O11      1.0000 0.33710  0.84450  0.15790  Biso   1.000  O
  O12      1.0000 0.10880  0.82280  0.17400  Biso   1.000  O
  C15      1.0000 0.34330  0.87830  0.47220  Biso   1.000  C
  C16      1.0000 0.42440  0.87950  0.61690  Biso   1.000  C
  C17      1.0000 0.34000  0.88940  0.69520  Biso   1.000  C
  H9       1.0000 0.22970  0.89610  0.65780  Biso   1.000  H
  C18      1.0000 0.41400  0.88970  0.82970  Biso   1.000  C
  H10      1.0000 0.35570  0.89660  0.88180  Biso   1.000  H
  C19      1.0000 0.18260  0.93380  0.13790  Biso   1.000  C
  C20      1.0000 0.08790  0.96780  0.06680  Biso   1.000  C
  C21      1.0000 0.16070  0.99230  0.00000  Biso   1.000  C
  H11      1.0000 0.26440  0.98710  0.99860  Biso   1.000  H
  C22      1.0000 0.06970  0.02500  0.93520  Biso   1.000  C
  H12      1.0000 0.11620  0.04210  0.89300  Biso   1.000  H
  C23      1.0000 0.22940  0.81970  0.13970  Biso   1.000  C
  C24      1.0000 0.24100  0.78280  0.06820  Biso   1.000  C
  C25      1.0000 0.12110  0.75390  0.04820  Biso   1.000  C
  H13      1.0000 0.03510  0.75660  0.07820  Biso   1.000  H
  C26      1.0000 0.13860  0.72100  0.98050  Biso   1.000  C
  H14      1.0000 0.06400  0.70080  0.96840  Biso   1.000  H
  C27      1.0000 0.33300  0.86840  0.69200  Biso   1.000  C
  H15      1.0000 0.22420  0.86090  0.65220  Biso   1.000  H
  C28      1.0000 0.40300  0.86870  0.82700  Biso   1.000  C
  H16      1.0000 0.34270  0.86220  0.87830  Biso   1.000  H
  O13      1.0000 0.07190  0.38730  0.09320  Biso   1.000  O
  O14      1.0000 0.30390  0.36780  0.07260  Biso   1.000  O
  O15      1.0000 0.16860  0.43148  0.34420  Biso   1.000  O
  O16      1.0000 0.39550  0.40900  0.32100  Biso   1.000  O
  O17      1.0000 0.16290  0.34450  0.34210  Biso   1.000  O
  O18      1.0000 0.39120  0.32280  0.32600  Biso   1.000  O
  C29      1.0000 0.15670  0.37830  0.02780  Biso   1.000  C
  C30      1.0000 0.07560  0.37950  0.88310  Biso   1.000  C
  C31      1.0000 0.16000  0.38940  0.80480  Biso   1.000  C
  H17      1.0000 0.27030  0.39610  0.84220  Biso   1.000  H
  C32      1.0000 0.08600  0.38970  0.67030  Biso   1.000  C
  H18      1.0000 0.14430  0.39660  0.61820  Biso   1.000  H
  C33      1.0000 0.31740  0.43380  0.36210  Biso   1.000  C
  C34      1.0000 0.41210  0.46780  0.43320  Biso   1.000  C
  C35      1.0000 0.33930  0.49230  0.50000  Biso   1.000  C
  H19      1.0000 0.23560  0.48710  0.50140  Biso   1.000  H
  C36      1.0000 0.43030  0.52500  0.56480  Biso   1.000  C
  H20      1.0000 0.38380  0.54210  0.60700  Biso   1.000  H
  C37      1.0000 0.27060  0.31970  0.36030  Biso   1.000  C
  C38      1.0000 0.25900  0.28280  0.43180  Biso   1.000  C
  C39      1.0000 0.37890  0.25390  0.45180  Biso   1.000  C
  H21      1.0000 0.46490  0.25660  0.42180  Biso   1.000  H
  C40      1.0000 0.36140  0.22100  0.51950  Biso   1.000  C
  H22      1.0000 0.43600  0.20080  0.53160  Biso   1.000  H
  C41      1.0000 0.16700  0.36840  0.80800  Biso   1.000  C
  H23      1.0000 0.27580  0.36090  0.84780  Biso   1.000  H
  C42      1.0000 0.09700  0.36870  0.67300  Biso   1.000  C
  H24      1.0000 0.15730  0.36220  0.62170  Biso   1.000  H
  O19      1.0000 0.57190  0.88730  0.09320  Biso   1.000  O
  O20      1.0000 0.80390  0.86780  0.07260  Biso   1.000  O
  O21      1.0000 0.66860  0.93148  0.34420  Biso   1.000  O
  O22      1.0000 0.89550  0.90900  0.32100  Biso   1.000  O
  O23      1.0000 0.66290  0.84450  0.34210  Biso   1.000  O
  O24      1.0000 0.89120  0.82280  0.32600  Biso   1.000  O
  C43      1.0000 0.65670  0.87830  0.02780  Biso   1.000  C
  C44      1.0000 0.57560  0.87950  0.88310  Biso   1.000  C
  C45      1.0000 0.66000  0.88940  0.80480  Biso   1.000  C
  H25      1.0000 0.77030  0.89610  0.84220  Biso   1.000  H
  C46      1.0000 0.58600  0.88970  0.67030  Biso   1.000  C
  H26      1.0000 0.64430  0.89660  0.61820  Biso   1.000  H
  C47      1.0000 0.81740  0.93380  0.36210  Biso   1.000  C
  C48      1.0000 0.91210  0.96780  0.43320  Biso   1.000  C
  C49      1.0000 0.83930  0.99230  0.50000  Biso   1.000  C
  H27      1.0000 0.73560  0.98710  0.50140  Biso   1.000  H
  C50      1.0000 0.93030  0.02500  0.56480  Biso   1.000  C
  H28      1.0000 0.88380  0.04210  0.60700  Biso   1.000  H
  C51      1.0000 0.77060  0.81970  0.36030  Biso   1.000  C
  C52      1.0000 0.75900  0.78280  0.43180  Biso   1.000  C
  C53      1.0000 0.87890  0.75390  0.45180  Biso   1.000  C
  H29      1.0000 0.96490  0.75660  0.42180  Biso   1.000  H
  C54      1.0000 0.86140  0.72100  0.51950  Biso   1.000  C
  H30      1.0000 0.93600  0.70080  0.53160  Biso   1.000  H
  C55      1.0000 0.66700  0.86840  0.80800  Biso   1.000  C
  H31      1.0000 0.77580  0.86090  0.84780  Biso   1.000  H
  C56      1.0000 0.59700  0.86870  0.67300  Biso   1.000  C
  H32      1.0000 0.65730  0.86220  0.62170  Biso   1.000  H
  O25      1.0000 0.07190  0.61270  0.59320  Biso   1.000  O
  O26      1.0000 0.30390  0.63220  0.57260  Biso   1.000  O
  O27      1.0000 0.16860  0.56852  0.84420  Biso   1.000  O
  O28      1.0000 0.39550  0.59100  0.82100  Biso   1.000  O
  O29      1.0000 0.16290  0.65550  0.84210  Biso   1.000  O
  O30      1.0000 0.39120  0.67720  0.82600  Biso   1.000  O
  C57      1.0000 0.15670  0.62170  0.52780  Biso   1.000  C
  C58      1.0000 0.07560  0.62050  0.38310  Biso   1.000  C
  C59      1.0000 0.16000  0.61060  0.30480  Biso   1.000  C
  H33      1.0000 0.27030  0.60390  0.34220  Biso   1.000  H
  C60      1.0000 0.08600  0.61030  0.17030  Biso   1.000  C
  H34      1.0000 0.14430  0.60340  0.11820  Biso   1.000  H
  C61      1.0000 0.31740  0.56620  0.86210  Biso   1.000  C
  C62      1.0000 0.41210  0.53220  0.93320  Biso   1.000  C
  C63      1.0000 0.33930  0.50770  0.00000  Biso   1.000  C
  H35      1.0000 0.23560  0.51290  0.00140  Biso   1.000  H
  C64      1.0000 0.43030  0.47500  0.06480  Biso   1.000  C
  H36      1.0000 0.38380  0.45790  0.10700  Biso   1.000  H
  C65      1.0000 0.27060  0.68030  0.86030  Biso   1.000  C
  C66      1.0000 0.25900  0.71720  0.93180  Biso   1.000  C
  C67      1.0000 0.37890  0.74610  0.95180  Biso   1.000  C
  H37      1.0000 0.46490  0.74340  0.92180  Biso   1.000  H
  C68      1.0000 0.36140  0.77900  0.01950  Biso   1.000  C
  H38      1.0000 0.43600  0.79920  0.03160  Biso   1.000  H
  C69      1.0000 0.16700  0.63160  0.30800  Biso   1.000  C
  H39      1.0000 0.27580  0.63910  0.34780  Biso   1.000  H
  C70      1.0000 0.09700  0.63130  0.17300  Biso   1.000  C
  H40      1.0000 0.15730  0.63780  0.12170  Biso   1.000  H
  O31      1.0000 0.57190  0.11270  0.59320  Biso   1.000  O
  O32      1.0000 0.80390  0.13220  0.57260  Biso   1.000  O
  O33      1.0000 0.66860  0.06852  0.84420  Biso   1.000  O
  O34      1.0000 0.89550  0.09100  0.82100  Biso   1.000  O
  O35      1.0000 0.66290  0.15550  0.84210  Biso   1.000  O
  O36      1.0000 0.89120  0.17720  0.82600  Biso   1.000  O
  C71      1.0000 0.65670  0.12170  0.52780  Biso   1.000  C
  C72      1.0000 0.57560  0.12050  0.38310  Biso   1.000  C
  C73      1.0000 0.66000  0.11060  0.30480  Biso   1.000  C
  H41      1.0000 0.77030  0.10390  0.34220  Biso   1.000  H
  C74      1.0000 0.58600  0.11030  0.17030  Biso   1.000  C
  H42      1.0000 0.64430  0.10340  0.11820  Biso   1.000  H
  C75      1.0000 0.81740  0.06620  0.86210  Biso   1.000  C
  C76      1.0000 0.91210  0.03220  0.93320  Biso   1.000  C
  C77      1.0000 0.83930  0.00770  0.00000  Biso   1.000  C
  H43      1.0000 0.73560  0.01290  0.00140  Biso   1.000  H
  C78      1.0000 0.93030  0.97500  0.06480  Biso   1.000  C
  H44      1.0000 0.88380  0.95790  0.10700  Biso   1.000  H
  C79      1.0000 0.77060  0.18030  0.86030  Biso   1.000  C
  C80      1.0000 0.75900  0.21720  0.93180  Biso   1.000  C
  C81      1.0000 0.87890  0.24610  0.95180  Biso   1.000  C
  H45      1.0000 0.96490  0.24340  0.92180  Biso   1.000  H
  C82      1.0000 0.86140  0.27900  0.01950  Biso   1.000  C
  H46      1.0000 0.93600  0.29920  0.03160  Biso   1.000  H
  C83      1.0000 0.66700  0.13160  0.30800  Biso   1.000  C
  H47      1.0000 0.77580  0.13910  0.34780  Biso   1.000  H
  C84      1.0000 0.59700  0.13130  0.17300  Biso   1.000  C
  H48      1.0000 0.65730  0.13780  0.12170  Biso   1.000  H
  O37      1.0000 0.92810  0.61270  0.90680  Biso   1.000  O
  O38      1.0000 0.69610  0.63220  0.92740  Biso   1.000  O
  O39      1.0000 0.83140  0.56852  0.65580  Biso   1.000  O
  O40      1.0000 0.60450  0.59100  0.67900  Biso   1.000  O
  O41      1.0000 0.83710  0.65550  0.65790  Biso   1.000  O
  O42      1.0000 0.60880  0.67720  0.67400  Biso   1.000  O
  C85      1.0000 0.84330  0.62170  0.97220  Biso   1.000  C
  C86      1.0000 0.92440  0.62050  0.11690  Biso   1.000  C
  C87      1.0000 0.84000  0.61060  0.19520  Biso   1.000  C
  H49      1.0000 0.72970  0.60390  0.15780  Biso   1.000  H
  C88      1.0000 0.91400  0.61030  0.32970  Biso   1.000  C
  H50      1.0000 0.85570  0.60340  0.38180  Biso   1.000  H
  C89      1.0000 0.68260  0.56620  0.63790  Biso   1.000  C
  C90      1.0000 0.58790  0.53220  0.56680  Biso   1.000  C
  C91      1.0000 0.66070  0.50770  0.50000  Biso   1.000  C
  H51      1.0000 0.76440  0.51290  0.49860  Biso   1.000  H
  C92      1.0000 0.56970  0.47500  0.43520  Biso   1.000  C
  H52      1.0000 0.61620  0.45790  0.39300  Biso   1.000  H
  C93      1.0000 0.72940  0.68030  0.63970  Biso   1.000  C
  C94      1.0000 0.74100  0.71720  0.56820  Biso   1.000  C
  C95      1.0000 0.62110  0.74610  0.54820  Biso   1.000  C
  H53      1.0000 0.53510  0.74340  0.57820  Biso   1.000  H
  C96      1.0000 0.63860  0.77900  0.48050  Biso   1.000  C
  H54      1.0000 0.56400  0.79920  0.46840  Biso   1.000  H
  C97      1.0000 0.83300  0.63160  0.19200  Biso   1.000  C
  H55      1.0000 0.72420  0.63910  0.15220  Biso   1.000  H
  C98      1.0000 0.90300  0.63130  0.32700  Biso   1.000  C
  H56      1.0000 0.84270  0.63780  0.37830  Biso   1.000  H
  O43      1.0000 0.42810  0.11270  0.90680  Biso   1.000  O
  O44      1.0000 0.19610  0.13220  0.92740  Biso   1.000  O
  O45      1.0000 0.33140  0.06852  0.65580  Biso   1.000  O
  O46      1.0000 0.10450  0.09100  0.67900  Biso   1.000  O
  O47      1.0000 0.33710  0.15550  0.65790  Biso   1.000  O
  O48      1.0000 0.10880  0.17720  0.67400  Biso   1.000  O
  C99      1.0000 0.34330  0.12170  0.97220  Biso   1.000  C
  C100     1.0000 0.42440  0.12050  0.11690  Biso   1.000  C
  C101     1.0000 0.34000  0.11060  0.19520  Biso   1.000  C
  H57      1.0000 0.22970  0.10390  0.15780  Biso   1.000  H
  C102     1.0000 0.41400  0.11030  0.32970  Biso   1.000  C
  H58      1.0000 0.35570  0.10340  0.38180  Biso   1.000  H
  C103     1.0000 0.18260  0.06620  0.63790  Biso   1.000  C
  C104     1.0000 0.08790  0.03220  0.56680  Biso   1.000  C
  C105     1.0000 0.16070  0.00770  0.50000  Biso   1.000  C
  H59      1.0000 0.26440  0.01290  0.49860  Biso   1.000  H
  C106     1.0000 0.06970  0.97500  0.43520  Biso   1.000  C
  H60      1.0000 0.11620  0.95790  0.39300  Biso   1.000  H
  C107     1.0000 0.22940  0.18030  0.63970  Biso   1.000  C
  C108     1.0000 0.24100  0.21720  0.56820  Biso   1.000  C
  C109     1.0000 0.12110  0.24610  0.54820  Biso   1.000  C
  H61      1.0000 0.03510  0.24340  0.57820  Biso   1.000  H
  C110     1.0000 0.13860  0.27900  0.48050  Biso   1.000  C
  H62      1.0000 0.06400  0.29920  0.46840  Biso   1.000  H
  C111     1.0000 0.33300  0.13160  0.19200  Biso   1.000  C
  H63      1.0000 0.22420  0.13910  0.15220  Biso   1.000  H
  C112     1.0000 0.40300  0.13130  0.32700  Biso   1.000  C
  H64      1.0000 0.34270  0.13780  0.37830  Biso   1.000  H
  Sc1      1.0000 0.50000  0.36605  0.25000  Biso   1.000  Sc
  Sc2      1.0000 0.00000  0.86605  0.25000  Biso   1.000  Sc
  Sc3      1.0000 0.50000  0.63395  0.75000  Biso   1.000  Sc
  Sc4      1.0000 0.00000  0.13395  0.75000  Biso   1.000  Sc
  Sc5      1.0000 0.00000  0.38725  0.25000  Biso   1.000  Sc
  Sc6      1.0000 0.50000  0.88725  0.25000  Biso   1.000  Sc
  Sc7      1.0000 0.00000  0.61275  0.75000  Biso   1.000  Sc
  Sc8      1.0000 0.50000  0.11275  0.75000  Biso   1.000  Sc
