data_image0
_cell_length_a       15.265
_cell_length_b       16.886
_cell_length_c       12.48
_cell_angle_alpha    90
_cell_angle_beta     90
_cell_angle_gamma    90

_symmetry_space_group_name_H-M    "P 1"
_symmetry_int_tables_number       1

loop_
  _symmetry_equiv_pos_as_xyz
  'x, y, z'

loop_
  _atom_site_label
  _atom_site_occupancy
  _atom_site_fract_x
  _atom_site_fract_y
  _atom_site_fract_z
  _atom_site_thermal_displace_type
  _atom_site_B_iso_or_equiv
  _atom_site_type_symbol
  O1       1.0000 0.08434  0.14692  0.15395  Biso   1.000  O
  O2       1.0000 0.09501  0.08589  0.00407  Biso   1.000  O
  C1       1.0000 0.11760  0.13657  0.06630  Biso   1.000  C
  C2       1.0000 0.18890  0.19270  0.03070  Biso   1.000  C
  C3       1.0000 0.22640  0.18910  0.93090  Biso   1.000  C
  C4       1.0000 0.21110  0.25670  0.09760  Biso   1.000  C
  H1       1.0000 0.18250  0.26240  0.16300  Biso   1.000  H
  N1       1.0000 0.21160  0.12010  0.86580  Biso   1.000  N
  H2       1.0000 0.24210  0.11280  0.80870  Biso   1.000  H
  H3       1.0000 0.17230  0.08620  0.88390  Biso   1.000  H
  H4       1.0000 0.95020  0.86020  0.23860  Biso   1.000  H
  O3       1.0000 0.58434  0.64692  0.15395  Biso   1.000  O
  O4       1.0000 0.59501  0.58589  0.00407  Biso   1.000  O
  C5       1.0000 0.61760  0.63657  0.06630  Biso   1.000  C
  C6       1.0000 0.68890  0.69270  0.03070  Biso   1.000  C
  C7       1.0000 0.72640  0.68910  0.93090  Biso   1.000  C
  C8       1.0000 0.71110  0.75670  0.09760  Biso   1.000  C
  H5       1.0000 0.68250  0.76240  0.16300  Biso   1.000  H
  N2       1.0000 0.71160  0.62010  0.86580  Biso   1.000  N
  H6       1.0000 0.74210  0.61280  0.80870  Biso   1.000  H
  H7       1.0000 0.67230  0.58620  0.88390  Biso   1.000  H
  H8       1.0000 0.45020  0.36020  0.23860  Biso   1.000  H
  O5       1.0000 0.91566  0.85308  0.65395  Biso   1.000  O
  O6       1.0000 0.90499  0.91411  0.50407  Biso   1.000  O
  C9       1.0000 0.88240  0.86343  0.56630  Biso   1.000  C
  C10      1.0000 0.81110  0.80730  0.53070  Biso   1.000  C
  C11      1.0000 0.77360  0.81090  0.43090  Biso   1.000  C
  C12      1.0000 0.78890  0.74330  0.59760  Biso   1.000  C
  H9       1.0000 0.81750  0.73760  0.66300  Biso   1.000  H
  N3       1.0000 0.78840  0.87990  0.36580  Biso   1.000  N
  H10      1.0000 0.75790  0.88720  0.30870  Biso   1.000  H
  H11      1.0000 0.82770  0.91380  0.38390  Biso   1.000  H
  H12      1.0000 0.04980  0.13980  0.73860  Biso   1.000  H
  O7       1.0000 0.41566  0.35308  0.65395  Biso   1.000  O
  O8       1.0000 0.40499  0.41411  0.50407  Biso   1.000  O
  C13      1.0000 0.38240  0.36343  0.56630  Biso   1.000  C
  C14      1.0000 0.31110  0.30730  0.53070  Biso   1.000  C
  C15      1.0000 0.27360  0.31090  0.43090  Biso   1.000  C
  C16      1.0000 0.28890  0.24330  0.59760  Biso   1.000  C
  H13      1.0000 0.31750  0.23760  0.66300  Biso   1.000  H
  N4       1.0000 0.28840  0.37990  0.36580  Biso   1.000  N
  H14      1.0000 0.25790  0.38720  0.30870  Biso   1.000  H
  H15      1.0000 0.32770  0.41380  0.38390  Biso   1.000  H
  H16      1.0000 0.54980  0.63980  0.73860  Biso   1.000  H
  O9       1.0000 0.91566  0.14692  0.34605  Biso   1.000  O
  O10      1.0000 0.90499  0.08589  0.49593  Biso   1.000  O
  C17      1.0000 0.88240  0.13657  0.43370  Biso   1.000  C
  C18      1.0000 0.81110  0.19270  0.46930  Biso   1.000  C
  C19      1.0000 0.77360  0.18910  0.56910  Biso   1.000  C
  C20      1.0000 0.78890  0.25670  0.40240  Biso   1.000  C
  H17      1.0000 0.81750  0.26240  0.33700  Biso   1.000  H
  N5       1.0000 0.78840  0.12010  0.63420  Biso   1.000  N
  H18      1.0000 0.75790  0.11280  0.69130  Biso   1.000  H
  H19      1.0000 0.82770  0.08620  0.61610  Biso   1.000  H
  H20      1.0000 0.04980  0.86020  0.26140  Biso   1.000  H
  O11      1.0000 0.41566  0.64692  0.34605  Biso   1.000  O
  O12      1.0000 0.40499  0.58589  0.49593  Biso   1.000  O
  C21      1.0000 0.38240  0.63657  0.43370  Biso   1.000  C
  C22      1.0000 0.31110  0.69270  0.46930  Biso   1.000  C
  C23      1.0000 0.27360  0.68910  0.56910  Biso   1.000  C
  C24      1.0000 0.28890  0.75670  0.40240  Biso   1.000  C
  H21      1.0000 0.31750  0.76240  0.33700  Biso   1.000  H
  N6       1.0000 0.28840  0.62010  0.63420  Biso   1.000  N
  H22      1.0000 0.25790  0.61280  0.69130  Biso   1.000  H
  H23      1.0000 0.32770  0.58620  0.61610  Biso   1.000  H
  H24      1.0000 0.54980  0.36020  0.26140  Biso   1.000  H
  O13      1.0000 0.08434  0.85308  0.84605  Biso   1.000  O
  O14      1.0000 0.09501  0.91411  0.99593  Biso   1.000  O
  C25      1.0000 0.11760  0.86343  0.93370  Biso   1.000  C
  C26      1.0000 0.18890  0.80730  0.96930  Biso   1.000  C
  C27      1.0000 0.22640  0.81090  0.06910  Biso   1.000  C
  C28      1.0000 0.21110  0.74330  0.90240  Biso   1.000  C
  H25      1.0000 0.18250  0.73760  0.83700  Biso   1.000  H
  N7       1.0000 0.21160  0.87990  0.13420  Biso   1.000  N
  H26      1.0000 0.24210  0.88720  0.19130  Biso   1.000  H
  H27      1.0000 0.17230  0.91380  0.11610  Biso   1.000  H
  H28      1.0000 0.95020  0.13980  0.76140  Biso   1.000  H
  O15      1.0000 0.58434  0.35308  0.84605  Biso   1.000  O
  O16      1.0000 0.59501  0.41411  0.99593  Biso   1.000  O
  C29      1.0000 0.61760  0.36343  0.93370  Biso   1.000  C
  C30      1.0000 0.68890  0.30730  0.96930  Biso   1.000  C
  C31      1.0000 0.72640  0.31090  0.06910  Biso   1.000  C
  C32      1.0000 0.71110  0.24330  0.90240  Biso   1.000  C
  H29      1.0000 0.68250  0.23760  0.83700  Biso   1.000  H
  N8       1.0000 0.71160  0.37990  0.13420  Biso   1.000  N
  H30      1.0000 0.74210  0.38720  0.19130  Biso   1.000  H
  H31      1.0000 0.67230  0.41380  0.11610  Biso   1.000  H
  H32      1.0000 0.45020  0.63980  0.76140  Biso   1.000  H
  O17      1.0000 0.91566  0.85308  0.84605  Biso   1.000  O
  O18      1.0000 0.90499  0.91411  0.99593  Biso   1.000  O
  C33      1.0000 0.88240  0.86343  0.93370  Biso   1.000  C
  C34      1.0000 0.81110  0.80730  0.96930  Biso   1.000  C
  C35      1.0000 0.77360  0.81090  0.06910  Biso   1.000  C
  C36      1.0000 0.78890  0.74330  0.90240  Biso   1.000  C
  H33      1.0000 0.81750  0.73760  0.83700  Biso   1.000  H
  N9       1.0000 0.78840  0.87990  0.13420  Biso   1.000  N
  H34      1.0000 0.75790  0.88720  0.19130  Biso   1.000  H
  H35      1.0000 0.82770  0.91380  0.11610  Biso   1.000  H
  H36      1.0000 0.04980  0.13980  0.76140  Biso   1.000  H
  O19      1.0000 0.41566  0.35308  0.84605  Biso   1.000  O
  O20      1.0000 0.40499  0.41411  0.99593  Biso   1.000  O
  C37      1.0000 0.38240  0.36343  0.93370  Biso   1.000  C
  C38      1.0000 0.31110  0.30730  0.96930  Biso   1.000  C
  C39      1.0000 0.27360  0.31090  0.06910  Biso   1.000  C
  C40      1.0000 0.28890  0.24330  0.90240  Biso   1.000  C
  H37      1.0000 0.31750  0.23760  0.83700  Biso   1.000  H
  N10      1.0000 0.28840  0.37990  0.13420  Biso   1.000  N
  H38      1.0000 0.25790  0.38720  0.19130  Biso   1.000  H
  H39      1.0000 0.32770  0.41380  0.11610  Biso   1.000  H
  H40      1.0000 0.54980  0.63980  0.76140  Biso   1.000  H
  O21      1.0000 0.08434  0.14692  0.34605  Biso   1.000  O
  O22      1.0000 0.09501  0.08589  0.49593  Biso   1.000  O
  C41      1.0000 0.11760  0.13657  0.43370  Biso   1.000  C
  C42      1.0000 0.18890  0.19270  0.46930  Biso   1.000  C
  C43      1.0000 0.22640  0.18910  0.56910  Biso   1.000  C
  C44      1.0000 0.21110  0.25670  0.40240  Biso   1.000  C
  H41      1.0000 0.18250  0.26240  0.33700  Biso   1.000  H
  N11      1.0000 0.21160  0.12010  0.63420  Biso   1.000  N
  H42      1.0000 0.24210  0.11280  0.69130  Biso   1.000  H
  H43      1.0000 0.17230  0.08620  0.61610  Biso   1.000  H
  H44      1.0000 0.95020  0.86020  0.26140  Biso   1.000  H
  O23      1.0000 0.58434  0.64692  0.34605  Biso   1.000  O
  O24      1.0000 0.59501  0.58589  0.49593  Biso   1.000  O
  C45      1.0000 0.61760  0.63657  0.43370  Biso   1.000  C
  C46      1.0000 0.68890  0.69270  0.46930  Biso   1.000  C
  C47      1.0000 0.72640  0.68910  0.56910  Biso   1.000  C
  C48      1.0000 0.71110  0.75670  0.40240  Biso   1.000  C
  H45      1.0000 0.68250  0.76240  0.33700  Biso   1.000  H
  N12      1.0000 0.71160  0.62010  0.63420  Biso   1.000  N
  H46      1.0000 0.74210  0.61280  0.69130  Biso   1.000  H
  H47      1.0000 0.67230  0.58620  0.61610  Biso   1.000  H
  H48      1.0000 0.45020  0.36020  0.26140  Biso   1.000  H
  O25      1.0000 0.08434  0.85308  0.65395  Biso   1.000  O
  O26      1.0000 0.09501  0.91411  0.50407  Biso   1.000  O
  C49      1.0000 0.11760  0.86343  0.56630  Biso   1.000  C
  C50      1.0000 0.18890  0.80730  0.53070  Biso   1.000  C
  C51      1.0000 0.22640  0.81090  0.43090  Biso   1.000  C
  C52      1.0000 0.21110  0.74330  0.59760  Biso   1.000  C
  H49      1.0000 0.18250  0.73760  0.66300  Biso   1.000  H
  N13      1.0000 0.21160  0.87990  0.36580  Biso   1.000  N
  H50      1.0000 0.24210  0.88720  0.30870  Biso   1.000  H
  H51      1.0000 0.17230  0.91380  0.38390  Biso   1.000  H
  H52      1.0000 0.95020  0.13980  0.73860  Biso   1.000  H
  O27      1.0000 0.58434  0.35308  0.65395  Biso   1.000  O
  O28      1.0000 0.59501  0.41411  0.50407  Biso   1.000  O
  C53      1.0000 0.61760  0.36343  0.56630  Biso   1.000  C
  C54      1.0000 0.68890  0.30730  0.53070  Biso   1.000  C
  C55      1.0000 0.72640  0.31090  0.43090  Biso   1.000  C
  C56      1.0000 0.71110  0.24330  0.59760  Biso   1.000  C
  H53      1.0000 0.68250  0.23760  0.66300  Biso   1.000  H
  N14      1.0000 0.71160  0.37990  0.36580  Biso   1.000  N
  H54      1.0000 0.74210  0.38720  0.30870  Biso   1.000  H
  H55      1.0000 0.67230  0.41380  0.38390  Biso   1.000  H
  H56      1.0000 0.45020  0.63980  0.73860  Biso   1.000  H
  O29      1.0000 0.91566  0.14692  0.15395  Biso   1.000  O
  O30      1.0000 0.90499  0.08589  0.00407  Biso   1.000  O
  C57      1.0000 0.88240  0.13657  0.06630  Biso   1.000  C
  C58      1.0000 0.81110  0.19270  0.03070  Biso   1.000  C
  C59      1.0000 0.77360  0.18910  0.93090  Biso   1.000  C
  C60      1.0000 0.78890  0.25670  0.09760  Biso   1.000  C
  H57      1.0000 0.81750  0.26240  0.16300  Biso   1.000  H
  N15      1.0000 0.78840  0.12010  0.86580  Biso   1.000  N
  H58      1.0000 0.75790  0.11280  0.80870  Biso   1.000  H
  H59      1.0000 0.82770  0.08620  0.88390  Biso   1.000  H
  H60      1.0000 0.04980  0.86020  0.23860  Biso   1.000  H
  O31      1.0000 0.41566  0.64692  0.15395  Biso   1.000  O
  O32      1.0000 0.40499  0.58589  0.00407  Biso   1.000  O
  C61      1.0000 0.38240  0.63657  0.06630  Biso   1.000  C
  C62      1.0000 0.31110  0.69270  0.03070  Biso   1.000  C
  C63      1.0000 0.27360  0.68910  0.93090  Biso   1.000  C
  C64      1.0000 0.28890  0.75670  0.09760  Biso   1.000  C
  H61      1.0000 0.31750  0.76240  0.16300  Biso   1.000  H
  N16      1.0000 0.28840  0.62010  0.86580  Biso   1.000  N
  H62      1.0000 0.25790  0.61280  0.80870  Biso   1.000  H
  H63      1.0000 0.32770  0.58620  0.88390  Biso   1.000  H
  H64      1.0000 0.54980  0.36020  0.23860  Biso   1.000  H
  Mg1      1.0000 0.00000  0.10898  0.25000  Biso   1.000  Mg
  O33      1.0000 0.00000  0.87640  0.25000  Biso   1.000  O
  N17      1.0000 0.00000  0.95730  0.25000  Biso   1.000  N
  Mg2      1.0000 0.50000  0.60898  0.25000  Biso   1.000  Mg
  O34      1.0000 0.50000  0.37640  0.25000  Biso   1.000  O
  N18      1.0000 0.50000  0.45730  0.25000  Biso   1.000  N
  Mg3      1.0000 0.00000  0.89102  0.75000  Biso   1.000  Mg
  O35      1.0000 0.00000  0.12360  0.75000  Biso   1.000  O
  N19      1.0000 0.00000  0.04270  0.75000  Biso   1.000  N
  Mg4      1.0000 0.50000  0.39102  0.75000  Biso   1.000  Mg
  O36      1.0000 0.50000  0.62360  0.75000  Biso   1.000  O
  N20      1.0000 0.50000  0.54270  0.75000  Biso   1.000  N
  Mg5      1.0000 0.00000  0.00000  0.00000  Biso   1.000  Mg
  Mg6      1.0000 0.50000  0.50000  0.00000  Biso   1.000  Mg
  Mg7      1.0000 0.00000  0.00000  0.50000  Biso   1.000  Mg
  Mg8      1.0000 0.50000  0.50000  0.50000  Biso   1.000  Mg
  O37      1.0000 0.00000  0.99925  0.16230  Biso   1.000  O
  O38      1.0000 0.50000  0.49925  0.16230  Biso   1.000  O
  O39      1.0000 0.00000  0.00075  0.66230  Biso   1.000  O
  O40      1.0000 0.50000  0.50075  0.66230  Biso   1.000  O
  O41      1.0000 0.00000  0.99925  0.33770  Biso   1.000  O
  O42      1.0000 0.50000  0.49925  0.33770  Biso   1.000  O
  O43      1.0000 0.00000  0.00075  0.83770  Biso   1.000  O
  O44      1.0000 0.50000  0.50075  0.83770  Biso   1.000  O
