data_image0
_cell_length_a       13.4938
_cell_length_b       8.7231
_cell_length_c       22.5819
_cell_angle_alpha    90
_cell_angle_beta     95.3654
_cell_angle_gamma    90

_symmetry_space_group_name_H-M    "P 1"
_symmetry_int_tables_number       1

loop_
  _symmetry_equiv_pos_as_xyz
  'x, y, z'

loop_
  _atom_site_label
  _atom_site_occupancy
  _atom_site_fract_x
  _atom_site_fract_y
  _atom_site_fract_z
  _atom_site_thermal_displace_type
  _atom_site_B_iso_or_equiv
  _atom_site_type_symbol
  C1       1.0000 0.98217  0.59639  0.29104  Biso   1.000  C
  H1       1.0000 0.94570  0.66940  0.26660  Biso   1.000  H
  C2       1.0000 0.08485  0.59166  0.29026  Biso   1.000  C
  H2       1.0000 0.11820  0.65960  0.26590  Biso   1.000  H
  C3       1.0000 0.13745  0.48387  0.32637  Biso   1.000  C
  C4       1.0000 0.08678  0.38939  0.36279  Biso   1.000  C
  H3       1.0000 0.12160  0.31810  0.38880  Biso   1.000  H
  C5       1.0000 0.98406  0.40173  0.36020  Biso   1.000  C
  H4       1.0000 0.94900  0.33610  0.38450  Biso   1.000  H
  C6       1.0000 0.38822  0.49008  0.29133  Biso   1.000  C
  C7       1.0000 0.43942  0.54205  0.24445  Biso   1.000  C
  H5       1.0000 0.40470  0.58590  0.21000  Biso   1.000  H
  C8       1.0000 0.54241  0.52824  0.24925  Biso   1.000  C
  H6       1.0000 0.57760  0.56350  0.21740  Biso   1.000  H
  C9       1.0000 0.54340  0.41177  0.34101  Biso   1.000  C
  H7       1.0000 0.57960  0.36440  0.37420  Biso   1.000  H
  C10      1.0000 0.44088  0.42065  0.34009  Biso   1.000  C
  H8       1.0000 0.40740  0.38050  0.37180  Biso   1.000  H
  C11      1.0000 0.76926  0.35949  0.18594  Biso   1.000  C
  C12      1.0000 0.79965  0.38094  0.12332  Biso   1.000  C
  H9       1.0000 0.78900  0.28370  0.10100  Biso   1.000  H
  H10      1.0000 0.75690  0.46030  0.10260  Biso   1.000  H
  C13      1.0000 0.90768  0.42831  0.12349  Biso   1.000  C
  C14      1.0000 0.93803  0.53297  0.08222  Biso   1.000  C
  H11      1.0000 0.88980  0.58060  0.05490  Biso   1.000  H
  C15      1.0000 0.03830  0.56827  0.08072  Biso   1.000  C
  H12      1.0000 0.05760  0.63940  0.05210  Biso   1.000  H
  C16      1.0000 0.11096  0.50128  0.12042  Biso   1.000  C
  C17      1.0000 0.08071  0.39692  0.16166  Biso   1.000  C
  H13      1.0000 0.12890  0.34950  0.18910  Biso   1.000  H
  C18      1.0000 0.98045  0.36146  0.16305  Biso   1.000  C
  H14      1.0000 0.96120  0.29010  0.19160  Biso   1.000  H
  C19      1.0000 0.21978  0.54021  0.11805  Biso   1.000  C
  H15      1.0000 0.22920  0.65230  0.12270  Biso   1.000  H
  H16      1.0000 0.25980  0.48900  0.15130  Biso   1.000  H
  C20      1.0000 0.25533  0.48928  0.05978  Biso   1.000  C
  C21      1.0000 0.75460  0.43378  0.45364  Biso   1.000  C
  C22      1.0000 0.71780  0.50661  0.50921  Biso   1.000  C
  H17      1.0000 0.74520  0.44980  0.54500  Biso   1.000  H
  H18      1.0000 0.74130  0.61400  0.51300  Biso   1.000  H
  C23      1.0000 0.60526  0.50295  0.50493  Biso   1.000  C
  C24      1.0000 0.54951  0.62107  0.47661  Biso   1.000  C
  H19      1.0000 0.58290  0.70480  0.46030  Biso   1.000  H
  C25      1.0000 0.44597  0.61880  0.47173  Biso   1.000  C
  H20      1.0000 0.40980  0.70080  0.45230  Biso   1.000  H
  Mn1      1.0000 0.76268  0.48804  0.31346  Biso   1.000  Mn
  N1       1.0000 0.93202  0.50252  0.32474  Biso   1.000  N
  N2       1.0000 0.24253  0.46082  0.32931  Biso   1.000  N
  N3       1.0000 0.28271  0.51459  0.28620  Biso   1.000  N
  N4       1.0000 0.59431  0.46695  0.29721  Biso   1.000  N
  O1       1.0000 0.77262  0.47789  0.21897  Biso   1.000  O
  O2       1.0000 0.74330  0.23084  0.20314  Biso   1.000  O
  O3       1.0000 0.26899  0.57585  0.01955  Biso   1.000  O
  O4       1.0000 0.26557  0.33858  0.05726  Biso   1.000  O
  H21      1.0000 0.27270  0.31300  0.02100  Biso   1.000  H
  O5       1.0000 0.75523  0.51772  0.40846  Biso   1.000  O
  O6       1.0000 0.77905  0.29361  0.45515  Biso   1.000  O
  H22      1.0000 0.25450  0.54490  0.15860  Biso   1.000  H
  H23      1.0000 0.22730  0.64020  0.09820  Biso   1.000  H
  C26      1.0000 0.26140  0.41090  0.08240  Biso   1.000  C
  O7       1.0000 0.29610  0.29830  0.10730  Biso   1.000  O
  O8       1.0000 0.25190  0.43060  0.02370  Biso   1.000  O
  H24      1.0000 0.27620  0.31140  0.02120  Biso   1.000  H
  C27      1.0000 0.51783  0.09639  0.20896  Biso   1.000  C
  H25      1.0000 0.55430  0.16940  0.23340  Biso   1.000  H
  C28      1.0000 0.41515  0.09166  0.20974  Biso   1.000  C
  H26      1.0000 0.38180  0.15960  0.23410  Biso   1.000  H
  C29      1.0000 0.36255  0.98387  0.17363  Biso   1.000  C
  C30      1.0000 0.41322  0.88939  0.13721  Biso   1.000  C
  H27      1.0000 0.37840  0.81810  0.11120  Biso   1.000  H
  C31      1.0000 0.51594  0.90173  0.13980  Biso   1.000  C
  H28      1.0000 0.55100  0.83610  0.11550  Biso   1.000  H
  C32      1.0000 0.11178  0.99008  0.20867  Biso   1.000  C
  C33      1.0000 0.06058  0.04205  0.25555  Biso   1.000  C
  H29      1.0000 0.09530  0.08590  0.29000  Biso   1.000  H
  C34      1.0000 0.95759  0.02824  0.25075  Biso   1.000  C
  H30      1.0000 0.92240  0.06350  0.28260  Biso   1.000  H
  C35      1.0000 0.95660  0.91177  0.15899  Biso   1.000  C
  H31      1.0000 0.92040  0.86440  0.12580  Biso   1.000  H
  C36      1.0000 0.05912  0.92065  0.15991  Biso   1.000  C
  H32      1.0000 0.09260  0.88050  0.12820  Biso   1.000  H
  C37      1.0000 0.73074  0.85949  0.31406  Biso   1.000  C
  C38      1.0000 0.70035  0.88094  0.37668  Biso   1.000  C
  H33      1.0000 0.71100  0.78370  0.39900  Biso   1.000  H
  H34      1.0000 0.74310  0.96030  0.39740  Biso   1.000  H
  C39      1.0000 0.59232  0.92831  0.37651  Biso   1.000  C
  C40      1.0000 0.56197  0.03297  0.41778  Biso   1.000  C
  H35      1.0000 0.61020  0.08060  0.44510  Biso   1.000  H
  C41      1.0000 0.46170  0.06827  0.41928  Biso   1.000  C
  H36      1.0000 0.44240  0.13940  0.44790  Biso   1.000  H
  C42      1.0000 0.38904  0.00128  0.37958  Biso   1.000  C
  C43      1.0000 0.41929  0.89692  0.33834  Biso   1.000  C
  H37      1.0000 0.37110  0.84950  0.31090  Biso   1.000  H
  C44      1.0000 0.51955  0.86146  0.33695  Biso   1.000  C
  H38      1.0000 0.53880  0.79010  0.30840  Biso   1.000  H
  C45      1.0000 0.28022  0.04021  0.38195  Biso   1.000  C
  H39      1.0000 0.27080  0.15230  0.37730  Biso   1.000  H
  H40      1.0000 0.24020  0.98900  0.34870  Biso   1.000  H
  C46      1.0000 0.24467  0.98928  0.44022  Biso   1.000  C
  C47      1.0000 0.74540  0.93378  0.04636  Biso   1.000  C
  C48      1.0000 0.78220  0.00661  0.99079  Biso   1.000  C
  H41      1.0000 0.75480  0.94980  0.95500  Biso   1.000  H
  H42      1.0000 0.75870  0.11400  0.98700  Biso   1.000  H
  C49      1.0000 0.89474  0.00295  0.99507  Biso   1.000  C
  C50      1.0000 0.95049  0.12107  0.02339  Biso   1.000  C
  H43      1.0000 0.91710  0.20480  0.03970  Biso   1.000  H
  C51      1.0000 0.05403  0.11880  0.02827  Biso   1.000  C
  H44      1.0000 0.09020  0.20080  0.04770  Biso   1.000  H
  Mn2      1.0000 0.73732  0.98804  0.18654  Biso   1.000  Mn
  N5       1.0000 0.56798  0.00252  0.17526  Biso   1.000  N
  N6       1.0000 0.25747  0.96082  0.17069  Biso   1.000  N
  N7       1.0000 0.21729  0.01459  0.21380  Biso   1.000  N
  N8       1.0000 0.90569  0.96695  0.20279  Biso   1.000  N
  O9       1.0000 0.72738  0.97789  0.28103  Biso   1.000  O
  O10      1.0000 0.75670  0.73084  0.29686  Biso   1.000  O
  O11      1.0000 0.23101  0.07585  0.48045  Biso   1.000  O
  O12      1.0000 0.23443  0.83858  0.44274  Biso   1.000  O
  H45      1.0000 0.22730  0.81300  0.47900  Biso   1.000  H
  O13      1.0000 0.74477  0.01772  0.09154  Biso   1.000  O
  O14      1.0000 0.72095  0.79361  0.04485  Biso   1.000  O
  H46      1.0000 0.24550  0.04490  0.34140  Biso   1.000  H
  H47      1.0000 0.27270  0.14020  0.40180  Biso   1.000  H
  C52      1.0000 0.23860  0.91090  0.41760  Biso   1.000  C
  O15      1.0000 0.20390  0.79830  0.39270  Biso   1.000  O
  O16      1.0000 0.24810  0.93060  0.47630  Biso   1.000  O
  H48      1.0000 0.22380  0.81140  0.47880  Biso   1.000  H
  C53      1.0000 0.01783  0.40361  0.70896  Biso   1.000  C
  H49      1.0000 0.05430  0.33060  0.73340  Biso   1.000  H
  C54      1.0000 0.91515  0.40834  0.70974  Biso   1.000  C
  H50      1.0000 0.88180  0.34040  0.73410  Biso   1.000  H
  C55      1.0000 0.86255  0.51613  0.67363  Biso   1.000  C
  C56      1.0000 0.91322  0.61061  0.63721  Biso   1.000  C
  H51      1.0000 0.87840  0.68190  0.61120  Biso   1.000  H
  C57      1.0000 0.01594  0.59827  0.63980  Biso   1.000  C
  H52      1.0000 0.05100  0.66390  0.61550  Biso   1.000  H
  C58      1.0000 0.61178  0.50992  0.70867  Biso   1.000  C
  C59      1.0000 0.56058  0.45795  0.75555  Biso   1.000  C
  H53      1.0000 0.59530  0.41410  0.79000  Biso   1.000  H
  C60      1.0000 0.45759  0.47176  0.75075  Biso   1.000  C
  H54      1.0000 0.42240  0.43650  0.78260  Biso   1.000  H
  C61      1.0000 0.45660  0.58823  0.65899  Biso   1.000  C
  H55      1.0000 0.42040  0.63560  0.62580  Biso   1.000  H
  C62      1.0000 0.55912  0.57935  0.65991  Biso   1.000  C
  H56      1.0000 0.59260  0.61950  0.62820  Biso   1.000  H
  C63      1.0000 0.23074  0.64051  0.81406  Biso   1.000  C
  C64      1.0000 0.20035  0.61906  0.87668  Biso   1.000  C
  H57      1.0000 0.21100  0.71630  0.89900  Biso   1.000  H
  H58      1.0000 0.24310  0.53970  0.89740  Biso   1.000  H
  C65      1.0000 0.09232  0.57169  0.87651  Biso   1.000  C
  C66      1.0000 0.06197  0.46703  0.91778  Biso   1.000  C
  H59      1.0000 0.11020  0.41940  0.94510  Biso   1.000  H
  C67      1.0000 0.96170  0.43173  0.91928  Biso   1.000  C
  H60      1.0000 0.94240  0.36060  0.94790  Biso   1.000  H
  C68      1.0000 0.88904  0.49872  0.87958  Biso   1.000  C
  C69      1.0000 0.91929  0.60308  0.83834  Biso   1.000  C
  H61      1.0000 0.87110  0.65050  0.81090  Biso   1.000  H
  C70      1.0000 0.01955  0.63854  0.83695  Biso   1.000  C
  H62      1.0000 0.03880  0.70990  0.80840  Biso   1.000  H
  C71      1.0000 0.78022  0.45979  0.88195  Biso   1.000  C
  H63      1.0000 0.77080  0.34770  0.87730  Biso   1.000  H
  H64      1.0000 0.74020  0.51100  0.84870  Biso   1.000  H
  C72      1.0000 0.74467  0.51072  0.94022  Biso   1.000  C
  C73      1.0000 0.24540  0.56622  0.54636  Biso   1.000  C
  C74      1.0000 0.28220  0.49339  0.49079  Biso   1.000  C
  H65      1.0000 0.25480  0.55020  0.45500  Biso   1.000  H
  H66      1.0000 0.25870  0.38600  0.48700  Biso   1.000  H
  C75      1.0000 0.39474  0.49705  0.49507  Biso   1.000  C
  C76      1.0000 0.45049  0.37893  0.52339  Biso   1.000  C
  H67      1.0000 0.41710  0.29520  0.53970  Biso   1.000  H
  C77      1.0000 0.55403  0.38120  0.52827  Biso   1.000  C
  H68      1.0000 0.59020  0.29920  0.54770  Biso   1.000  H
  Mn3      1.0000 0.23732  0.51196  0.68654  Biso   1.000  Mn
  N9       1.0000 0.06798  0.49748  0.67526  Biso   1.000  N
  N10      1.0000 0.75747  0.53918  0.67069  Biso   1.000  N
  N11      1.0000 0.71729  0.48541  0.71380  Biso   1.000  N
  N12      1.0000 0.40569  0.53305  0.70279  Biso   1.000  N
  O17      1.0000 0.22738  0.52211  0.78103  Biso   1.000  O
  O18      1.0000 0.25670  0.76916  0.79686  Biso   1.000  O
  O19      1.0000 0.73101  0.42415  0.98045  Biso   1.000  O
  O20      1.0000 0.73443  0.66142  0.94274  Biso   1.000  O
  H69      1.0000 0.72730  0.68700  0.97900  Biso   1.000  H
  O21      1.0000 0.24477  0.48228  0.59154  Biso   1.000  O
  O22      1.0000 0.22095  0.70639  0.54485  Biso   1.000  O
  H70      1.0000 0.74550  0.45510  0.84140  Biso   1.000  H
  H71      1.0000 0.77270  0.35980  0.90180  Biso   1.000  H
  C78      1.0000 0.73860  0.58910  0.91760  Biso   1.000  C
  O23      1.0000 0.70390  0.70170  0.89270  Biso   1.000  O
  O24      1.0000 0.74810  0.56940  0.97630  Biso   1.000  O
  H72      1.0000 0.72380  0.68860  0.97880  Biso   1.000  H
  C79      1.0000 0.48217  0.90361  0.79104  Biso   1.000  C
  H73      1.0000 0.44570  0.83060  0.76660  Biso   1.000  H
  C80      1.0000 0.58485  0.90834  0.79026  Biso   1.000  C
  H74      1.0000 0.61820  0.84040  0.76590  Biso   1.000  H
  C81      1.0000 0.63745  0.01613  0.82637  Biso   1.000  C
  C82      1.0000 0.58678  0.11061  0.86279  Biso   1.000  C
  H75      1.0000 0.62160  0.18190  0.88880  Biso   1.000  H
  C83      1.0000 0.48406  0.09827  0.86020  Biso   1.000  C
  H76      1.0000 0.44900  0.16390  0.88450  Biso   1.000  H
  C84      1.0000 0.88822  0.00992  0.79133  Biso   1.000  C
  C85      1.0000 0.93942  0.95795  0.74445  Biso   1.000  C
  H77      1.0000 0.90470  0.91410  0.71000  Biso   1.000  H
  C86      1.0000 0.04241  0.97176  0.74925  Biso   1.000  C
  H78      1.0000 0.07760  0.93650  0.71740  Biso   1.000  H
  C87      1.0000 0.04340  0.08823  0.84101  Biso   1.000  C
  H79      1.0000 0.07960  0.13560  0.87420  Biso   1.000  H
  C88      1.0000 0.94088  0.07935  0.84009  Biso   1.000  C
  H80      1.0000 0.90740  0.11950  0.87180  Biso   1.000  H
  C89      1.0000 0.26926  0.14051  0.68594  Biso   1.000  C
  C90      1.0000 0.29965  0.11906  0.62332  Biso   1.000  C
  H81      1.0000 0.28900  0.21630  0.60100  Biso   1.000  H
  H82      1.0000 0.25690  0.03970  0.60260  Biso   1.000  H
  C91      1.0000 0.40768  0.07169  0.62349  Biso   1.000  C
  C92      1.0000 0.43803  0.96703  0.58222  Biso   1.000  C
  H83      1.0000 0.38980  0.91940  0.55490  Biso   1.000  H
  C93      1.0000 0.53830  0.93173  0.58072  Biso   1.000  C
  H84      1.0000 0.55760  0.86060  0.55210  Biso   1.000  H
  C94      1.0000 0.61096  0.99872  0.62042  Biso   1.000  C
  C95      1.0000 0.58071  0.10308  0.66166  Biso   1.000  C
  H85      1.0000 0.62890  0.15050  0.68910  Biso   1.000  H
  C96      1.0000 0.48045  0.13854  0.66305  Biso   1.000  C
  H86      1.0000 0.46120  0.20990  0.69160  Biso   1.000  H
  C97      1.0000 0.71978  0.95979  0.61805  Biso   1.000  C
  H87      1.0000 0.72920  0.84770  0.62270  Biso   1.000  H
  H88      1.0000 0.75980  0.01100  0.65130  Biso   1.000  H
  C98      1.0000 0.75533  0.01072  0.55978  Biso   1.000  C
  C99      1.0000 0.25460  0.06622  0.95364  Biso   1.000  C
  C100     1.0000 0.21780  0.99339  0.00921  Biso   1.000  C
  H89      1.0000 0.24520  0.05020  0.04500  Biso   1.000  H
  H90      1.0000 0.24130  0.88600  0.01300  Biso   1.000  H
  C101     1.0000 0.10526  0.99705  0.00493  Biso   1.000  C
  C102     1.0000 0.04951  0.87893  0.97661  Biso   1.000  C
  H91      1.0000 0.08290  0.79520  0.96030  Biso   1.000  H
  C103     1.0000 0.94597  0.88120  0.97173  Biso   1.000  C
  H92      1.0000 0.90980  0.79920  0.95230  Biso   1.000  H
  Mn4      1.0000 0.26268  0.01196  0.81346  Biso   1.000  Mn
  N13      1.0000 0.43202  0.99748  0.82474  Biso   1.000  N
  N14      1.0000 0.74253  0.03918  0.82931  Biso   1.000  N
  N15      1.0000 0.78271  0.98541  0.78620  Biso   1.000  N
  N16      1.0000 0.09431  0.03305  0.79721  Biso   1.000  N
  O25      1.0000 0.27262  0.02211  0.71897  Biso   1.000  O
  O26      1.0000 0.24330  0.26916  0.70314  Biso   1.000  O
  O27      1.0000 0.76899  0.92415  0.51955  Biso   1.000  O
  O28      1.0000 0.76557  0.16142  0.55726  Biso   1.000  O
  H93      1.0000 0.77270  0.18700  0.52100  Biso   1.000  H
  O29      1.0000 0.25523  0.98228  0.90846  Biso   1.000  O
  O30      1.0000 0.27905  0.20639  0.95515  Biso   1.000  O
  H94      1.0000 0.75450  0.95510  0.65860  Biso   1.000  H
  H95      1.0000 0.72730  0.85980  0.59820  Biso   1.000  H
  C104     1.0000 0.76140  0.08910  0.58240  Biso   1.000  C
  O31      1.0000 0.79610  0.20170  0.60730  Biso   1.000  O
  O32      1.0000 0.75190  0.06940  0.52370  Biso   1.000  O
  H96      1.0000 0.77620  0.18860  0.52120  Biso   1.000  H
