data_image0
_cell_length_a       8.91
_cell_length_b       14.974
_cell_length_c       14.712
_cell_angle_alpha    90
_cell_angle_beta     90
_cell_angle_gamma    90

_symmetry_space_group_name_H-M    "P 1"
_symmetry_int_tables_number       1

loop_
  _symmetry_equiv_pos_as_xyz
  'x, y, z'

loop_
  _atom_site_label
  _atom_site_occupancy
  _atom_site_fract_x
  _atom_site_fract_y
  _atom_site_fract_z
  _atom_site_thermal_displace_type
  _atom_site_B_iso_or_equiv
  _atom_site_type_symbol
  Al1      1.0000 0.84320  0.34530  0.11690  Biso   1.000  Al
  P1       1.0000 0.83040  0.13470  0.10270  Biso   1.000  P
  O1       1.0000 0.76510  0.22600  0.12110  Biso   1.000  O
  O2       1.0000 0.95750  0.85310  0.33550  Biso   1.000  O
  O3       1.0000 0.72800  0.06550  0.13620  Biso   1.000  O
  O4       1.0000 0.85720  0.11670  0.00570  Biso   1.000  O
  O5       1.0000 0.29960  0.92030  0.32620  Biso   1.000  O
  O6       1.0000 0.97800  0.12700  0.14950  Biso   1.000  O
  O7       1.0000 0.20400  0.04140  0.21610  Biso   1.000  O
  Al2      1.0000 0.15680  0.65470  0.61690  Biso   1.000  Al
  P2       1.0000 0.16960  0.86530  0.60270  Biso   1.000  P
  O8       1.0000 0.23490  0.77400  0.62110  Biso   1.000  O
  O9       1.0000 0.04250  0.14690  0.83550  Biso   1.000  O
  O10      1.0000 0.27200  0.93450  0.63620  Biso   1.000  O
  O11      1.0000 0.14280  0.88330  0.50570  Biso   1.000  O
  O12      1.0000 0.70040  0.07970  0.82620  Biso   1.000  O
  O13      1.0000 0.02200  0.87300  0.64950  Biso   1.000  O
  O14      1.0000 0.79600  0.95860  0.71610  Biso   1.000  O
  Al3      1.0000 0.15680  0.84530  0.38310  Biso   1.000  Al
  P3       1.0000 0.16960  0.63470  0.39730  Biso   1.000  P
  O15      1.0000 0.23490  0.72600  0.37890  Biso   1.000  O
  O16      1.0000 0.04250  0.35310  0.16450  Biso   1.000  O
  O17      1.0000 0.27200  0.56550  0.36380  Biso   1.000  O
  O18      1.0000 0.14280  0.61670  0.49430  Biso   1.000  O
  O19      1.0000 0.70040  0.42030  0.17380  Biso   1.000  O
  O20      1.0000 0.02200  0.62700  0.35050  Biso   1.000  O
  O21      1.0000 0.79600  0.54140  0.28390  Biso   1.000  O
  Al4      1.0000 0.84320  0.15470  0.88310  Biso   1.000  Al
  P4       1.0000 0.83040  0.36530  0.89730  Biso   1.000  P
  O22      1.0000 0.76510  0.27400  0.87890  Biso   1.000  O
  O23      1.0000 0.95750  0.64690  0.66450  Biso   1.000  O
  O24      1.0000 0.72800  0.43450  0.86380  Biso   1.000  O
  O25      1.0000 0.85720  0.38330  0.99430  Biso   1.000  O
  O26      1.0000 0.29960  0.57970  0.67380  Biso   1.000  O
  O27      1.0000 0.97800  0.37300  0.85050  Biso   1.000  O
  O28      1.0000 0.20400  0.45860  0.78390  Biso   1.000  O
  Al5      1.0000 0.15680  0.65470  0.88310  Biso   1.000  Al
  P5       1.0000 0.16960  0.86530  0.89730  Biso   1.000  P
  O29      1.0000 0.23490  0.77400  0.87890  Biso   1.000  O
  O30      1.0000 0.04250  0.14690  0.66450  Biso   1.000  O
  O31      1.0000 0.27200  0.93450  0.86380  Biso   1.000  O
  O32      1.0000 0.14280  0.88330  0.99430  Biso   1.000  O
  O33      1.0000 0.70040  0.07970  0.67380  Biso   1.000  O
  O34      1.0000 0.02200  0.87300  0.85050  Biso   1.000  O
  O35      1.0000 0.79600  0.95860  0.78390  Biso   1.000  O
  Al6      1.0000 0.84320  0.34530  0.38310  Biso   1.000  Al
  P6       1.0000 0.83040  0.13470  0.39730  Biso   1.000  P
  O36      1.0000 0.76510  0.22600  0.37890  Biso   1.000  O
  O37      1.0000 0.95750  0.85310  0.16450  Biso   1.000  O
  O38      1.0000 0.72800  0.06550  0.36380  Biso   1.000  O
  O39      1.0000 0.85720  0.11670  0.49430  Biso   1.000  O
  O40      1.0000 0.29960  0.92030  0.17380  Biso   1.000  O
  O41      1.0000 0.97800  0.12700  0.35050  Biso   1.000  O
  O42      1.0000 0.20400  0.04140  0.28390  Biso   1.000  O
  Al7      1.0000 0.84320  0.15470  0.61690  Biso   1.000  Al
  P7       1.0000 0.83040  0.36530  0.60270  Biso   1.000  P
  O43      1.0000 0.76510  0.27400  0.62110  Biso   1.000  O
  O44      1.0000 0.95750  0.64690  0.83550  Biso   1.000  O
  O45      1.0000 0.72800  0.43450  0.63620  Biso   1.000  O
  O46      1.0000 0.85720  0.38330  0.50570  Biso   1.000  O
  O47      1.0000 0.29960  0.57970  0.82620  Biso   1.000  O
  O48      1.0000 0.97800  0.37300  0.64950  Biso   1.000  O
  O49      1.0000 0.20400  0.45860  0.71610  Biso   1.000  O
  Al8      1.0000 0.15680  0.84530  0.11690  Biso   1.000  Al
  P8       1.0000 0.16960  0.63470  0.10270  Biso   1.000  P
  O50      1.0000 0.23490  0.72600  0.12110  Biso   1.000  O
  O51      1.0000 0.04250  0.35310  0.33550  Biso   1.000  O
  O52      1.0000 0.27200  0.56550  0.13620  Biso   1.000  O
  O53      1.0000 0.14280  0.61670  0.00570  Biso   1.000  O
  O54      1.0000 0.70040  0.42030  0.32620  Biso   1.000  O
  O55      1.0000 0.02200  0.62700  0.14950  Biso   1.000  O
  O56      1.0000 0.79600  0.54140  0.21610  Biso   1.000  O
  Al9      1.0000 0.67230  0.00760  0.25000  Biso   1.000  Al
  Al10     1.0000 0.91380  0.63240  0.25000  Biso   1.000  Al
  P9       1.0000 0.31620  0.97490  0.25000  Biso   1.000  P
  P10      1.0000 0.87050  0.83450  0.25000  Biso   1.000  P
  O57      1.0000 0.81330  0.73860  0.25000  Biso   1.000  O
  O58      1.0000 0.72630  0.88810  0.25000  Biso   1.000  O
  O59      1.0000 0.46160  0.02700  0.25000  Biso   1.000  O
  Al11     1.0000 0.32770  0.99240  0.75000  Biso   1.000  Al
  Al12     1.0000 0.08620  0.36760  0.75000  Biso   1.000  Al
  P11      1.0000 0.68380  0.02510  0.75000  Biso   1.000  P
  P12      1.0000 0.12950  0.16550  0.75000  Biso   1.000  P
  O60      1.0000 0.18670  0.26140  0.75000  Biso   1.000  O
  O61      1.0000 0.27370  0.11190  0.75000  Biso   1.000  O
  O62      1.0000 0.53840  0.97300  0.75000  Biso   1.000  O
  Al13     1.0000 0.32770  0.50760  0.25000  Biso   1.000  Al
  Al14     1.0000 0.08620  0.13240  0.25000  Biso   1.000  Al
  P13      1.0000 0.68380  0.47490  0.25000  Biso   1.000  P
  P14      1.0000 0.12950  0.33450  0.25000  Biso   1.000  P
  O63      1.0000 0.18670  0.23860  0.25000  Biso   1.000  O
  O64      1.0000 0.27370  0.38810  0.25000  Biso   1.000  O
  O65      1.0000 0.53840  0.52700  0.25000  Biso   1.000  O
  Al15     1.0000 0.67230  0.49240  0.75000  Biso   1.000  Al
  Al16     1.0000 0.91380  0.86760  0.75000  Biso   1.000  Al
  P15      1.0000 0.31620  0.52510  0.75000  Biso   1.000  P
  P16      1.0000 0.87050  0.66550  0.75000  Biso   1.000  P
  O66      1.0000 0.81330  0.76140  0.75000  Biso   1.000  O
  O67      1.0000 0.72630  0.61190  0.75000  Biso   1.000  O
  O68      1.0000 0.46160  0.47300  0.75000  Biso   1.000  O
