data_image0
_cell_length_a       28.747
_cell_length_b       14.4478
_cell_length_c       13.3233
_cell_angle_alpha    90
_cell_angle_beta     99.76
_cell_angle_gamma    90

_symmetry_space_group_name_H-M    "P 1"
_symmetry_int_tables_number       1

loop_
  _symmetry_equiv_pos_as_xyz
  'x, y, z'

loop_
  _atom_site_label
  _atom_site_occupancy
  _atom_site_fract_x
  _atom_site_fract_y
  _atom_site_fract_z
  _atom_site_thermal_displace_type
  _atom_site_B_iso_or_equiv
  _atom_site_type_symbol
  Gd1      1.0000 0.18286  0.71325  0.45891  Biso   1.000  Gd
  O1       1.0000 0.10910  0.68320  0.51500  Biso   1.000  O
  O2       1.0000 0.12250  0.83160  0.49710  Biso   1.000  O
  O3       1.0000 0.70610  0.07160  0.55320  Biso   1.000  O
  O4       1.0000 0.76880  0.15410  0.54110  Biso   1.000  O
  O5       1.0000 0.79860  0.76010  0.87020  Biso   1.000  O
  O6       1.0000 0.72790  0.83020  0.83100  Biso   1.000  O
  O7       1.0000 0.14000  0.77970  0.30660  Biso   1.000  O
  N1       1.0000 0.90170  0.91900  0.64760  Biso   1.000  N
  N2       1.0000 0.12050  0.87890  0.17480  Biso   1.000  N
  C1       1.0000 0.09720  0.76670  0.52170  Biso   1.000  C
  C2       1.0000 0.05210  0.78800  0.55630  Biso   1.000  C
  C3       1.0000 0.02260  0.71460  0.57710  Biso   1.000  C
  H1       1.0000 0.03170  0.65350  0.57010  Biso   1.000  H
  C4       1.0000 0.97970  0.73450  0.60820  Biso   1.000  C
  H2       1.0000 0.96030  0.68620  0.62210  Biso   1.000  H
  C5       1.0000 0.96580  0.82210  0.61830  Biso   1.000  C
  C6       1.0000 0.99470  0.89520  0.59770  Biso   1.000  C
  H3       1.0000 0.98550  0.95610  0.60580  Biso   1.000  H
  C7       1.0000 0.03680  0.87660  0.56520  Biso   1.000  C
  H4       1.0000 0.05520  0.92550  0.54910  Biso   1.000  H
  C8       1.0000 0.91880  0.83870  0.64700  Biso   1.000  C
  H5       1.0000 0.90200  0.78800  0.67000  Biso   1.000  H
  C9       1.0000 0.75030  0.08190  0.57310  Biso   1.000  C
  C10      1.0000 0.78030  0.00810  0.62760  Biso   1.000  C
  C11      1.0000 0.82730  0.99830  0.61530  Biso   1.000  C
  H6       1.0000 0.84040  0.03940  0.57430  Biso   1.000  H
  C12      1.0000 0.85460  0.92570  0.66550  Biso   1.000  C
  C13      1.0000 0.83640  0.86980  0.73410  Biso   1.000  C
  H7       1.0000 0.85550  0.82530  0.77120  Biso   1.000  H
  C14      1.0000 0.78940  0.88000  0.74760  Biso   1.000  C
  C15      1.0000 0.76100  0.94730  0.69230  Biso   1.000  C
  H8       1.0000 0.72930  0.95200  0.69830  Biso   1.000  H
  C16      1.0000 0.77030  0.81940  0.81960  Biso   1.000  C
  C17      1.0000 0.15250  0.82060  0.24270  Biso   1.000  C
  C18      1.0000 0.07450  0.89040  0.19610  Biso   1.000  C
  H9       1.0000 0.06960  0.84830  0.24900  Biso   1.000  H
  H10      1.0000 0.05200  0.87790  0.13580  Biso   1.000  H
  H11      1.0000 0.07070  0.95280  0.21790  Biso   1.000  H
  C19      1.0000 0.14130  0.92430  0.10640  Biso   1.000  C
  H12      1.0000 0.17290  0.90150  0.10920  Biso   1.000  H
  H13      1.0000 0.14230  0.98920  0.12180  Biso   1.000  H
  H14      1.0000 0.12360  0.91450  0.03940  Biso   1.000  H
  O8       1.0000 0.15300  0.78800  0.30200  Biso   1.000  O
  Gd2      1.0000 0.68286  0.21325  0.45891  Biso   1.000  Gd
  O9       1.0000 0.60910  0.18320  0.51500  Biso   1.000  O
  O10      1.0000 0.62250  0.33160  0.49710  Biso   1.000  O
  O11      1.0000 0.20610  0.57160  0.55320  Biso   1.000  O
  O12      1.0000 0.26880  0.65410  0.54110  Biso   1.000  O
  O13      1.0000 0.29860  0.26010  0.87020  Biso   1.000  O
  O14      1.0000 0.22790  0.33020  0.83100  Biso   1.000  O
  O15      1.0000 0.64000  0.27970  0.30660  Biso   1.000  O
  N3       1.0000 0.40170  0.41900  0.64760  Biso   1.000  N
  N4       1.0000 0.62050  0.37890  0.17480  Biso   1.000  N
  C20      1.0000 0.59720  0.26670  0.52170  Biso   1.000  C
  C21      1.0000 0.55210  0.28800  0.55630  Biso   1.000  C
  C22      1.0000 0.52260  0.21460  0.57710  Biso   1.000  C
  H15      1.0000 0.53170  0.15350  0.57010  Biso   1.000  H
  C23      1.0000 0.47970  0.23450  0.60820  Biso   1.000  C
  H16      1.0000 0.46030  0.18620  0.62210  Biso   1.000  H
  C24      1.0000 0.46580  0.32210  0.61830  Biso   1.000  C
  C25      1.0000 0.49470  0.39520  0.59770  Biso   1.000  C
  H17      1.0000 0.48550  0.45610  0.60580  Biso   1.000  H
  C26      1.0000 0.53680  0.37660  0.56520  Biso   1.000  C
  H18      1.0000 0.55520  0.42550  0.54910  Biso   1.000  H
  C27      1.0000 0.41880  0.33870  0.64700  Biso   1.000  C
  H19      1.0000 0.40200  0.28800  0.67000  Biso   1.000  H
  C28      1.0000 0.25030  0.58190  0.57310  Biso   1.000  C
  C29      1.0000 0.28030  0.50810  0.62760  Biso   1.000  C
  C30      1.0000 0.32730  0.49830  0.61530  Biso   1.000  C
  H20      1.0000 0.34040  0.53940  0.57430  Biso   1.000  H
  C31      1.0000 0.35460  0.42570  0.66550  Biso   1.000  C
  C32      1.0000 0.33640  0.36980  0.73410  Biso   1.000  C
  H21      1.0000 0.35550  0.32530  0.77120  Biso   1.000  H
  C33      1.0000 0.28940  0.38000  0.74760  Biso   1.000  C
  C34      1.0000 0.26100  0.44730  0.69230  Biso   1.000  C
  H22      1.0000 0.22930  0.45200  0.69830  Biso   1.000  H
  C35      1.0000 0.27030  0.31940  0.81960  Biso   1.000  C
  C36      1.0000 0.65250  0.32060  0.24270  Biso   1.000  C
  C37      1.0000 0.57450  0.39040  0.19610  Biso   1.000  C
  H23      1.0000 0.56960  0.34830  0.24900  Biso   1.000  H
  H24      1.0000 0.55200  0.37790  0.13580  Biso   1.000  H
  H25      1.0000 0.57070  0.45280  0.21790  Biso   1.000  H
  C38      1.0000 0.64130  0.42430  0.10640  Biso   1.000  C
  H26      1.0000 0.67290  0.40150  0.10920  Biso   1.000  H
  H27      1.0000 0.64230  0.48920  0.12180  Biso   1.000  H
  H28      1.0000 0.62360  0.41450  0.03940  Biso   1.000  H
  O16      1.0000 0.65300  0.28800  0.30200  Biso   1.000  O
  Gd3      1.0000 0.81714  0.71325  0.04109  Biso   1.000  Gd
  O17      1.0000 0.89090  0.68320  0.98500  Biso   1.000  O
  O18      1.0000 0.87750  0.83160  0.00290  Biso   1.000  O
  O19      1.0000 0.29390  0.07160  0.94680  Biso   1.000  O
  O20      1.0000 0.23120  0.15410  0.95890  Biso   1.000  O
  O21      1.0000 0.20140  0.76010  0.62980  Biso   1.000  O
  O22      1.0000 0.27210  0.83020  0.66900  Biso   1.000  O
  O23      1.0000 0.86000  0.77970  0.19340  Biso   1.000  O
  N5       1.0000 0.09830  0.91900  0.85240  Biso   1.000  N
  N6       1.0000 0.87950  0.87890  0.32520  Biso   1.000  N
  C39      1.0000 0.90280  0.76670  0.97830  Biso   1.000  C
  C40      1.0000 0.94790  0.78800  0.94370  Biso   1.000  C
  C41      1.0000 0.97740  0.71460  0.92290  Biso   1.000  C
  H29      1.0000 0.96830  0.65350  0.92990  Biso   1.000  H
  C42      1.0000 0.02030  0.73450  0.89180  Biso   1.000  C
  H30      1.0000 0.03970  0.68620  0.87790  Biso   1.000  H
  C43      1.0000 0.03420  0.82210  0.88170  Biso   1.000  C
  C44      1.0000 0.00530  0.89520  0.90230  Biso   1.000  C
  H31      1.0000 0.01450  0.95610  0.89420  Biso   1.000  H
  C45      1.0000 0.96320  0.87660  0.93480  Biso   1.000  C
  H32      1.0000 0.94480  0.92550  0.95090  Biso   1.000  H
  C46      1.0000 0.08120  0.83870  0.85300  Biso   1.000  C
  H33      1.0000 0.09800  0.78800  0.83000  Biso   1.000  H
  C47      1.0000 0.24970  0.08190  0.92690  Biso   1.000  C
  C48      1.0000 0.21970  0.00810  0.87240  Biso   1.000  C
  C49      1.0000 0.17270  0.99830  0.88470  Biso   1.000  C
  H34      1.0000 0.15960  0.03940  0.92570  Biso   1.000  H
  C50      1.0000 0.14540  0.92570  0.83450  Biso   1.000  C
  C51      1.0000 0.16360  0.86980  0.76590  Biso   1.000  C
  H35      1.0000 0.14450  0.82530  0.72880  Biso   1.000  H
  C52      1.0000 0.21060  0.88000  0.75240  Biso   1.000  C
  C53      1.0000 0.23900  0.94730  0.80770  Biso   1.000  C
  H36      1.0000 0.27070  0.95200  0.80170  Biso   1.000  H
  C54      1.0000 0.22970  0.81940  0.68040  Biso   1.000  C
  C55      1.0000 0.84750  0.82060  0.25730  Biso   1.000  C
  C56      1.0000 0.92550  0.89040  0.30390  Biso   1.000  C
  H37      1.0000 0.93040  0.84830  0.25100  Biso   1.000  H
  H38      1.0000 0.94800  0.87790  0.36420  Biso   1.000  H
  H39      1.0000 0.92930  0.95280  0.28210  Biso   1.000  H
  C57      1.0000 0.85870  0.92430  0.39360  Biso   1.000  C
  H40      1.0000 0.82710  0.90150  0.39080  Biso   1.000  H
  H41      1.0000 0.85770  0.98920  0.37820  Biso   1.000  H
  H42      1.0000 0.87640  0.91450  0.46060  Biso   1.000  H
  O24      1.0000 0.84700  0.78800  0.19800  Biso   1.000  O
  Gd4      1.0000 0.31714  0.21325  0.04109  Biso   1.000  Gd
  O25      1.0000 0.39090  0.18320  0.98500  Biso   1.000  O
  O26      1.0000 0.37750  0.33160  0.00290  Biso   1.000  O
  O27      1.0000 0.79390  0.57160  0.94680  Biso   1.000  O
  O28      1.0000 0.73120  0.65410  0.95890  Biso   1.000  O
  O29      1.0000 0.70140  0.26010  0.62980  Biso   1.000  O
  O30      1.0000 0.77210  0.33020  0.66900  Biso   1.000  O
  O31      1.0000 0.36000  0.27970  0.19340  Biso   1.000  O
  N7       1.0000 0.59830  0.41900  0.85240  Biso   1.000  N
  N8       1.0000 0.37950  0.37890  0.32520  Biso   1.000  N
  C58      1.0000 0.40280  0.26670  0.97830  Biso   1.000  C
  C59      1.0000 0.44790  0.28800  0.94370  Biso   1.000  C
  C60      1.0000 0.47740  0.21460  0.92290  Biso   1.000  C
  H43      1.0000 0.46830  0.15350  0.92990  Biso   1.000  H
  C61      1.0000 0.52030  0.23450  0.89180  Biso   1.000  C
  H44      1.0000 0.53970  0.18620  0.87790  Biso   1.000  H
  C62      1.0000 0.53420  0.32210  0.88170  Biso   1.000  C
  C63      1.0000 0.50530  0.39520  0.90230  Biso   1.000  C
  H45      1.0000 0.51450  0.45610  0.89420  Biso   1.000  H
  C64      1.0000 0.46320  0.37660  0.93480  Biso   1.000  C
  H46      1.0000 0.44480  0.42550  0.95090  Biso   1.000  H
  C65      1.0000 0.58120  0.33870  0.85300  Biso   1.000  C
  H47      1.0000 0.59800  0.28800  0.83000  Biso   1.000  H
  C66      1.0000 0.74970  0.58190  0.92690  Biso   1.000  C
  C67      1.0000 0.71970  0.50810  0.87240  Biso   1.000  C
  C68      1.0000 0.67270  0.49830  0.88470  Biso   1.000  C
  H48      1.0000 0.65960  0.53940  0.92570  Biso   1.000  H
  C69      1.0000 0.64540  0.42570  0.83450  Biso   1.000  C
  C70      1.0000 0.66360  0.36980  0.76590  Biso   1.000  C
  H49      1.0000 0.64450  0.32530  0.72880  Biso   1.000  H
  C71      1.0000 0.71060  0.38000  0.75240  Biso   1.000  C
  C72      1.0000 0.73900  0.44730  0.80770  Biso   1.000  C
  H50      1.0000 0.77070  0.45200  0.80170  Biso   1.000  H
  C73      1.0000 0.72970  0.31940  0.68040  Biso   1.000  C
  C74      1.0000 0.34750  0.32060  0.25730  Biso   1.000  C
  C75      1.0000 0.42550  0.39040  0.30390  Biso   1.000  C
  H51      1.0000 0.43040  0.34830  0.25100  Biso   1.000  H
  H52      1.0000 0.44800  0.37790  0.36420  Biso   1.000  H
  H53      1.0000 0.42930  0.45280  0.28210  Biso   1.000  H
  C76      1.0000 0.35870  0.42430  0.39360  Biso   1.000  C
  H54      1.0000 0.32710  0.40150  0.39080  Biso   1.000  H
  H55      1.0000 0.35770  0.48920  0.37820  Biso   1.000  H
  H56      1.0000 0.37640  0.41450  0.46060  Biso   1.000  H
  O32      1.0000 0.34700  0.28800  0.19800  Biso   1.000  O
  Gd5      1.0000 0.81714  0.28675  0.54109  Biso   1.000  Gd
  O33      1.0000 0.89090  0.31680  0.48500  Biso   1.000  O
  O34      1.0000 0.87750  0.16840  0.50290  Biso   1.000  O
  O35      1.0000 0.29390  0.92840  0.44680  Biso   1.000  O
  O36      1.0000 0.23120  0.84590  0.45890  Biso   1.000  O
  O37      1.0000 0.20140  0.23990  0.12980  Biso   1.000  O
  O38      1.0000 0.27210  0.16980  0.16900  Biso   1.000  O
  O39      1.0000 0.86000  0.22030  0.69340  Biso   1.000  O
  N9       1.0000 0.09830  0.08100  0.35240  Biso   1.000  N
  N10      1.0000 0.87950  0.12110  0.82520  Biso   1.000  N
  C77      1.0000 0.90280  0.23330  0.47830  Biso   1.000  C
  C78      1.0000 0.94790  0.21200  0.44370  Biso   1.000  C
  C79      1.0000 0.97740  0.28540  0.42290  Biso   1.000  C
  H57      1.0000 0.96830  0.34650  0.42990  Biso   1.000  H
  C80      1.0000 0.02030  0.26550  0.39180  Biso   1.000  C
  H58      1.0000 0.03970  0.31380  0.37790  Biso   1.000  H
  C81      1.0000 0.03420  0.17790  0.38170  Biso   1.000  C
  C82      1.0000 0.00530  0.10480  0.40230  Biso   1.000  C
  H59      1.0000 0.01450  0.04390  0.39420  Biso   1.000  H
  C83      1.0000 0.96320  0.12340  0.43480  Biso   1.000  C
  H60      1.0000 0.94480  0.07450  0.45090  Biso   1.000  H
  C84      1.0000 0.08120  0.16130  0.35300  Biso   1.000  C
  H61      1.0000 0.09800  0.21200  0.33000  Biso   1.000  H
  C85      1.0000 0.24970  0.91810  0.42690  Biso   1.000  C
  C86      1.0000 0.21970  0.99190  0.37240  Biso   1.000  C
  C87      1.0000 0.17270  0.00170  0.38470  Biso   1.000  C
  H62      1.0000 0.15960  0.96060  0.42570  Biso   1.000  H
  C88      1.0000 0.14540  0.07430  0.33450  Biso   1.000  C
  C89      1.0000 0.16360  0.13020  0.26590  Biso   1.000  C
  H63      1.0000 0.14450  0.17470  0.22880  Biso   1.000  H
  C90      1.0000 0.21060  0.12000  0.25240  Biso   1.000  C
  C91      1.0000 0.23900  0.05270  0.30770  Biso   1.000  C
  H64      1.0000 0.27070  0.04800  0.30170  Biso   1.000  H
  C92      1.0000 0.22970  0.18060  0.18040  Biso   1.000  C
  C93      1.0000 0.84750  0.17940  0.75730  Biso   1.000  C
  C94      1.0000 0.92550  0.10960  0.80390  Biso   1.000  C
  H65      1.0000 0.93040  0.15170  0.75100  Biso   1.000  H
  H66      1.0000 0.94800  0.12210  0.86420  Biso   1.000  H
  H67      1.0000 0.92930  0.04720  0.78210  Biso   1.000  H
  C95      1.0000 0.85870  0.07570  0.89360  Biso   1.000  C
  H68      1.0000 0.82710  0.09850  0.89080  Biso   1.000  H
  H69      1.0000 0.85770  0.01080  0.87820  Biso   1.000  H
  H70      1.0000 0.87640  0.08550  0.96060  Biso   1.000  H
  O40      1.0000 0.84700  0.21200  0.69800  Biso   1.000  O
  Gd6      1.0000 0.31714  0.78675  0.54109  Biso   1.000  Gd
  O41      1.0000 0.39090  0.81680  0.48500  Biso   1.000  O
  O42      1.0000 0.37750  0.66840  0.50290  Biso   1.000  O
  O43      1.0000 0.79390  0.42840  0.44680  Biso   1.000  O
  O44      1.0000 0.73120  0.34590  0.45890  Biso   1.000  O
  O45      1.0000 0.70140  0.73990  0.12980  Biso   1.000  O
  O46      1.0000 0.77210  0.66980  0.16900  Biso   1.000  O
  O47      1.0000 0.36000  0.72030  0.69340  Biso   1.000  O
  N11      1.0000 0.59830  0.58100  0.35240  Biso   1.000  N
  N12      1.0000 0.37950  0.62110  0.82520  Biso   1.000  N
  C96      1.0000 0.40280  0.73330  0.47830  Biso   1.000  C
  C97      1.0000 0.44790  0.71200  0.44370  Biso   1.000  C
  C98      1.0000 0.47740  0.78540  0.42290  Biso   1.000  C
  H71      1.0000 0.46830  0.84650  0.42990  Biso   1.000  H
  C99      1.0000 0.52030  0.76550  0.39180  Biso   1.000  C
  H72      1.0000 0.53970  0.81380  0.37790  Biso   1.000  H
  C100     1.0000 0.53420  0.67790  0.38170  Biso   1.000  C
  C101     1.0000 0.50530  0.60480  0.40230  Biso   1.000  C
  H73      1.0000 0.51450  0.54390  0.39420  Biso   1.000  H
  C102     1.0000 0.46320  0.62340  0.43480  Biso   1.000  C
  H74      1.0000 0.44480  0.57450  0.45090  Biso   1.000  H
  C103     1.0000 0.58120  0.66130  0.35300  Biso   1.000  C
  H75      1.0000 0.59800  0.71200  0.33000  Biso   1.000  H
  C104     1.0000 0.74970  0.41810  0.42690  Biso   1.000  C
  C105     1.0000 0.71970  0.49190  0.37240  Biso   1.000  C
  C106     1.0000 0.67270  0.50170  0.38470  Biso   1.000  C
  H76      1.0000 0.65960  0.46060  0.42570  Biso   1.000  H
  C107     1.0000 0.64540  0.57430  0.33450  Biso   1.000  C
  C108     1.0000 0.66360  0.63020  0.26590  Biso   1.000  C
  H77      1.0000 0.64450  0.67470  0.22880  Biso   1.000  H
  C109     1.0000 0.71060  0.62000  0.25240  Biso   1.000  C
  C110     1.0000 0.73900  0.55270  0.30770  Biso   1.000  C
  H78      1.0000 0.77070  0.54800  0.30170  Biso   1.000  H
  C111     1.0000 0.72970  0.68060  0.18040  Biso   1.000  C
  C112     1.0000 0.34750  0.67940  0.75730  Biso   1.000  C
  C113     1.0000 0.42550  0.60960  0.80390  Biso   1.000  C
  H79      1.0000 0.43040  0.65170  0.75100  Biso   1.000  H
  H80      1.0000 0.44800  0.62210  0.86420  Biso   1.000  H
  H81      1.0000 0.42930  0.54720  0.78210  Biso   1.000  H
  C114     1.0000 0.35870  0.57570  0.89360  Biso   1.000  C
  H82      1.0000 0.32710  0.59850  0.89080  Biso   1.000  H
  H83      1.0000 0.35770  0.51080  0.87820  Biso   1.000  H
  H84      1.0000 0.37640  0.58550  0.96060  Biso   1.000  H
  O48      1.0000 0.34700  0.71200  0.69800  Biso   1.000  O
  Gd7      1.0000 0.18286  0.28675  0.95891  Biso   1.000  Gd
  O49      1.0000 0.10910  0.31680  0.01500  Biso   1.000  O
  O50      1.0000 0.12250  0.16840  0.99710  Biso   1.000  O
  O51      1.0000 0.70610  0.92840  0.05320  Biso   1.000  O
  O52      1.0000 0.76880  0.84590  0.04110  Biso   1.000  O
  O53      1.0000 0.79860  0.23990  0.37020  Biso   1.000  O
  O54      1.0000 0.72790  0.16980  0.33100  Biso   1.000  O
  O55      1.0000 0.14000  0.22030  0.80660  Biso   1.000  O
  N13      1.0000 0.90170  0.08100  0.14760  Biso   1.000  N
  N14      1.0000 0.12050  0.12110  0.67480  Biso   1.000  N
  C115     1.0000 0.09720  0.23330  0.02170  Biso   1.000  C
  C116     1.0000 0.05210  0.21200  0.05630  Biso   1.000  C
  C117     1.0000 0.02260  0.28540  0.07710  Biso   1.000  C
  H85      1.0000 0.03170  0.34650  0.07010  Biso   1.000  H
  C118     1.0000 0.97970  0.26550  0.10820  Biso   1.000  C
  H86      1.0000 0.96030  0.31380  0.12210  Biso   1.000  H
  C119     1.0000 0.96580  0.17790  0.11830  Biso   1.000  C
  C120     1.0000 0.99470  0.10480  0.09770  Biso   1.000  C
  H87      1.0000 0.98550  0.04390  0.10580  Biso   1.000  H
  C121     1.0000 0.03680  0.12340  0.06520  Biso   1.000  C
  H88      1.0000 0.05520  0.07450  0.04910  Biso   1.000  H
  C122     1.0000 0.91880  0.16130  0.14700  Biso   1.000  C
  H89      1.0000 0.90200  0.21200  0.17000  Biso   1.000  H
  C123     1.0000 0.75030  0.91810  0.07310  Biso   1.000  C
  C124     1.0000 0.78030  0.99190  0.12760  Biso   1.000  C
  C125     1.0000 0.82730  0.00170  0.11530  Biso   1.000  C
  H90      1.0000 0.84040  0.96060  0.07430  Biso   1.000  H
  C126     1.0000 0.85460  0.07430  0.16550  Biso   1.000  C
  C127     1.0000 0.83640  0.13020  0.23410  Biso   1.000  C
  H91      1.0000 0.85550  0.17470  0.27120  Biso   1.000  H
  C128     1.0000 0.78940  0.12000  0.24760  Biso   1.000  C
  C129     1.0000 0.76100  0.05270  0.19230  Biso   1.000  C
  H92      1.0000 0.72930  0.04800  0.19830  Biso   1.000  H
  C130     1.0000 0.77030  0.18060  0.31960  Biso   1.000  C
  C131     1.0000 0.15250  0.17940  0.74270  Biso   1.000  C
  C132     1.0000 0.07450  0.10960  0.69610  Biso   1.000  C
  H93      1.0000 0.06960  0.15170  0.74900  Biso   1.000  H
  H94      1.0000 0.05200  0.12210  0.63580  Biso   1.000  H
  H95      1.0000 0.07070  0.04720  0.71790  Biso   1.000  H
  C133     1.0000 0.14130  0.07570  0.60640  Biso   1.000  C
  H96      1.0000 0.17290  0.09850  0.60920  Biso   1.000  H
  H97      1.0000 0.14230  0.01080  0.62180  Biso   1.000  H
  H98      1.0000 0.12360  0.08550  0.53940  Biso   1.000  H
  O56      1.0000 0.15300  0.21200  0.80200  Biso   1.000  O
  Gd8      1.0000 0.68286  0.78675  0.95891  Biso   1.000  Gd
  O57      1.0000 0.60910  0.81680  0.01500  Biso   1.000  O
  O58      1.0000 0.62250  0.66840  0.99710  Biso   1.000  O
  O59      1.0000 0.20610  0.42840  0.05320  Biso   1.000  O
  O60      1.0000 0.26880  0.34590  0.04110  Biso   1.000  O
  O61      1.0000 0.29860  0.73990  0.37020  Biso   1.000  O
  O62      1.0000 0.22790  0.66980  0.33100  Biso   1.000  O
  O63      1.0000 0.64000  0.72030  0.80660  Biso   1.000  O
  N15      1.0000 0.40170  0.58100  0.14760  Biso   1.000  N
  N16      1.0000 0.62050  0.62110  0.67480  Biso   1.000  N
  C134     1.0000 0.59720  0.73330  0.02170  Biso   1.000  C
  C135     1.0000 0.55210  0.71200  0.05630  Biso   1.000  C
  C136     1.0000 0.52260  0.78540  0.07710  Biso   1.000  C
  H99      1.0000 0.53170  0.84650  0.07010  Biso   1.000  H
  C137     1.0000 0.47970  0.76550  0.10820  Biso   1.000  C
  H100     1.0000 0.46030  0.81380  0.12210  Biso   1.000  H
  C138     1.0000 0.46580  0.67790  0.11830  Biso   1.000  C
  C139     1.0000 0.49470  0.60480  0.09770  Biso   1.000  C
  H101     1.0000 0.48550  0.54390  0.10580  Biso   1.000  H
  C140     1.0000 0.53680  0.62340  0.06520  Biso   1.000  C
  H102     1.0000 0.55520  0.57450  0.04910  Biso   1.000  H
  C141     1.0000 0.41880  0.66130  0.14700  Biso   1.000  C
  H103     1.0000 0.40200  0.71200  0.17000  Biso   1.000  H
  C142     1.0000 0.25030  0.41810  0.07310  Biso   1.000  C
  C143     1.0000 0.28030  0.49190  0.12760  Biso   1.000  C
  C144     1.0000 0.32730  0.50170  0.11530  Biso   1.000  C
  H104     1.0000 0.34040  0.46060  0.07430  Biso   1.000  H
  C145     1.0000 0.35460  0.57430  0.16550  Biso   1.000  C
  C146     1.0000 0.33640  0.63020  0.23410  Biso   1.000  C
  H105     1.0000 0.35550  0.67470  0.27120  Biso   1.000  H
  C147     1.0000 0.28940  0.62000  0.24760  Biso   1.000  C
  C148     1.0000 0.26100  0.55270  0.19230  Biso   1.000  C
  H106     1.0000 0.22930  0.54800  0.19830  Biso   1.000  H
  C149     1.0000 0.27030  0.68060  0.31960  Biso   1.000  C
  C150     1.0000 0.65250  0.67940  0.74270  Biso   1.000  C
  C151     1.0000 0.57450  0.60960  0.69610  Biso   1.000  C
  H107     1.0000 0.56960  0.65170  0.74900  Biso   1.000  H
  H108     1.0000 0.55200  0.62210  0.63580  Biso   1.000  H
  H109     1.0000 0.57070  0.54720  0.71790  Biso   1.000  H
  C152     1.0000 0.64130  0.57570  0.60640  Biso   1.000  C
  H110     1.0000 0.67290  0.59850  0.60920  Biso   1.000  H
  H111     1.0000 0.64230  0.51080  0.62180  Biso   1.000  H
  H112     1.0000 0.62360  0.58550  0.53940  Biso   1.000  H
  O64      1.0000 0.65300  0.71200  0.80200  Biso   1.000  O
