data_image0
_cell_length_a       33.657
_cell_length_b       14.2909
_cell_length_c       12.8304
_cell_angle_alpha    90
_cell_angle_beta     124.037
_cell_angle_gamma    90

_symmetry_space_group_name_H-M    "P 1"
_symmetry_int_tables_number       1

loop_
  _symmetry_equiv_pos_as_xyz
  'x, y, z'

loop_
  _atom_site_label
  _atom_site_occupancy
  _atom_site_fract_x
  _atom_site_fract_y
  _atom_site_fract_z
  _atom_site_thermal_displace_type
  _atom_site_B_iso_or_equiv
  _atom_site_type_symbol
  Ce1      1.0000 0.82007  0.28812  0.07760  Biso   1.000  Ce
  O1       1.0000 0.39482  0.83100  0.29030  Biso   1.000  O
  O2       1.0000 0.38564  0.68170  0.24100  Biso   1.000  O
  O3       1.0000 0.73112  0.35130  0.99500  Biso   1.000  O
  O4       1.0000 0.79363  0.43880  0.12270  Biso   1.000  O
  O5       1.0000 0.77065  0.68690  0.35150  Biso   1.000  O
  O6       1.0000 0.69836  0.75090  0.26700  Biso   1.000  O
  O7       1.0000 0.85080  0.19110  0.96950  Biso   1.000  O
  C1       1.0000 0.40797  0.74840  0.31870  Biso   1.000  C
  C2       1.0000 0.45025  0.72500  0.44720  Biso   1.000  C
  C3       1.0000 0.46344  0.63340  0.48430  Biso   1.000  C
  H1       1.0000 0.44450  0.58510  0.43060  Biso   1.000  H
  C4       1.0000 0.50460  0.61240  0.60080  Biso   1.000  C
  H2       1.0000 0.51310  0.55040  0.62550  Biso   1.000  H
  C5       1.0000 0.53309  0.68520  0.68070  Biso   1.000  C
  C6       1.0000 0.51880  0.77630  0.64440  Biso   1.000  C
  H3       1.0000 0.53770  0.82490  0.69760  Biso   1.000  H
  C7       1.0000 0.47730  0.79670  0.53110  Biso   1.000  C
  H4       1.0000 0.46710  0.85840  0.51030  Biso   1.000  H
  C8       1.0000 0.57811  0.66680  0.79970  Biso   1.000  C
  C9       1.0000 0.74947  0.42560  0.05910  Biso   1.000  C
  C10      1.0000 0.71751  0.49950  0.05660  Biso   1.000  C
  C11      1.0000 0.67027  0.50610  0.95540  Biso   1.000  C
  H5       1.0000 0.65750  0.46260  0.89040  Biso   1.000  H
  C12      1.0000 0.64207  0.57870  0.95200  Biso   1.000  C
  C13      1.0000 0.66014  0.63880  0.05410  Biso   1.000  C
  H6       1.0000 0.64070  0.68490  0.05430  Biso   1.000  H
  C14      1.0000 0.70752  0.62970  0.15590  Biso   1.000  C
  C15      1.0000 0.73572  0.56170  0.15520  Biso   1.000  C
  H7       1.0000 0.76770  0.55710  0.22220  Biso   1.000  H
  C16      1.0000 0.72746  0.69460  0.26810  Biso   1.000  C
  C17      1.0000 0.88000  0.17670  0.94700  Biso   1.000  C
  C18      1.0000 0.87860  0.08820  0.88210  Biso   1.000  C
  H8       1.0000 0.88760  0.10150  0.82470  Biso   1.000  H
  H9       1.0000 0.84670  0.06290  0.83650  Biso   1.000  H
  H10      1.0000 0.90050  0.04360  0.94350  Biso   1.000  H
  C19      1.0000 0.92760  0.22350  0.99840  Biso   1.000  C
  H11      1.0000 0.94130  0.20050  0.95460  Biso   1.000  H
  H12      1.0000 0.94890  0.20980  0.08640  Biso   1.000  H
  H13      1.0000 0.92310  0.28990  0.98670  Biso   1.000  H
  N1       1.0000 0.59441  0.58640  0.84060  Biso   1.000  N
  H14      1.0000 0.59200  0.72200  0.84600  Biso   1.000  H
  O8       1.0000 0.87080  0.22340  0.01330  Biso   1.000  O
  Ce2      1.0000 0.32007  0.78812  0.07760  Biso   1.000  Ce
  O9       1.0000 0.89482  0.33100  0.29030  Biso   1.000  O
  O10      1.0000 0.88564  0.18170  0.24100  Biso   1.000  O
  O11      1.0000 0.23112  0.85130  0.99500  Biso   1.000  O
  O12      1.0000 0.29363  0.93880  0.12270  Biso   1.000  O
  O13      1.0000 0.27065  0.18690  0.35150  Biso   1.000  O
  O14      1.0000 0.19836  0.25090  0.26700  Biso   1.000  O
  O15      1.0000 0.35080  0.69110  0.96950  Biso   1.000  O
  C20      1.0000 0.90797  0.24840  0.31870  Biso   1.000  C
  C21      1.0000 0.95025  0.22500  0.44720  Biso   1.000  C
  C22      1.0000 0.96344  0.13340  0.48430  Biso   1.000  C
  H15      1.0000 0.94450  0.08510  0.43060  Biso   1.000  H
  C23      1.0000 0.00460  0.11240  0.60080  Biso   1.000  C
  H16      1.0000 0.01310  0.05040  0.62550  Biso   1.000  H
  C24      1.0000 0.03309  0.18520  0.68070  Biso   1.000  C
  C25      1.0000 0.01880  0.27630  0.64440  Biso   1.000  C
  H17      1.0000 0.03770  0.32490  0.69760  Biso   1.000  H
  C26      1.0000 0.97730  0.29670  0.53110  Biso   1.000  C
  H18      1.0000 0.96710  0.35840  0.51030  Biso   1.000  H
  C27      1.0000 0.07811  0.16680  0.79970  Biso   1.000  C
  C28      1.0000 0.24947  0.92560  0.05910  Biso   1.000  C
  C29      1.0000 0.21751  0.99950  0.05660  Biso   1.000  C
  C30      1.0000 0.17027  0.00610  0.95540  Biso   1.000  C
  H19      1.0000 0.15750  0.96260  0.89040  Biso   1.000  H
  C31      1.0000 0.14207  0.07870  0.95200  Biso   1.000  C
  C32      1.0000 0.16014  0.13880  0.05410  Biso   1.000  C
  H20      1.0000 0.14070  0.18490  0.05430  Biso   1.000  H
  C33      1.0000 0.20752  0.12970  0.15590  Biso   1.000  C
  C34      1.0000 0.23572  0.06170  0.15520  Biso   1.000  C
  H21      1.0000 0.26770  0.05710  0.22220  Biso   1.000  H
  C35      1.0000 0.22746  0.19460  0.26810  Biso   1.000  C
  C36      1.0000 0.38000  0.67670  0.94700  Biso   1.000  C
  C37      1.0000 0.37860  0.58820  0.88210  Biso   1.000  C
  H22      1.0000 0.38760  0.60150  0.82470  Biso   1.000  H
  H23      1.0000 0.34670  0.56290  0.83650  Biso   1.000  H
  H24      1.0000 0.40050  0.54360  0.94350  Biso   1.000  H
  C38      1.0000 0.42760  0.72350  0.99840  Biso   1.000  C
  H25      1.0000 0.44130  0.70050  0.95460  Biso   1.000  H
  H26      1.0000 0.44890  0.70980  0.08640  Biso   1.000  H
  H27      1.0000 0.42310  0.78990  0.98670  Biso   1.000  H
  N2       1.0000 0.09441  0.08640  0.84060  Biso   1.000  N
  H28      1.0000 0.09200  0.22200  0.84600  Biso   1.000  H
  O16      1.0000 0.37080  0.72340  0.01330  Biso   1.000  O
  Ce3      1.0000 0.17993  0.28812  0.42240  Biso   1.000  Ce
  O17      1.0000 0.60518  0.83100  0.20970  Biso   1.000  O
  O18      1.0000 0.61436  0.68170  0.25900  Biso   1.000  O
  O19      1.0000 0.26888  0.35130  0.50500  Biso   1.000  O
  O20      1.0000 0.20637  0.43880  0.37730  Biso   1.000  O
  O21      1.0000 0.22935  0.68690  0.14850  Biso   1.000  O
  O22      1.0000 0.30164  0.75090  0.23300  Biso   1.000  O
  O23      1.0000 0.14920  0.19110  0.53050  Biso   1.000  O
  C39      1.0000 0.59203  0.74840  0.18130  Biso   1.000  C
  C40      1.0000 0.54975  0.72500  0.05280  Biso   1.000  C
  C41      1.0000 0.53656  0.63340  0.01570  Biso   1.000  C
  H29      1.0000 0.55550  0.58510  0.06940  Biso   1.000  H
  C42      1.0000 0.49540  0.61240  0.89920  Biso   1.000  C
  H30      1.0000 0.48690  0.55040  0.87450  Biso   1.000  H
  C43      1.0000 0.46691  0.68520  0.81930  Biso   1.000  C
  C44      1.0000 0.48120  0.77630  0.85560  Biso   1.000  C
  H31      1.0000 0.46230  0.82490  0.80240  Biso   1.000  H
  C45      1.0000 0.52270  0.79670  0.96890  Biso   1.000  C
  H32      1.0000 0.53290  0.85840  0.98970  Biso   1.000  H
  C46      1.0000 0.42189  0.66680  0.70030  Biso   1.000  C
  C47      1.0000 0.25053  0.42560  0.44090  Biso   1.000  C
  C48      1.0000 0.28249  0.49950  0.44340  Biso   1.000  C
  C49      1.0000 0.32973  0.50610  0.54460  Biso   1.000  C
  H33      1.0000 0.34250  0.46260  0.60960  Biso   1.000  H
  C50      1.0000 0.35793  0.57870  0.54800  Biso   1.000  C
  C51      1.0000 0.33986  0.63880  0.44590  Biso   1.000  C
  H34      1.0000 0.35930  0.68490  0.44570  Biso   1.000  H
  C52      1.0000 0.29248  0.62970  0.34410  Biso   1.000  C
  C53      1.0000 0.26428  0.56170  0.34480  Biso   1.000  C
  H35      1.0000 0.23230  0.55710  0.27780  Biso   1.000  H
  C54      1.0000 0.27254  0.69460  0.23190  Biso   1.000  C
  C55      1.0000 0.12000  0.17670  0.55300  Biso   1.000  C
  C56      1.0000 0.12140  0.08820  0.61790  Biso   1.000  C
  H36      1.0000 0.11240  0.10150  0.67530  Biso   1.000  H
  H37      1.0000 0.15330  0.06290  0.66350  Biso   1.000  H
  H38      1.0000 0.09950  0.04360  0.55650  Biso   1.000  H
  C57      1.0000 0.07240  0.22350  0.50160  Biso   1.000  C
  H39      1.0000 0.05870  0.20050  0.54540  Biso   1.000  H
  H40      1.0000 0.05110  0.20980  0.41360  Biso   1.000  H
  H41      1.0000 0.07690  0.28990  0.51330  Biso   1.000  H
  N3       1.0000 0.40559  0.58640  0.65940  Biso   1.000  N
  H42      1.0000 0.40800  0.72200  0.65400  Biso   1.000  H
  O24      1.0000 0.12920  0.22340  0.48670  Biso   1.000  O
  Ce4      1.0000 0.67993  0.78812  0.42240  Biso   1.000  Ce
  O25      1.0000 0.10518  0.33100  0.20970  Biso   1.000  O
  O26      1.0000 0.11436  0.18170  0.25900  Biso   1.000  O
  O27      1.0000 0.76888  0.85130  0.50500  Biso   1.000  O
  O28      1.0000 0.70637  0.93880  0.37730  Biso   1.000  O
  O29      1.0000 0.72935  0.18690  0.14850  Biso   1.000  O
  O30      1.0000 0.80164  0.25090  0.23300  Biso   1.000  O
  O31      1.0000 0.64920  0.69110  0.53050  Biso   1.000  O
  C58      1.0000 0.09203  0.24840  0.18130  Biso   1.000  C
  C59      1.0000 0.04975  0.22500  0.05280  Biso   1.000  C
  C60      1.0000 0.03656  0.13340  0.01570  Biso   1.000  C
  H43      1.0000 0.05550  0.08510  0.06940  Biso   1.000  H
  C61      1.0000 0.99540  0.11240  0.89920  Biso   1.000  C
  H44      1.0000 0.98690  0.05040  0.87450  Biso   1.000  H
  C62      1.0000 0.96691  0.18520  0.81930  Biso   1.000  C
  C63      1.0000 0.98120  0.27630  0.85560  Biso   1.000  C
  H45      1.0000 0.96230  0.32490  0.80240  Biso   1.000  H
  C64      1.0000 0.02270  0.29670  0.96890  Biso   1.000  C
  H46      1.0000 0.03290  0.35840  0.98970  Biso   1.000  H
  C65      1.0000 0.92189  0.16680  0.70030  Biso   1.000  C
  C66      1.0000 0.75053  0.92560  0.44090  Biso   1.000  C
  C67      1.0000 0.78249  0.99950  0.44340  Biso   1.000  C
  C68      1.0000 0.82973  0.00610  0.54460  Biso   1.000  C
  H47      1.0000 0.84250  0.96260  0.60960  Biso   1.000  H
  C69      1.0000 0.85793  0.07870  0.54800  Biso   1.000  C
  C70      1.0000 0.83986  0.13880  0.44590  Biso   1.000  C
  H48      1.0000 0.85930  0.18490  0.44570  Biso   1.000  H
  C71      1.0000 0.79248  0.12970  0.34410  Biso   1.000  C
  C72      1.0000 0.76428  0.06170  0.34480  Biso   1.000  C
  H49      1.0000 0.73230  0.05710  0.27780  Biso   1.000  H
  C73      1.0000 0.77254  0.19460  0.23190  Biso   1.000  C
  C74      1.0000 0.62000  0.67670  0.55300  Biso   1.000  C
  C75      1.0000 0.62140  0.58820  0.61790  Biso   1.000  C
  H50      1.0000 0.61240  0.60150  0.67530  Biso   1.000  H
  H51      1.0000 0.65330  0.56290  0.66350  Biso   1.000  H
  H52      1.0000 0.59950  0.54360  0.55650  Biso   1.000  H
  C76      1.0000 0.57240  0.72350  0.50160  Biso   1.000  C
  H53      1.0000 0.55870  0.70050  0.54540  Biso   1.000  H
  H54      1.0000 0.55110  0.70980  0.41360  Biso   1.000  H
  H55      1.0000 0.57690  0.78990  0.51330  Biso   1.000  H
  N4       1.0000 0.90559  0.08640  0.65940  Biso   1.000  N
  H56      1.0000 0.90800  0.22200  0.65400  Biso   1.000  H
  O32      1.0000 0.62920  0.72340  0.48670  Biso   1.000  O
  Ce5      1.0000 0.17993  0.71188  0.92240  Biso   1.000  Ce
  O33      1.0000 0.60518  0.16900  0.70970  Biso   1.000  O
  O34      1.0000 0.61436  0.31830  0.75900  Biso   1.000  O
  O35      1.0000 0.26888  0.64870  0.00500  Biso   1.000  O
  O36      1.0000 0.20637  0.56120  0.87730  Biso   1.000  O
  O37      1.0000 0.22935  0.31310  0.64850  Biso   1.000  O
  O38      1.0000 0.30164  0.24910  0.73300  Biso   1.000  O
  O39      1.0000 0.14920  0.80890  0.03050  Biso   1.000  O
  C77      1.0000 0.59203  0.25160  0.68130  Biso   1.000  C
  C78      1.0000 0.54975  0.27500  0.55280  Biso   1.000  C
  C79      1.0000 0.53656  0.36660  0.51570  Biso   1.000  C
  H57      1.0000 0.55550  0.41490  0.56940  Biso   1.000  H
  C80      1.0000 0.49540  0.38760  0.39920  Biso   1.000  C
  H58      1.0000 0.48690  0.44960  0.37450  Biso   1.000  H
  C81      1.0000 0.46691  0.31480  0.31930  Biso   1.000  C
  C82      1.0000 0.48120  0.22370  0.35560  Biso   1.000  C
  H59      1.0000 0.46230  0.17510  0.30240  Biso   1.000  H
  C83      1.0000 0.52270  0.20330  0.46890  Biso   1.000  C
  H60      1.0000 0.53290  0.14160  0.48970  Biso   1.000  H
  C84      1.0000 0.42189  0.33320  0.20030  Biso   1.000  C
  C85      1.0000 0.25053  0.57440  0.94090  Biso   1.000  C
  C86      1.0000 0.28249  0.50050  0.94340  Biso   1.000  C
  C87      1.0000 0.32973  0.49390  0.04460  Biso   1.000  C
  H61      1.0000 0.34250  0.53740  0.10960  Biso   1.000  H
  C88      1.0000 0.35793  0.42130  0.04800  Biso   1.000  C
  C89      1.0000 0.33986  0.36120  0.94590  Biso   1.000  C
  H62      1.0000 0.35930  0.31510  0.94570  Biso   1.000  H
  C90      1.0000 0.29248  0.37030  0.84410  Biso   1.000  C
  C91      1.0000 0.26428  0.43830  0.84480  Biso   1.000  C
  H63      1.0000 0.23230  0.44290  0.77780  Biso   1.000  H
  C92      1.0000 0.27254  0.30540  0.73190  Biso   1.000  C
  C93      1.0000 0.12000  0.82330  0.05300  Biso   1.000  C
  C94      1.0000 0.12140  0.91180  0.11790  Biso   1.000  C
  H64      1.0000 0.11240  0.89850  0.17530  Biso   1.000  H
  H65      1.0000 0.15330  0.93710  0.16350  Biso   1.000  H
  H66      1.0000 0.09950  0.95640  0.05650  Biso   1.000  H
  C95      1.0000 0.07240  0.77650  0.00160  Biso   1.000  C
  H67      1.0000 0.05870  0.79950  0.04540  Biso   1.000  H
  H68      1.0000 0.05110  0.79020  0.91360  Biso   1.000  H
  H69      1.0000 0.07690  0.71010  0.01330  Biso   1.000  H
  N5       1.0000 0.40559  0.41360  0.15940  Biso   1.000  N
  H70      1.0000 0.40800  0.27800  0.15400  Biso   1.000  H
  O40      1.0000 0.12920  0.77660  0.98670  Biso   1.000  O
  Ce6      1.0000 0.67993  0.21188  0.92240  Biso   1.000  Ce
  O41      1.0000 0.10518  0.66900  0.70970  Biso   1.000  O
  O42      1.0000 0.11436  0.81830  0.75900  Biso   1.000  O
  O43      1.0000 0.76888  0.14870  0.00500  Biso   1.000  O
  O44      1.0000 0.70637  0.06120  0.87730  Biso   1.000  O
  O45      1.0000 0.72935  0.81310  0.64850  Biso   1.000  O
  O46      1.0000 0.80164  0.74910  0.73300  Biso   1.000  O
  O47      1.0000 0.64920  0.30890  0.03050  Biso   1.000  O
  C96      1.0000 0.09203  0.75160  0.68130  Biso   1.000  C
  C97      1.0000 0.04975  0.77500  0.55280  Biso   1.000  C
  C98      1.0000 0.03656  0.86660  0.51570  Biso   1.000  C
  H71      1.0000 0.05550  0.91490  0.56940  Biso   1.000  H
  C99      1.0000 0.99540  0.88760  0.39920  Biso   1.000  C
  H72      1.0000 0.98690  0.94960  0.37450  Biso   1.000  H
  C100     1.0000 0.96691  0.81480  0.31930  Biso   1.000  C
  C101     1.0000 0.98120  0.72370  0.35560  Biso   1.000  C
  H73      1.0000 0.96230  0.67510  0.30240  Biso   1.000  H
  C102     1.0000 0.02270  0.70330  0.46890  Biso   1.000  C
  H74      1.0000 0.03290  0.64160  0.48970  Biso   1.000  H
  C103     1.0000 0.92189  0.83320  0.20030  Biso   1.000  C
  C104     1.0000 0.75053  0.07440  0.94090  Biso   1.000  C
  C105     1.0000 0.78249  0.00050  0.94340  Biso   1.000  C
  C106     1.0000 0.82973  0.99390  0.04460  Biso   1.000  C
  H75      1.0000 0.84250  0.03740  0.10960  Biso   1.000  H
  C107     1.0000 0.85793  0.92130  0.04800  Biso   1.000  C
  C108     1.0000 0.83986  0.86120  0.94590  Biso   1.000  C
  H76      1.0000 0.85930  0.81510  0.94570  Biso   1.000  H
  C109     1.0000 0.79248  0.87030  0.84410  Biso   1.000  C
  C110     1.0000 0.76428  0.93830  0.84480  Biso   1.000  C
  H77      1.0000 0.73230  0.94290  0.77780  Biso   1.000  H
  C111     1.0000 0.77254  0.80540  0.73190  Biso   1.000  C
  C112     1.0000 0.62000  0.32330  0.05300  Biso   1.000  C
  C113     1.0000 0.62140  0.41180  0.11790  Biso   1.000  C
  H78      1.0000 0.61240  0.39850  0.17530  Biso   1.000  H
  H79      1.0000 0.65330  0.43710  0.16350  Biso   1.000  H
  H80      1.0000 0.59950  0.45640  0.05650  Biso   1.000  H
  C114     1.0000 0.57240  0.27650  0.00160  Biso   1.000  C
  H81      1.0000 0.55870  0.29950  0.04540  Biso   1.000  H
  H82      1.0000 0.55110  0.29020  0.91360  Biso   1.000  H
  H83      1.0000 0.57690  0.21010  0.01330  Biso   1.000  H
  N6       1.0000 0.90559  0.91360  0.15940  Biso   1.000  N
  H84      1.0000 0.90800  0.77800  0.15400  Biso   1.000  H
  O48      1.0000 0.62920  0.27660  0.98670  Biso   1.000  O
  Ce7      1.0000 0.82007  0.71188  0.57760  Biso   1.000  Ce
  O49      1.0000 0.39482  0.16900  0.79030  Biso   1.000  O
  O50      1.0000 0.38564  0.31830  0.74100  Biso   1.000  O
  O51      1.0000 0.73112  0.64870  0.49500  Biso   1.000  O
  O52      1.0000 0.79363  0.56120  0.62270  Biso   1.000  O
  O53      1.0000 0.77065  0.31310  0.85150  Biso   1.000  O
  O54      1.0000 0.69836  0.24910  0.76700  Biso   1.000  O
  O55      1.0000 0.85080  0.80890  0.46950  Biso   1.000  O
  C115     1.0000 0.40797  0.25160  0.81870  Biso   1.000  C
  C116     1.0000 0.45025  0.27500  0.94720  Biso   1.000  C
  C117     1.0000 0.46344  0.36660  0.98430  Biso   1.000  C
  H85      1.0000 0.44450  0.41490  0.93060  Biso   1.000  H
  C118     1.0000 0.50460  0.38760  0.10080  Biso   1.000  C
  H86      1.0000 0.51310  0.44960  0.12550  Biso   1.000  H
  C119     1.0000 0.53309  0.31480  0.18070  Biso   1.000  C
  C120     1.0000 0.51880  0.22370  0.14440  Biso   1.000  C
  H87      1.0000 0.53770  0.17510  0.19760  Biso   1.000  H
  C121     1.0000 0.47730  0.20330  0.03110  Biso   1.000  C
  H88      1.0000 0.46710  0.14160  0.01030  Biso   1.000  H
  C122     1.0000 0.57811  0.33320  0.29970  Biso   1.000  C
  C123     1.0000 0.74947  0.57440  0.55910  Biso   1.000  C
  C124     1.0000 0.71751  0.50050  0.55660  Biso   1.000  C
  C125     1.0000 0.67027  0.49390  0.45540  Biso   1.000  C
  H89      1.0000 0.65750  0.53740  0.39040  Biso   1.000  H
  C126     1.0000 0.64207  0.42130  0.45200  Biso   1.000  C
  C127     1.0000 0.66014  0.36120  0.55410  Biso   1.000  C
  H90      1.0000 0.64070  0.31510  0.55430  Biso   1.000  H
  C128     1.0000 0.70752  0.37030  0.65590  Biso   1.000  C
  C129     1.0000 0.73572  0.43830  0.65520  Biso   1.000  C
  H91      1.0000 0.76770  0.44290  0.72220  Biso   1.000  H
  C130     1.0000 0.72746  0.30540  0.76810  Biso   1.000  C
  C131     1.0000 0.88000  0.82330  0.44700  Biso   1.000  C
  C132     1.0000 0.87860  0.91180  0.38210  Biso   1.000  C
  H92      1.0000 0.88760  0.89850  0.32470  Biso   1.000  H
  H93      1.0000 0.84670  0.93710  0.33650  Biso   1.000  H
  H94      1.0000 0.90050  0.95640  0.44350  Biso   1.000  H
  C133     1.0000 0.92760  0.77650  0.49840  Biso   1.000  C
  H95      1.0000 0.94130  0.79950  0.45460  Biso   1.000  H
  H96      1.0000 0.94890  0.79020  0.58640  Biso   1.000  H
  H97      1.0000 0.92310  0.71010  0.48670  Biso   1.000  H
  N7       1.0000 0.59441  0.41360  0.34060  Biso   1.000  N
  H98      1.0000 0.59200  0.27800  0.34600  Biso   1.000  H
  O56      1.0000 0.87080  0.77660  0.51330  Biso   1.000  O
  Ce8      1.0000 0.32007  0.21188  0.57760  Biso   1.000  Ce
  O57      1.0000 0.89482  0.66900  0.79030  Biso   1.000  O
  O58      1.0000 0.88564  0.81830  0.74100  Biso   1.000  O
  O59      1.0000 0.23112  0.14870  0.49500  Biso   1.000  O
  O60      1.0000 0.29363  0.06120  0.62270  Biso   1.000  O
  O61      1.0000 0.27065  0.81310  0.85150  Biso   1.000  O
  O62      1.0000 0.19836  0.74910  0.76700  Biso   1.000  O
  O63      1.0000 0.35080  0.30890  0.46950  Biso   1.000  O
  C134     1.0000 0.90797  0.75160  0.81870  Biso   1.000  C
  C135     1.0000 0.95025  0.77500  0.94720  Biso   1.000  C
  C136     1.0000 0.96344  0.86660  0.98430  Biso   1.000  C
  H99      1.0000 0.94450  0.91490  0.93060  Biso   1.000  H
  C137     1.0000 0.00460  0.88760  0.10080  Biso   1.000  C
  H100     1.0000 0.01310  0.94960  0.12550  Biso   1.000  H
  C138     1.0000 0.03309  0.81480  0.18070  Biso   1.000  C
  C139     1.0000 0.01880  0.72370  0.14440  Biso   1.000  C
  H101     1.0000 0.03770  0.67510  0.19760  Biso   1.000  H
  C140     1.0000 0.97730  0.70330  0.03110  Biso   1.000  C
  H102     1.0000 0.96710  0.64160  0.01030  Biso   1.000  H
  C141     1.0000 0.07811  0.83320  0.29970  Biso   1.000  C
  C142     1.0000 0.24947  0.07440  0.55910  Biso   1.000  C
  C143     1.0000 0.21751  0.00050  0.55660  Biso   1.000  C
  C144     1.0000 0.17027  0.99390  0.45540  Biso   1.000  C
  H103     1.0000 0.15750  0.03740  0.39040  Biso   1.000  H
  C145     1.0000 0.14207  0.92130  0.45200  Biso   1.000  C
  C146     1.0000 0.16014  0.86120  0.55410  Biso   1.000  C
  H104     1.0000 0.14070  0.81510  0.55430  Biso   1.000  H
  C147     1.0000 0.20752  0.87030  0.65590  Biso   1.000  C
  C148     1.0000 0.23572  0.93830  0.65520  Biso   1.000  C
  H105     1.0000 0.26770  0.94290  0.72220  Biso   1.000  H
  C149     1.0000 0.22746  0.80540  0.76810  Biso   1.000  C
  C150     1.0000 0.38000  0.32330  0.44700  Biso   1.000  C
  C151     1.0000 0.37860  0.41180  0.38210  Biso   1.000  C
  H106     1.0000 0.38760  0.39850  0.32470  Biso   1.000  H
  H107     1.0000 0.34670  0.43710  0.33650  Biso   1.000  H
  H108     1.0000 0.40050  0.45640  0.44350  Biso   1.000  H
  C152     1.0000 0.42760  0.27650  0.49840  Biso   1.000  C
  H109     1.0000 0.44130  0.29950  0.45460  Biso   1.000  H
  H110     1.0000 0.44890  0.29020  0.58640  Biso   1.000  H
  H111     1.0000 0.42310  0.21010  0.48670  Biso   1.000  H
  N8       1.0000 0.09441  0.91360  0.34060  Biso   1.000  N
  H112     1.0000 0.09200  0.77800  0.34600  Biso   1.000  H
  O64      1.0000 0.37080  0.27660  0.51330  Biso   1.000  O
