data_image0
_cell_length_a       28.667
_cell_length_b       14.9105
_cell_length_c       12.013
_cell_angle_alpha    90
_cell_angle_beta     106.274
_cell_angle_gamma    90

_symmetry_space_group_name_H-M    "P 1"
_symmetry_int_tables_number       1

loop_
  _symmetry_equiv_pos_as_xyz
  'x, y, z'

loop_
  _atom_site_label
  _atom_site_occupancy
  _atom_site_fract_x
  _atom_site_fract_y
  _atom_site_fract_z
  _atom_site_thermal_displace_type
  _atom_site_B_iso_or_equiv
  _atom_site_type_symbol
  Ce1      1.0000 0.32237  0.22084  0.56942  Biso   1.000  Ce
  O1       1.0000 0.39463  0.17790  0.49510  Biso   1.000  O
  O2       1.0000 0.38788  0.32150  0.53320  Biso   1.000  O
  O3       1.0000 0.73305  0.65110  0.46910  Biso   1.000  O
  O4       1.0000 0.79820  0.56880  0.48180  Biso   1.000  O
  O5       1.0000 0.77688  0.31120  0.20810  Biso   1.000  O
  O6       1.0000 0.70267  0.24990  0.13940  Biso   1.000  O
  N1       1.0000 0.59800  0.41520  0.35690  Biso   1.000  N
  C1       1.0000 0.40820  0.25840  0.49510  Biso   1.000  C
  C2       1.0000 0.45160  0.27990  0.45260  Biso   1.000  C
  C3       1.0000 0.47990  0.21090  0.42990  Biso   1.000  C
  H1       1.0000 0.47050  0.15160  0.43430  Biso   1.000  H
  C4       1.0000 0.52220  0.23050  0.40060  Biso   1.000  C
  H2       1.0000 0.54160  0.18410  0.38710  Biso   1.000  H
  C5       1.0000 0.53560  0.31870  0.39130  Biso   1.000  C
  C6       1.0000 0.50580  0.38890  0.40930  Biso   1.000  C
  H3       1.0000 0.51360  0.44830  0.39900  Biso   1.000  H
  C7       1.0000 0.46440  0.36810  0.44290  Biso   1.000  C
  H4       1.0000 0.44530  0.41390  0.45890  Biso   1.000  H
  C8       1.0000 0.58260  0.33670  0.36820  Biso   1.000  C
  C9       1.0000 0.75270  0.57770  0.45050  Biso   1.000  C
  C10      1.0000 0.72180  0.50170  0.39280  Biso   1.000  C
  C11      1.0000 0.67420  0.49470  0.39760  Biso   1.000  C
  H5       1.0000 0.66130  0.53770  0.43670  Biso   1.000  H
  C12      1.0000 0.64540  0.42190  0.34260  Biso   1.000  C
  C13      1.0000 0.66400  0.36240  0.27720  Biso   1.000  C
  H6       1.0000 0.64440  0.31690  0.23590  Biso   1.000  H
  C14      1.0000 0.71180  0.37050  0.27290  Biso   1.000  C
  C15      1.0000 0.74050  0.43930  0.33140  Biso   1.000  C
  H7       1.0000 0.77260  0.44390  0.32960  Biso   1.000  H
  C16      1.0000 0.73200  0.30600  0.20190  Biso   1.000  C
  O7       1.0000 0.37630  0.11680  0.71750  Biso   1.000  O
  H8       1.0000 0.59500  0.28100  0.34900  Biso   1.000  H
  O8       1.0000 0.36910  0.08400  0.69800  Biso   1.000  O
  C17      1.0000 0.38440  0.11600  0.81300  Biso   1.000  C
  H9       1.0000 0.40150  0.06900  0.86260  Biso   1.000  H
  H10      1.0000 0.35660  0.13360  0.83710  Biso   1.000  H
  H11      1.0000 0.40560  0.16640  0.81700  Biso   1.000  H
  Ce2      1.0000 0.82237  0.72084  0.56942  Biso   1.000  Ce
  O9       1.0000 0.89463  0.67790  0.49510  Biso   1.000  O
  O10      1.0000 0.88788  0.82150  0.53320  Biso   1.000  O
  O11      1.0000 0.23305  0.15110  0.46910  Biso   1.000  O
  O12      1.0000 0.29820  0.06880  0.48180  Biso   1.000  O
  O13      1.0000 0.27688  0.81120  0.20810  Biso   1.000  O
  O14      1.0000 0.20267  0.74990  0.13940  Biso   1.000  O
  N2       1.0000 0.09800  0.91520  0.35690  Biso   1.000  N
  C18      1.0000 0.90820  0.75840  0.49510  Biso   1.000  C
  C19      1.0000 0.95160  0.77990  0.45260  Biso   1.000  C
  C20      1.0000 0.97990  0.71090  0.42990  Biso   1.000  C
  H12      1.0000 0.97050  0.65160  0.43430  Biso   1.000  H
  C21      1.0000 0.02220  0.73050  0.40060  Biso   1.000  C
  H13      1.0000 0.04160  0.68410  0.38710  Biso   1.000  H
  C22      1.0000 0.03560  0.81870  0.39130  Biso   1.000  C
  C23      1.0000 0.00580  0.88890  0.40930  Biso   1.000  C
  H14      1.0000 0.01360  0.94830  0.39900  Biso   1.000  H
  C24      1.0000 0.96440  0.86810  0.44290  Biso   1.000  C
  H15      1.0000 0.94530  0.91390  0.45890  Biso   1.000  H
  C25      1.0000 0.08260  0.83670  0.36820  Biso   1.000  C
  C26      1.0000 0.25270  0.07770  0.45050  Biso   1.000  C
  C27      1.0000 0.22180  0.00170  0.39280  Biso   1.000  C
  C28      1.0000 0.17420  0.99470  0.39760  Biso   1.000  C
  H16      1.0000 0.16130  0.03770  0.43670  Biso   1.000  H
  C29      1.0000 0.14540  0.92190  0.34260  Biso   1.000  C
  C30      1.0000 0.16400  0.86240  0.27720  Biso   1.000  C
  H17      1.0000 0.14440  0.81690  0.23590  Biso   1.000  H
  C31      1.0000 0.21180  0.87050  0.27290  Biso   1.000  C
  C32      1.0000 0.24050  0.93930  0.33140  Biso   1.000  C
  H18      1.0000 0.27260  0.94390  0.32960  Biso   1.000  H
  C33      1.0000 0.23200  0.80600  0.20190  Biso   1.000  C
  O15      1.0000 0.87630  0.61680  0.71750  Biso   1.000  O
  H19      1.0000 0.09500  0.78100  0.34900  Biso   1.000  H
  O16      1.0000 0.86910  0.58400  0.69800  Biso   1.000  O
  C34      1.0000 0.88440  0.61600  0.81300  Biso   1.000  C
  H20      1.0000 0.90150  0.56900  0.86260  Biso   1.000  H
  H21      1.0000 0.85660  0.63360  0.83710  Biso   1.000  H
  H22      1.0000 0.90560  0.66640  0.81700  Biso   1.000  H
  Ce3      1.0000 0.67763  0.22084  0.93058  Biso   1.000  Ce
  O17      1.0000 0.60537  0.17790  0.00490  Biso   1.000  O
  O18      1.0000 0.61212  0.32150  0.96680  Biso   1.000  O
  O19      1.0000 0.26695  0.65110  0.03090  Biso   1.000  O
  O20      1.0000 0.20180  0.56880  0.01820  Biso   1.000  O
  O21      1.0000 0.22312  0.31120  0.29190  Biso   1.000  O
  O22      1.0000 0.29733  0.24990  0.36060  Biso   1.000  O
  N3       1.0000 0.40200  0.41520  0.14310  Biso   1.000  N
  C35      1.0000 0.59180  0.25840  0.00490  Biso   1.000  C
  C36      1.0000 0.54840  0.27990  0.04740  Biso   1.000  C
  C37      1.0000 0.52010  0.21090  0.07010  Biso   1.000  C
  H23      1.0000 0.52950  0.15160  0.06570  Biso   1.000  H
  C38      1.0000 0.47780  0.23050  0.09940  Biso   1.000  C
  H24      1.0000 0.45840  0.18410  0.11290  Biso   1.000  H
  C39      1.0000 0.46440  0.31870  0.10870  Biso   1.000  C
  C40      1.0000 0.49420  0.38890  0.09070  Biso   1.000  C
  H25      1.0000 0.48640  0.44830  0.10100  Biso   1.000  H
  C41      1.0000 0.53560  0.36810  0.05710  Biso   1.000  C
  H26      1.0000 0.55470  0.41390  0.04110  Biso   1.000  H
  C42      1.0000 0.41740  0.33670  0.13180  Biso   1.000  C
  C43      1.0000 0.24730  0.57770  0.04950  Biso   1.000  C
  C44      1.0000 0.27820  0.50170  0.10720  Biso   1.000  C
  C45      1.0000 0.32580  0.49470  0.10240  Biso   1.000  C
  H27      1.0000 0.33870  0.53770  0.06330  Biso   1.000  H
  C46      1.0000 0.35460  0.42190  0.15740  Biso   1.000  C
  C47      1.0000 0.33600  0.36240  0.22280  Biso   1.000  C
  H28      1.0000 0.35560  0.31690  0.26410  Biso   1.000  H
  C48      1.0000 0.28820  0.37050  0.22710  Biso   1.000  C
  C49      1.0000 0.25950  0.43930  0.16860  Biso   1.000  C
  H29      1.0000 0.22740  0.44390  0.17040  Biso   1.000  H
  C50      1.0000 0.26800  0.30600  0.29810  Biso   1.000  C
  O23      1.0000 0.62370  0.11680  0.78250  Biso   1.000  O
  H30      1.0000 0.40500  0.28100  0.15100  Biso   1.000  H
  O24      1.0000 0.63090  0.08400  0.80200  Biso   1.000  O
  C51      1.0000 0.61560  0.11600  0.68700  Biso   1.000  C
  H31      1.0000 0.59850  0.06900  0.63740  Biso   1.000  H
  H32      1.0000 0.64340  0.13360  0.66290  Biso   1.000  H
  H33      1.0000 0.59440  0.16640  0.68300  Biso   1.000  H
  Ce4      1.0000 0.17763  0.72084  0.93058  Biso   1.000  Ce
  O25      1.0000 0.10537  0.67790  0.00490  Biso   1.000  O
  O26      1.0000 0.11212  0.82150  0.96680  Biso   1.000  O
  O27      1.0000 0.76695  0.15110  0.03090  Biso   1.000  O
  O28      1.0000 0.70180  0.06880  0.01820  Biso   1.000  O
  O29      1.0000 0.72312  0.81120  0.29190  Biso   1.000  O
  O30      1.0000 0.79733  0.74990  0.36060  Biso   1.000  O
  N4       1.0000 0.90200  0.91520  0.14310  Biso   1.000  N
  C52      1.0000 0.09180  0.75840  0.00490  Biso   1.000  C
  C53      1.0000 0.04840  0.77990  0.04740  Biso   1.000  C
  C54      1.0000 0.02010  0.71090  0.07010  Biso   1.000  C
  H34      1.0000 0.02950  0.65160  0.06570  Biso   1.000  H
  C55      1.0000 0.97780  0.73050  0.09940  Biso   1.000  C
  H35      1.0000 0.95840  0.68410  0.11290  Biso   1.000  H
  C56      1.0000 0.96440  0.81870  0.10870  Biso   1.000  C
  C57      1.0000 0.99420  0.88890  0.09070  Biso   1.000  C
  H36      1.0000 0.98640  0.94830  0.10100  Biso   1.000  H
  C58      1.0000 0.03560  0.86810  0.05710  Biso   1.000  C
  H37      1.0000 0.05470  0.91390  0.04110  Biso   1.000  H
  C59      1.0000 0.91740  0.83670  0.13180  Biso   1.000  C
  C60      1.0000 0.74730  0.07770  0.04950  Biso   1.000  C
  C61      1.0000 0.77820  0.00170  0.10720  Biso   1.000  C
  C62      1.0000 0.82580  0.99470  0.10240  Biso   1.000  C
  H38      1.0000 0.83870  0.03770  0.06330  Biso   1.000  H
  C63      1.0000 0.85460  0.92190  0.15740  Biso   1.000  C
  C64      1.0000 0.83600  0.86240  0.22280  Biso   1.000  C
  H39      1.0000 0.85560  0.81690  0.26410  Biso   1.000  H
  C65      1.0000 0.78820  0.87050  0.22710  Biso   1.000  C
  C66      1.0000 0.75950  0.93930  0.16860  Biso   1.000  C
  H40      1.0000 0.72740  0.94390  0.17040  Biso   1.000  H
  C67      1.0000 0.76800  0.80600  0.29810  Biso   1.000  C
  O31      1.0000 0.12370  0.61680  0.78250  Biso   1.000  O
  H41      1.0000 0.90500  0.78100  0.15100  Biso   1.000  H
  O32      1.0000 0.13090  0.58400  0.80200  Biso   1.000  O
  C68      1.0000 0.11560  0.61600  0.68700  Biso   1.000  C
  H42      1.0000 0.09850  0.56900  0.63740  Biso   1.000  H
  H43      1.0000 0.14340  0.63360  0.66290  Biso   1.000  H
  H44      1.0000 0.09440  0.66640  0.68300  Biso   1.000  H
  Ce5      1.0000 0.67763  0.77916  0.43058  Biso   1.000  Ce
  O33      1.0000 0.60537  0.82210  0.50490  Biso   1.000  O
  O34      1.0000 0.61212  0.67850  0.46680  Biso   1.000  O
  O35      1.0000 0.26695  0.34890  0.53090  Biso   1.000  O
  O36      1.0000 0.20180  0.43120  0.51820  Biso   1.000  O
  O37      1.0000 0.22312  0.68880  0.79190  Biso   1.000  O
  O38      1.0000 0.29733  0.75010  0.86060  Biso   1.000  O
  N5       1.0000 0.40200  0.58480  0.64310  Biso   1.000  N
  C69      1.0000 0.59180  0.74160  0.50490  Biso   1.000  C
  C70      1.0000 0.54840  0.72010  0.54740  Biso   1.000  C
  C71      1.0000 0.52010  0.78910  0.57010  Biso   1.000  C
  H45      1.0000 0.52950  0.84840  0.56570  Biso   1.000  H
  C72      1.0000 0.47780  0.76950  0.59940  Biso   1.000  C
  H46      1.0000 0.45840  0.81590  0.61290  Biso   1.000  H
  C73      1.0000 0.46440  0.68130  0.60870  Biso   1.000  C
  C74      1.0000 0.49420  0.61110  0.59070  Biso   1.000  C
  H47      1.0000 0.48640  0.55170  0.60100  Biso   1.000  H
  C75      1.0000 0.53560  0.63190  0.55710  Biso   1.000  C
  H48      1.0000 0.55470  0.58610  0.54110  Biso   1.000  H
  C76      1.0000 0.41740  0.66330  0.63180  Biso   1.000  C
  C77      1.0000 0.24730  0.42230  0.54950  Biso   1.000  C
  C78      1.0000 0.27820  0.49830  0.60720  Biso   1.000  C
  C79      1.0000 0.32580  0.50530  0.60240  Biso   1.000  C
  H49      1.0000 0.33870  0.46230  0.56330  Biso   1.000  H
  C80      1.0000 0.35460  0.57810  0.65740  Biso   1.000  C
  C81      1.0000 0.33600  0.63760  0.72280  Biso   1.000  C
  H50      1.0000 0.35560  0.68310  0.76410  Biso   1.000  H
  C82      1.0000 0.28820  0.62950  0.72710  Biso   1.000  C
  C83      1.0000 0.25950  0.56070  0.66860  Biso   1.000  C
  H51      1.0000 0.22740  0.55610  0.67040  Biso   1.000  H
  C84      1.0000 0.26800  0.69400  0.79810  Biso   1.000  C
  O39      1.0000 0.62370  0.88320  0.28250  Biso   1.000  O
  H52      1.0000 0.40500  0.71900  0.65100  Biso   1.000  H
  O40      1.0000 0.63090  0.91600  0.30200  Biso   1.000  O
  C85      1.0000 0.61560  0.88400  0.18700  Biso   1.000  C
  H53      1.0000 0.59850  0.93100  0.13740  Biso   1.000  H
  H54      1.0000 0.64340  0.86640  0.16290  Biso   1.000  H
  H55      1.0000 0.59440  0.83360  0.18300  Biso   1.000  H
  Ce6      1.0000 0.17763  0.27916  0.43058  Biso   1.000  Ce
  O41      1.0000 0.10537  0.32210  0.50490  Biso   1.000  O
  O42      1.0000 0.11212  0.17850  0.46680  Biso   1.000  O
  O43      1.0000 0.76695  0.84890  0.53090  Biso   1.000  O
  O44      1.0000 0.70180  0.93120  0.51820  Biso   1.000  O
  O45      1.0000 0.72312  0.18880  0.79190  Biso   1.000  O
  O46      1.0000 0.79733  0.25010  0.86060  Biso   1.000  O
  N6       1.0000 0.90200  0.08480  0.64310  Biso   1.000  N
  C86      1.0000 0.09180  0.24160  0.50490  Biso   1.000  C
  C87      1.0000 0.04840  0.22010  0.54740  Biso   1.000  C
  C88      1.0000 0.02010  0.28910  0.57010  Biso   1.000  C
  H56      1.0000 0.02950  0.34840  0.56570  Biso   1.000  H
  C89      1.0000 0.97780  0.26950  0.59940  Biso   1.000  C
  H57      1.0000 0.95840  0.31590  0.61290  Biso   1.000  H
  C90      1.0000 0.96440  0.18130  0.60870  Biso   1.000  C
  C91      1.0000 0.99420  0.11110  0.59070  Biso   1.000  C
  H58      1.0000 0.98640  0.05170  0.60100  Biso   1.000  H
  C92      1.0000 0.03560  0.13190  0.55710  Biso   1.000  C
  H59      1.0000 0.05470  0.08610  0.54110  Biso   1.000  H
  C93      1.0000 0.91740  0.16330  0.63180  Biso   1.000  C
  C94      1.0000 0.74730  0.92230  0.54950  Biso   1.000  C
  C95      1.0000 0.77820  0.99830  0.60720  Biso   1.000  C
  C96      1.0000 0.82580  0.00530  0.60240  Biso   1.000  C
  H60      1.0000 0.83870  0.96230  0.56330  Biso   1.000  H
  C97      1.0000 0.85460  0.07810  0.65740  Biso   1.000  C
  C98      1.0000 0.83600  0.13760  0.72280  Biso   1.000  C
  H61      1.0000 0.85560  0.18310  0.76410  Biso   1.000  H
  C99      1.0000 0.78820  0.12950  0.72710  Biso   1.000  C
  C100     1.0000 0.75950  0.06070  0.66860  Biso   1.000  C
  H62      1.0000 0.72740  0.05610  0.67040  Biso   1.000  H
  C101     1.0000 0.76800  0.19400  0.79810  Biso   1.000  C
  O47      1.0000 0.12370  0.38320  0.28250  Biso   1.000  O
  H63      1.0000 0.90500  0.21900  0.65100  Biso   1.000  H
  O48      1.0000 0.13090  0.41600  0.30200  Biso   1.000  O
  C102     1.0000 0.11560  0.38400  0.18700  Biso   1.000  C
  H64      1.0000 0.09850  0.43100  0.13740  Biso   1.000  H
  H65      1.0000 0.14340  0.36640  0.16290  Biso   1.000  H
  H66      1.0000 0.09440  0.33360  0.18300  Biso   1.000  H
  Ce7      1.0000 0.32237  0.77916  0.06942  Biso   1.000  Ce
  O49      1.0000 0.39463  0.82210  0.99510  Biso   1.000  O
  O50      1.0000 0.38788  0.67850  0.03320  Biso   1.000  O
  O51      1.0000 0.73305  0.34890  0.96910  Biso   1.000  O
  O52      1.0000 0.79820  0.43120  0.98180  Biso   1.000  O
  O53      1.0000 0.77688  0.68880  0.70810  Biso   1.000  O
  O54      1.0000 0.70267  0.75010  0.63940  Biso   1.000  O
  N7       1.0000 0.59800  0.58480  0.85690  Biso   1.000  N
  C103     1.0000 0.40820  0.74160  0.99510  Biso   1.000  C
  C104     1.0000 0.45160  0.72010  0.95260  Biso   1.000  C
  C105     1.0000 0.47990  0.78910  0.92990  Biso   1.000  C
  H67      1.0000 0.47050  0.84840  0.93430  Biso   1.000  H
  C106     1.0000 0.52220  0.76950  0.90060  Biso   1.000  C
  H68      1.0000 0.54160  0.81590  0.88710  Biso   1.000  H
  C107     1.0000 0.53560  0.68130  0.89130  Biso   1.000  C
  C108     1.0000 0.50580  0.61110  0.90930  Biso   1.000  C
  H69      1.0000 0.51360  0.55170  0.89900  Biso   1.000  H
  C109     1.0000 0.46440  0.63190  0.94290  Biso   1.000  C
  H70      1.0000 0.44530  0.58610  0.95890  Biso   1.000  H
  C110     1.0000 0.58260  0.66330  0.86820  Biso   1.000  C
  C111     1.0000 0.75270  0.42230  0.95050  Biso   1.000  C
  C112     1.0000 0.72180  0.49830  0.89280  Biso   1.000  C
  C113     1.0000 0.67420  0.50530  0.89760  Biso   1.000  C
  H71      1.0000 0.66130  0.46230  0.93670  Biso   1.000  H
  C114     1.0000 0.64540  0.57810  0.84260  Biso   1.000  C
  C115     1.0000 0.66400  0.63760  0.77720  Biso   1.000  C
  H72      1.0000 0.64440  0.68310  0.73590  Biso   1.000  H
  C116     1.0000 0.71180  0.62950  0.77290  Biso   1.000  C
  C117     1.0000 0.74050  0.56070  0.83140  Biso   1.000  C
  H73      1.0000 0.77260  0.55610  0.82960  Biso   1.000  H
  C118     1.0000 0.73200  0.69400  0.70190  Biso   1.000  C
  O55      1.0000 0.37630  0.88320  0.21750  Biso   1.000  O
  H74      1.0000 0.59500  0.71900  0.84900  Biso   1.000  H
  O56      1.0000 0.36910  0.91600  0.19800  Biso   1.000  O
  C119     1.0000 0.38440  0.88400  0.31300  Biso   1.000  C
  H75      1.0000 0.40150  0.93100  0.36260  Biso   1.000  H
  H76      1.0000 0.35660  0.86640  0.33710  Biso   1.000  H
  H77      1.0000 0.40560  0.83360  0.31700  Biso   1.000  H
  Ce8      1.0000 0.82237  0.27916  0.06942  Biso   1.000  Ce
  O57      1.0000 0.89463  0.32210  0.99510  Biso   1.000  O
  O58      1.0000 0.88788  0.17850  0.03320  Biso   1.000  O
  O59      1.0000 0.23305  0.84890  0.96910  Biso   1.000  O
  O60      1.0000 0.29820  0.93120  0.98180  Biso   1.000  O
  O61      1.0000 0.27688  0.18880  0.70810  Biso   1.000  O
  O62      1.0000 0.20267  0.25010  0.63940  Biso   1.000  O
  N8       1.0000 0.09800  0.08480  0.85690  Biso   1.000  N
  C120     1.0000 0.90820  0.24160  0.99510  Biso   1.000  C
  C121     1.0000 0.95160  0.22010  0.95260  Biso   1.000  C
  C122     1.0000 0.97990  0.28910  0.92990  Biso   1.000  C
  H78      1.0000 0.97050  0.34840  0.93430  Biso   1.000  H
  C123     1.0000 0.02220  0.26950  0.90060  Biso   1.000  C
  H79      1.0000 0.04160  0.31590  0.88710  Biso   1.000  H
  C124     1.0000 0.03560  0.18130  0.89130  Biso   1.000  C
  C125     1.0000 0.00580  0.11110  0.90930  Biso   1.000  C
  H80      1.0000 0.01360  0.05170  0.89900  Biso   1.000  H
  C126     1.0000 0.96440  0.13190  0.94290  Biso   1.000  C
  H81      1.0000 0.94530  0.08610  0.95890  Biso   1.000  H
  C127     1.0000 0.08260  0.16330  0.86820  Biso   1.000  C
  C128     1.0000 0.25270  0.92230  0.95050  Biso   1.000  C
  C129     1.0000 0.22180  0.99830  0.89280  Biso   1.000  C
  C130     1.0000 0.17420  0.00530  0.89760  Biso   1.000  C
  H82      1.0000 0.16130  0.96230  0.93670  Biso   1.000  H
  C131     1.0000 0.14540  0.07810  0.84260  Biso   1.000  C
  C132     1.0000 0.16400  0.13760  0.77720  Biso   1.000  C
  H83      1.0000 0.14440  0.18310  0.73590  Biso   1.000  H
  C133     1.0000 0.21180  0.12950  0.77290  Biso   1.000  C
  C134     1.0000 0.24050  0.06070  0.83140  Biso   1.000  C
  H84      1.0000 0.27260  0.05610  0.82960  Biso   1.000  H
  C135     1.0000 0.23200  0.19400  0.70190  Biso   1.000  C
  O63      1.0000 0.87630  0.38320  0.21750  Biso   1.000  O
  H85      1.0000 0.09500  0.21900  0.84900  Biso   1.000  H
  O64      1.0000 0.86910  0.41600  0.19800  Biso   1.000  O
  C136     1.0000 0.88440  0.38400  0.31300  Biso   1.000  C
  H86      1.0000 0.90150  0.43100  0.36260  Biso   1.000  H
  H87      1.0000 0.85660  0.36640  0.33710  Biso   1.000  H
  H88      1.0000 0.90560  0.33360  0.31700  Biso   1.000  H
