data_image0
_cell_length_a       15.278
_cell_length_b       15.56
_cell_length_c       18.174
_cell_angle_alpha    64.665
_cell_angle_beta     78.123
_cell_angle_gamma    61.048

_symmetry_space_group_name_H-M    "P 1"
_symmetry_int_tables_number       1

loop_
  _symmetry_equiv_pos_as_xyz
  'x, y, z'

loop_
  _atom_site_label
  _atom_site_occupancy
  _atom_site_fract_x
  _atom_site_fract_y
  _atom_site_fract_z
  _atom_site_thermal_displace_type
  _atom_site_B_iso_or_equiv
  _atom_site_type_symbol
  C1       1.0000 0.03730  0.31990  0.42810  Biso   1.000  C
  C2       1.0000 0.94570  0.33160  0.48510  Biso   1.000  C
  C3       1.0000 0.10990  0.30910  0.66930  Biso   1.000  C
  C4       1.0000 0.10070  0.20750  0.73240  Biso   1.000  C
  C5       1.0000 0.28100  0.33400  0.83660  Biso   1.000  C
  C6       1.0000 0.19070  0.44430  0.82810  Biso   1.000  C
  C7       1.0000 0.42710  0.34260  0.99810  Biso   1.000  C
  C8       1.0000 0.52030  0.32240  0.94140  Biso   1.000  C
  C9       1.0000 0.59950  0.02160  0.25600  Biso   1.000  C
  C10      1.0000 0.59300  0.98860  0.18990  Biso   1.000  C
  C11      1.0000 0.77960  0.66100  0.31770  Biso   1.000  C
  C12      1.0000 0.69330  0.63110  0.32810  Biso   1.000  C
  C13      1.0000 0.03600  0.27320  0.99240  Biso   1.000  C
  C14      1.0000 0.93960  0.35040  0.93500  Biso   1.000  C
  C15      1.0000 0.36340  0.64530  0.75780  Biso   1.000  C
  C16      1.0000 0.37080  0.60100  0.69490  Biso   1.000  C
  C17      1.0000 0.54130  0.78040  0.49400  Biso   1.000  C
  C18      1.0000 0.44830  0.84950  0.43740  Biso   1.000  C
  C19      1.0000 0.28100  0.01780  0.59680  Biso   1.000  C
  C20      1.0000 0.19320  0.99850  0.59090  Biso   1.000  C
  C21      1.0000 0.78160  0.19850  0.10060  Biso   1.000  C
  C22      1.0000 0.69560  0.30630  0.10530  Biso   1.000  C
  C23      1.0000 0.88230  0.32590  0.23490  Biso   1.000  C
  C24      1.0000 0.87480  0.43280  0.16720  Biso   1.000  C
  O1       1.0000 0.86330  0.38610  0.45150  Biso   1.000  O
  O2       1.0000 0.96510  0.28580  0.55990  Biso   1.000  O
  O3       1.0000 0.02590  0.36620  0.35300  Biso   1.000  O
  O4       1.0000 0.12180  0.26220  0.46230  Biso   1.000  O
  O5       1.0000 0.09230  0.15250  0.70190  Biso   1.000  O
  O6       1.0000 0.09970  0.19100  0.80590  Biso   1.000  O
  O7       1.0000 0.11700  0.31880  0.59510  Biso   1.000  O
  O8       1.0000 0.11010  0.36980  0.69430  Biso   1.000  O
  O9       1.0000 0.10530  0.45660  0.82160  Biso   1.000  O
  O10      1.0000 0.21220  0.51150  0.83040  Biso   1.000  O
  O11      1.0000 0.26470  0.26550  0.83410  Biso   1.000  O
  O12      1.0000 0.36480  0.32470  0.84530  Biso   1.000  O
  O13      1.0000 0.50340  0.37770  0.86680  Biso   1.000  O
  O14      1.0000 0.60300  0.25610  0.97230  Biso   1.000  O
  O15      1.0000 0.34630  0.40610  0.96260  Biso   1.000  O
  O16      1.0000 0.44010  0.29360  0.07310  Biso   1.000  O
  O17      1.0000 0.59370  0.11160  0.23450  Biso   1.000  O
  O18      1.0000 0.60960  0.95430  0.32810  Biso   1.000  O
  O19      1.0000 0.59020  0.04630  0.11830  Biso   1.000  O
  O20      1.0000 0.58980  0.89840  0.21790  Biso   1.000  O
  O21      1.0000 0.75580  0.74890  0.32110  Biso   1.000  O
  O22      1.0000 0.86590  0.59690  0.30650  Biso   1.000  O
  O23      1.0000 0.60790  0.69850  0.33530  Biso   1.000  O
  O24      1.0000 0.71380  0.54480  0.32510  Biso   1.000  O
  O25      1.0000 0.11640  0.23920  0.95960  Biso   1.000  O
  O26      1.0000 0.01690  0.25660  0.06570  Biso   1.000  O
  O27      1.0000 0.95250  0.37590  0.86110  Biso   1.000  O
  O28      1.0000 0.85810  0.38130  0.97080  Biso   1.000  O
  O29      1.0000 0.37360  0.51120  0.72130  Biso   1.000  O
  O30      1.0000 0.37520  0.65470  0.62040  Biso   1.000  O
  O31      1.0000 0.35420  0.58900  0.83010  Biso   1.000  O
  O32      1.0000 0.37060  0.73100  0.73120  Biso   1.000  O
  O33      1.0000 0.52930  0.75080  0.56750  Biso   1.000  O
  O34      1.0000 0.62200  0.76220  0.45660  Biso   1.000  O
  O35      1.0000 0.36550  0.86720  0.46930  Biso   1.000  O
  O36      1.0000 0.46440  0.88260  0.36170  Biso   1.000  O
  O37      1.0000 0.36620  0.94690  0.60220  Biso   1.000  O
  O38      1.0000 0.25530  0.11020  0.59470  Biso   1.000  O
  O39      1.0000 0.21220  0.91080  0.59480  Biso   1.000  O
  O40      1.0000 0.10850  0.07560  0.58180  Biso   1.000  O
  O41      1.0000 0.60860  0.31990  0.11200  Biso   1.000  O
  O42      1.0000 0.72730  0.36970  0.10380  Biso   1.000  O
  O43      1.0000 0.75620  0.13290  0.10310  Biso   1.000  O
  O44      1.0000 0.86780  0.18970  0.09560  Biso   1.000  O
  O45      1.0000 0.89200  0.25720  0.20870  Biso   1.000  O
  O46      1.0000 0.88120  0.31380  0.30670  Biso   1.000  O
  O47      1.0000 0.86950  0.44330  0.09470  Biso   1.000  O
  O48      1.0000 0.87360  0.49910  0.18810  Biso   1.000  O
  Cr1      1.0000 0.10878  0.20180  0.58341  Biso   1.000  Cr
  Cr2      1.0000 0.35800  0.45646  0.84223  Biso   1.000  Cr
  Cr3      1.0000 0.60867  0.82575  0.33630  Biso   1.000  Cr
  Cr4      1.0000 0.87269  0.31633  0.09054  Biso   1.000  Cr
  Mn1      1.0000 0.10839  0.31148  0.82705  Biso   1.000  Mn
  Mn2      1.0000 0.59634  0.19035  0.10426  Biso   1.000  Mn
  Mn3      1.0000 0.87133  0.44831  0.31924  Biso   1.000  Mn
  Mn4      1.0000 0.37347  0.80374  0.60208  Biso   1.000  Mn
  C25      1.0000 0.35800  0.85630  0.95400  Biso   1.000  C
  C26      1.0000 0.36470  0.81970  0.89510  Biso   1.000  C
  H1       1.0000 0.36740  0.75170  0.91160  Biso   1.000  H
  C27      1.0000 0.36740  0.87540  0.81690  Biso   1.000  C
  H2       1.0000 0.37470  0.84540  0.77890  Biso   1.000  H
  C28      1.0000 0.35990  0.97670  0.78850  Biso   1.000  C
  H3       1.0000 0.36000  0.01730  0.73190  Biso   1.000  H
  C29      1.0000 0.35250  0.01560  0.84470  Biso   1.000  C
  H4       1.0000 0.34600  0.08550  0.82640  Biso   1.000  H
  C30      1.0000 0.35400  0.95770  0.92750  Biso   1.000  C
  C31      1.0000 0.35410  0.00040  0.98290  Biso   1.000  C
  H5       1.0000 0.35220  0.06890  0.95850  Biso   1.000  H
  C32      1.0000 0.37330  0.00280  0.11060  Biso   1.000  C
  H6       1.0000 0.44650  0.96600  0.12240  Biso   1.000  H
  C33      1.0000 0.34140  0.12190  0.06990  Biso   1.000  C
  H7       1.0000 0.37850  0.13710  0.01900  Biso   1.000  H
  H8       1.0000 0.35560  0.14530  0.10640  Biso   1.000  H
  H9       1.0000 0.26950  0.16000  0.05820  Biso   1.000  H
  C34      1.0000 0.32000  0.97210  0.18980  Biso   1.000  C
  H10      1.0000 0.34100  0.98400  0.23130  Biso   1.000  H
  H11      1.0000 0.24680  0.01540  0.18220  Biso   1.000  H
  C35      1.0000 0.35340  0.79980  0.29320  Biso   1.000  C
  H12      1.0000 0.34600  0.83090  0.33050  Biso   1.000  H
  C36      1.0000 0.37110  0.68860  0.32670  Biso   1.000  C
  C37      1.0000 0.38270  0.63620  0.41070  Biso   1.000  C
  H13      1.0000 0.38440  0.67060  0.44240  Biso   1.000  H
  C38      1.0000 0.39180  0.53340  0.44830  Biso   1.000  C
  H14      1.0000 0.39980  0.49750  0.50570  Biso   1.000  H
  C39      1.0000 0.38940  0.48300  0.40190  Biso   1.000  C
  H15      1.0000 0.39560  0.41280  0.42760  Biso   1.000  H
  C40      1.0000 0.37780  0.53550  0.31790  Biso   1.000  C
  H16      1.0000 0.37610  0.50110  0.28620  Biso   1.000  H
  C41      1.0000 0.36860  0.63830  0.28030  Biso   1.000  C
  N1       1.0000 0.35650  0.95960  0.06070  Biso   1.000  N
  N2       1.0000 0.34720  0.85840  0.21630  Biso   1.000  N
  O49      1.0000 0.36350  0.79270  0.03280  Biso   1.000  O
  O50      1.0000 0.35670  0.68640  0.19860  Biso   1.000  O
  Mn5      1.0000 0.35410  0.81883  0.12560  Biso   1.000  Mn
  O51      1.0000 0.52200  0.73770  0.10330  Biso   1.000  O
  C42      1.0000 0.59380  0.68210  0.16410  Biso   1.000  C
  H17      1.0000 0.66050  0.65390  0.14080  Biso   1.000  H
  H18      1.0000 0.58230  0.62320  0.20650  Biso   1.000  H
  H19      1.0000 0.58910  0.73010  0.18780  Biso   1.000  H
  O52      1.0000 0.52280  0.74030  0.15860  Biso   1.000  O
  C43      1.0000 0.58960  0.64900  0.13880  Biso   1.000  C
  H20      1.0000 0.65770  0.62330  0.15570  Biso   1.000  H
  H21      1.0000 0.58830  0.66890  0.08000  Biso   1.000  H
  H22      1.0000 0.56840  0.59260  0.16740  Biso   1.000  H
  C44      1.0000 0.85230  0.93650  0.47430  Biso   1.000  C
  C45      1.0000 0.86960  0.02440  0.41810  Biso   1.000  C
  H23      1.0000 0.88030  0.06710  0.43670  Biso   1.000  H
  C46      1.0000 0.87050  0.04640  0.33530  Biso   1.000  C
  H24      1.0000 0.87830  0.10730  0.29740  Biso   1.000  H
  C47      1.0000 0.86040  0.98280  0.30610  Biso   1.000  C
  H25      1.0000 0.86260  0.99890  0.24930  Biso   1.000  H
  C48      1.0000 0.84760  0.89900  0.35910  Biso   1.000  C
  H26      1.0000 0.84110  0.85480  0.33930  Biso   1.000  H
  C49      1.0000 0.84350  0.87400  0.44130  Biso   1.000  C
  C50      1.0000 0.82870  0.78220  0.49480  Biso   1.000  C
  H27      1.0000 0.81560  0.74800  0.46880  Biso   1.000  H
  C51      1.0000 0.81510  0.64430  0.62050  Biso   1.000  C
  H28      1.0000 0.74320  0.66720  0.63710  Biso   1.000  H
  C52      1.0000 0.84140  0.57220  0.57460  Biso   1.000  C
  H29      1.0000 0.79920  0.61170  0.52600  Biso   1.000  H
  H30      1.0000 0.83010  0.51020  0.61000  Biso   1.000  H
  H31      1.0000 0.91190  0.54860  0.55830  Biso   1.000  H
  C53      1.0000 0.87670  0.58770  0.69380  Biso   1.000  C
  H32      1.0000 0.94780  0.55000  0.68040  Biso   1.000  H
  H33      1.0000 0.85570  0.53440  0.73520  Biso   1.000  H
  C54      1.0000 0.86180  0.64120  0.80310  Biso   1.000  C
  H34      1.0000 0.86070  0.57550  0.83760  Biso   1.000  H
  C55      1.0000 0.86040  0.70500  0.84100  Biso   1.000  C
  C56      1.0000 0.86620  0.66300  0.92930  Biso   1.000  C
  H35      1.0000 0.87070  0.59370  0.95860  Biso   1.000  H
  C57      1.0000 0.86570  0.71500  0.97200  Biso   1.000  C
  H36      1.0000 0.86570  0.68590  0.02980  Biso   1.000  H
  C58      1.0000 0.86510  0.81590  0.92710  Biso   1.000  C
  H37      1.0000 0.86740  0.85300  0.95620  Biso   1.000  H
  C59      1.0000 0.86130  0.86310  0.84150  Biso   1.000  C
  H38      1.0000 0.86040  0.93100  0.81360  Biso   1.000  H
  C60      1.0000 0.85870  0.80740  0.79740  Biso   1.000  C
  N3       1.0000 0.83060  0.74030  0.57290  Biso   1.000  N
  N4       1.0000 0.86460  0.66510  0.72620  Biso   1.000  N
  O53      1.0000 0.84650  0.92130  0.55090  Biso   1.000  O
  O54      1.0000 0.85700  0.85210  0.71770  Biso   1.000  O
  Mn6      1.0000 0.84783  0.80344  0.64113  Biso   1.000  Mn
  O55      1.0000 0.01570  0.74330  0.60790  Biso   1.000  O
  C61      1.0000 0.09610  0.67000  0.66020  Biso   1.000  C
  H39      1.0000 0.15850  0.65960  0.62920  Biso   1.000  H
  H40      1.0000 0.09240  0.60220  0.68730  Biso   1.000  H
  H41      1.0000 0.09440  0.69620  0.70100  Biso   1.000  H
  O56      1.0000 0.01580  0.69460  0.66260  Biso   1.000  O
  C62      1.0000 0.08600  0.75000  0.64090  Biso   1.000  C
  H42      1.0000 0.15590  0.69600  0.65290  Biso   1.000  H
  H43      1.0000 0.06710  0.79340  0.67330  Biso   1.000  H
  H44      1.0000 0.07970  0.79610  0.58280  Biso   1.000  H
