data_image0
_cell_length_a       14.3175
_cell_length_b       14.402
_cell_length_c       22.6162
_cell_angle_alpha    90
_cell_angle_beta     100.498
_cell_angle_gamma    90

_symmetry_space_group_name_H-M    "P 1"
_symmetry_int_tables_number       1

loop_
  _symmetry_equiv_pos_as_xyz
  'x, y, z'

loop_
  _atom_site_label
  _atom_site_occupancy
  _atom_site_fract_x
  _atom_site_fract_y
  _atom_site_fract_z
  _atom_site_thermal_displace_type
  _atom_site_B_iso_or_equiv
  _atom_site_type_symbol
  Cd1      1.0000 0.75528  0.74707  0.24112  Biso   1.000  Cd
  Cd2      1.0000 0.31474  0.12532  0.13933  Biso   1.000  Cd
  O1       1.0000 0.80450  0.81970  0.16262  Biso   1.000  O
  O2       1.0000 0.87940  0.86230  0.25330  Biso   1.000  O
  C1       1.0000 0.86780  0.86630  0.19640  Biso   1.000  C
  C2       1.0000 0.93090  0.92790  0.16728  Biso   1.000  C
  C3       1.0000 0.99660  0.98540  0.20130  Biso   1.000  C
  H1       1.0000 0.00170  0.98780  0.24370  Biso   1.000  H
  C4       1.0000 0.05470  0.03960  0.17310  Biso   1.000  C
  C5       1.0000 0.04790  0.03550  0.11120  Biso   1.000  C
  H2       1.0000 0.08860  0.07280  0.09220  Biso   1.000  H
  C6       1.0000 0.98260  0.97780  0.07710  Biso   1.000  C
  C7       1.0000 0.92310  0.92530  0.10500  Biso   1.000  C
  H3       1.0000 0.87630  0.88700  0.08160  Biso   1.000  H
  C8       1.0000 0.98380  0.95030  0.01220  Biso   1.000  C
  H4       1.0000 0.92030  0.93070  0.99080  Biso   1.000  H
  H5       1.0000 0.03070  0.90060  0.00950  Biso   1.000  H
  C9       1.0000 0.12380  0.10750  0.20890  Biso   1.000  C
  O3       1.0000 0.12330  0.12140  0.26277  Biso   1.000  O
  O4       1.0000 0.18050  0.15100  0.18093  Biso   1.000  O
  O5       1.0000 0.39460  0.09400  0.23150  Biso   1.000  O
  O6       1.0000 0.35170  0.15600  0.31312  Biso   1.000  O
  C10      1.0000 0.39640  0.10010  0.28690  Biso   1.000  C
  C11      1.0000 0.46290  0.03400  0.32689  Biso   1.000  C
  C12      1.0000 0.46610  0.03330  0.38830  Biso   1.000  C
  H6       1.0000 0.42770  0.07560  0.40550  Biso   1.000  H
  C13      1.0000 0.52390  0.97220  0.42500  Biso   1.000  C
  C14      1.0000 0.57800  0.91030  0.40010  Biso   1.000  C
  H7       1.0000 0.61630  0.86680  0.42530  Biso   1.000  H
  C15      1.0000 0.57790  0.90980  0.33860  Biso   1.000  C
  C16      1.0000 0.51850  0.97220  0.30160  Biso   1.000  C
  H8       1.0000 0.51640  0.97200  0.25940  Biso   1.000  H
  C17      1.0000 0.53670  0.98800  0.48900  Biso   1.000  C
  H9       1.0000 0.56270  0.93040  0.50960  Biso   1.000  H
  H10      1.0000 0.58550  0.03690  0.49950  Biso   1.000  H
  C18      1.0000 0.63720  0.84180  0.31150  Biso   1.000  C
  O7       1.0000 0.64420  0.85190  0.25780  Biso   1.000  O
  O8       1.0000 0.68030  0.78130  0.34560  Biso   1.000  O
  O9       1.0000 0.96390  0.98290  0.01480  Biso   1.000  O
  O10      1.0000 0.52330  0.95790  0.48810  Biso   1.000  O
  Cd3      1.0000 0.24472  0.24707  0.25888  Biso   1.000  Cd
  Cd4      1.0000 0.68526  0.62532  0.36066  Biso   1.000  Cd
  O11      1.0000 0.19550  0.31970  0.33738  Biso   1.000  O
  O12      1.0000 0.12060  0.36230  0.24670  Biso   1.000  O
  C19      1.0000 0.13220  0.36630  0.30360  Biso   1.000  C
  C20      1.0000 0.06910  0.42790  0.33272  Biso   1.000  C
  C21      1.0000 0.00340  0.48540  0.29870  Biso   1.000  C
  H11      1.0000 0.99830  0.48780  0.25630  Biso   1.000  H
  C22      1.0000 0.94530  0.53960  0.32690  Biso   1.000  C
  C23      1.0000 0.95210  0.53550  0.38880  Biso   1.000  C
  H12      1.0000 0.91140  0.57280  0.40780  Biso   1.000  H
  C24      1.0000 0.01740  0.47780  0.42290  Biso   1.000  C
  C25      1.0000 0.07690  0.42530  0.39500  Biso   1.000  C
  H13      1.0000 0.12370  0.38700  0.41840  Biso   1.000  H
  C26      1.0000 0.01620  0.45030  0.48780  Biso   1.000  C
  H14      1.0000 0.07970  0.43070  0.50920  Biso   1.000  H
  H15      1.0000 0.96930  0.40060  0.49050  Biso   1.000  H
  C27      1.0000 0.87620  0.60750  0.29110  Biso   1.000  C
  O13      1.0000 0.87670  0.62140  0.23723  Biso   1.000  O
  O14      1.0000 0.81950  0.65100  0.31907  Biso   1.000  O
  O15      1.0000 0.60540  0.59400  0.26850  Biso   1.000  O
  O16      1.0000 0.64830  0.65600  0.18688  Biso   1.000  O
  C28      1.0000 0.60360  0.60010  0.21310  Biso   1.000  C
  C29      1.0000 0.53710  0.53400  0.17311  Biso   1.000  C
  C30      1.0000 0.53390  0.53330  0.11170  Biso   1.000  C
  H16      1.0000 0.57230  0.57560  0.09450  Biso   1.000  H
  C31      1.0000 0.47610  0.47220  0.07500  Biso   1.000  C
  C32      1.0000 0.42200  0.41030  0.09990  Biso   1.000  C
  H17      1.0000 0.38370  0.36680  0.07470  Biso   1.000  H
  C33      1.0000 0.42210  0.40980  0.16140  Biso   1.000  C
  C34      1.0000 0.48150  0.47220  0.19840  Biso   1.000  C
  H18      1.0000 0.48360  0.47200  0.24060  Biso   1.000  H
  C35      1.0000 0.46330  0.48800  0.01100  Biso   1.000  C
  H19      1.0000 0.43730  0.43040  0.99040  Biso   1.000  H
  H20      1.0000 0.41450  0.53690  0.00050  Biso   1.000  H
  C36      1.0000 0.36280  0.34180  0.18850  Biso   1.000  C
  O17      1.0000 0.35580  0.35190  0.24220  Biso   1.000  O
  O18      1.0000 0.31970  0.28130  0.15440  Biso   1.000  O
  O19      1.0000 0.03610  0.48290  0.48520  Biso   1.000  O
  O20      1.0000 0.47670  0.45790  0.01190  Biso   1.000  O
  Cd5      1.0000 0.24472  0.25293  0.75888  Biso   1.000  Cd
  Cd6      1.0000 0.68526  0.87468  0.86066  Biso   1.000  Cd
  O21      1.0000 0.19550  0.18030  0.83738  Biso   1.000  O
  O22      1.0000 0.12060  0.13770  0.74670  Biso   1.000  O
  C37      1.0000 0.13220  0.13370  0.80360  Biso   1.000  C
  C38      1.0000 0.06910  0.07210  0.83272  Biso   1.000  C
  C39      1.0000 0.00340  0.01460  0.79870  Biso   1.000  C
  H21      1.0000 0.99830  0.01220  0.75630  Biso   1.000  H
  C40      1.0000 0.94530  0.96040  0.82690  Biso   1.000  C
  C41      1.0000 0.95210  0.96450  0.88880  Biso   1.000  C
  H22      1.0000 0.91140  0.92720  0.90780  Biso   1.000  H
  C42      1.0000 0.01740  0.02220  0.92290  Biso   1.000  C
  C43      1.0000 0.07690  0.07470  0.89500  Biso   1.000  C
  H23      1.0000 0.12370  0.11300  0.91840  Biso   1.000  H
  C44      1.0000 0.01620  0.04970  0.98780  Biso   1.000  C
  H24      1.0000 0.07970  0.06930  0.00920  Biso   1.000  H
  H25      1.0000 0.96930  0.09940  0.99050  Biso   1.000  H
  C45      1.0000 0.87620  0.89250  0.79110  Biso   1.000  C
  O23      1.0000 0.87670  0.87860  0.73723  Biso   1.000  O
  O24      1.0000 0.81950  0.84900  0.81907  Biso   1.000  O
  O25      1.0000 0.60540  0.90600  0.76850  Biso   1.000  O
  O26      1.0000 0.64830  0.84400  0.68688  Biso   1.000  O
  C46      1.0000 0.60360  0.89990  0.71310  Biso   1.000  C
  C47      1.0000 0.53710  0.96600  0.67311  Biso   1.000  C
  C48      1.0000 0.53390  0.96670  0.61170  Biso   1.000  C
  H26      1.0000 0.57230  0.92440  0.59450  Biso   1.000  H
  C49      1.0000 0.47610  0.02780  0.57500  Biso   1.000  C
  C50      1.0000 0.42200  0.08970  0.59990  Biso   1.000  C
  H27      1.0000 0.38370  0.13320  0.57470  Biso   1.000  H
  C51      1.0000 0.42210  0.09020  0.66140  Biso   1.000  C
  C52      1.0000 0.48150  0.02780  0.69840  Biso   1.000  C
  H28      1.0000 0.48360  0.02800  0.74060  Biso   1.000  H
  C53      1.0000 0.46330  0.01200  0.51100  Biso   1.000  C
  H29      1.0000 0.43730  0.06960  0.49040  Biso   1.000  H
  H30      1.0000 0.41450  0.96310  0.50050  Biso   1.000  H
  C54      1.0000 0.36280  0.15820  0.68850  Biso   1.000  C
  O27      1.0000 0.35580  0.14810  0.74220  Biso   1.000  O
  O28      1.0000 0.31970  0.21870  0.65440  Biso   1.000  O
  O29      1.0000 0.03610  0.01710  0.98520  Biso   1.000  O
  O30      1.0000 0.47670  0.04210  0.51190  Biso   1.000  O
  Cd7      1.0000 0.75528  0.75293  0.74112  Biso   1.000  Cd
  Cd8      1.0000 0.31474  0.37468  0.63933  Biso   1.000  Cd
  O31      1.0000 0.80450  0.68030  0.66262  Biso   1.000  O
  O32      1.0000 0.87940  0.63770  0.75330  Biso   1.000  O
  C55      1.0000 0.86780  0.63370  0.69640  Biso   1.000  C
  C56      1.0000 0.93090  0.57210  0.66728  Biso   1.000  C
  C57      1.0000 0.99660  0.51460  0.70130  Biso   1.000  C
  H31      1.0000 0.00170  0.51220  0.74370  Biso   1.000  H
  C58      1.0000 0.05470  0.46040  0.67310  Biso   1.000  C
  C59      1.0000 0.04790  0.46450  0.61120  Biso   1.000  C
  H32      1.0000 0.08860  0.42720  0.59220  Biso   1.000  H
  C60      1.0000 0.98260  0.52220  0.57710  Biso   1.000  C
  C61      1.0000 0.92310  0.57470  0.60500  Biso   1.000  C
  H33      1.0000 0.87630  0.61300  0.58160  Biso   1.000  H
  C62      1.0000 0.98380  0.54970  0.51220  Biso   1.000  C
  H34      1.0000 0.92030  0.56930  0.49080  Biso   1.000  H
  H35      1.0000 0.03070  0.59940  0.50950  Biso   1.000  H
  C63      1.0000 0.12380  0.39250  0.70890  Biso   1.000  C
  O33      1.0000 0.12330  0.37860  0.76277  Biso   1.000  O
  O34      1.0000 0.18050  0.34900  0.68093  Biso   1.000  O
  O35      1.0000 0.39460  0.40600  0.73150  Biso   1.000  O
  O36      1.0000 0.35170  0.34400  0.81312  Biso   1.000  O
  C64      1.0000 0.39640  0.39990  0.78690  Biso   1.000  C
  C65      1.0000 0.46290  0.46600  0.82689  Biso   1.000  C
  C66      1.0000 0.46610  0.46670  0.88830  Biso   1.000  C
  H36      1.0000 0.42770  0.42440  0.90550  Biso   1.000  H
  C67      1.0000 0.52390  0.52780  0.92500  Biso   1.000  C
  C68      1.0000 0.57800  0.58970  0.90010  Biso   1.000  C
  H37      1.0000 0.61630  0.63320  0.92530  Biso   1.000  H
  C69      1.0000 0.57790  0.59020  0.83860  Biso   1.000  C
  C70      1.0000 0.51850  0.52780  0.80160  Biso   1.000  C
  H38      1.0000 0.51640  0.52800  0.75940  Biso   1.000  H
  C71      1.0000 0.53670  0.51200  0.98900  Biso   1.000  C
  H39      1.0000 0.56270  0.56960  0.00960  Biso   1.000  H
  H40      1.0000 0.58550  0.46310  0.99950  Biso   1.000  H
  C72      1.0000 0.63720  0.65820  0.81150  Biso   1.000  C
  O37      1.0000 0.64420  0.64810  0.75780  Biso   1.000  O
  O38      1.0000 0.68030  0.71870  0.84560  Biso   1.000  O
  O39      1.0000 0.96390  0.51710  0.51480  Biso   1.000  O
  O40      1.0000 0.52330  0.54210  0.98810  Biso   1.000  O
