data_image0
_cell_length_a       16.8167
_cell_length_b       14.2636
_cell_length_c       12.007
_cell_angle_alpha    90
_cell_angle_beta     118.469
_cell_angle_gamma    90

_symmetry_space_group_name_H-M    "P 1"
_symmetry_int_tables_number       1

loop_
  _symmetry_equiv_pos_as_xyz
  'x, y, z'

loop_
  _atom_site_label
  _atom_site_occupancy
  _atom_site_fract_x
  _atom_site_fract_y
  _atom_site_fract_z
  _atom_site_thermal_displace_type
  _atom_site_B_iso_or_equiv
  _atom_site_type_symbol
  Co1      1.0000 0.40322  0.82699  0.59902  Biso   1.000  Co
  O1       1.0000 0.29843  0.90603  0.58580  Biso   1.000  O
  O2       1.0000 0.36117  0.00405  0.75010  Biso   1.000  O
  C1       1.0000 0.29570  0.97440  0.65030  Biso   1.000  C
  C2       1.0000 0.20560  0.02400  0.59840  Biso   1.000  C
  C3       1.0000 0.18830  0.08980  0.66880  Biso   1.000  C
  H1       1.0000 0.23250  0.10300  0.75350  Biso   1.000  H
  C4       1.0000 0.10470  0.13690  0.61420  Biso   1.000  C
  C5       1.0000 0.07920  0.21030  0.68240  Biso   1.000  C
  O3       1.0000 0.12989  0.22675  0.79700  Biso   1.000  O
  O4       1.0000 0.00576  0.24770  0.61470  Biso   1.000  O
  C6       1.0000 0.04120  0.11680  0.48940  Biso   1.000  C
  H2       1.0000 0.98500  0.14900  0.45130  Biso   1.000  H
  C7       1.0000 0.05910  0.05090  0.42070  Biso   1.000  C
  C8       1.0000 0.14120  0.00420  0.47420  Biso   1.000  C
  H3       1.0000 0.15350  0.95890  0.42640  Biso   1.000  H
  O5       1.0000 0.99580  0.06500  0.28930  Biso   1.000  O
  C9       1.0000 0.01450  0.01110  0.20560  Biso   1.000  C
  H4       1.0000 0.00670  0.94440  0.21310  Biso   1.000  H
  H5       1.0000 0.07480  0.02300  0.21730  Biso   1.000  H
  H6       1.0000 0.53590  0.96170  0.75280  Biso   1.000  H
  H7       1.0000 0.48080  0.93310  0.80460  Biso   1.000  H
  Co2      1.0000 0.90322  0.32699  0.59902  Biso   1.000  Co
  O6       1.0000 0.79843  0.40603  0.58580  Biso   1.000  O
  O7       1.0000 0.86117  0.50405  0.75010  Biso   1.000  O
  C10      1.0000 0.79570  0.47440  0.65030  Biso   1.000  C
  C11      1.0000 0.70560  0.52400  0.59840  Biso   1.000  C
  C12      1.0000 0.68830  0.58980  0.66880  Biso   1.000  C
  H8       1.0000 0.73250  0.60300  0.75350  Biso   1.000  H
  C13      1.0000 0.60470  0.63690  0.61420  Biso   1.000  C
  C14      1.0000 0.57920  0.71030  0.68240  Biso   1.000  C
  O8       1.0000 0.62989  0.72675  0.79700  Biso   1.000  O
  O9       1.0000 0.50576  0.74770  0.61470  Biso   1.000  O
  C15      1.0000 0.54120  0.61680  0.48940  Biso   1.000  C
  H9       1.0000 0.48500  0.64900  0.45130  Biso   1.000  H
  C16      1.0000 0.55910  0.55090  0.42070  Biso   1.000  C
  C17      1.0000 0.64120  0.50420  0.47420  Biso   1.000  C
  H10      1.0000 0.65350  0.45890  0.42640  Biso   1.000  H
  O10      1.0000 0.49580  0.56500  0.28930  Biso   1.000  O
  C18      1.0000 0.51450  0.51110  0.20560  Biso   1.000  C
  H11      1.0000 0.50670  0.44440  0.21310  Biso   1.000  H
  H12      1.0000 0.57480  0.52300  0.21730  Biso   1.000  H
  H13      1.0000 0.03590  0.46170  0.75280  Biso   1.000  H
  H14      1.0000 0.98080  0.43310  0.80460  Biso   1.000  H
  Co3      1.0000 0.59678  0.82699  0.90098  Biso   1.000  Co
  O11      1.0000 0.70157  0.90603  0.91420  Biso   1.000  O
  O12      1.0000 0.63883  0.00405  0.74990  Biso   1.000  O
  C19      1.0000 0.70430  0.97440  0.84970  Biso   1.000  C
  C20      1.0000 0.79440  0.02400  0.90160  Biso   1.000  C
  C21      1.0000 0.81170  0.08980  0.83120  Biso   1.000  C
  H15      1.0000 0.76750  0.10300  0.74650  Biso   1.000  H
  C22      1.0000 0.89530  0.13690  0.88580  Biso   1.000  C
  C23      1.0000 0.92080  0.21030  0.81760  Biso   1.000  C
  O13      1.0000 0.87011  0.22675  0.70300  Biso   1.000  O
  O14      1.0000 0.99424  0.24770  0.88530  Biso   1.000  O
  C24      1.0000 0.95880  0.11680  0.01060  Biso   1.000  C
  H16      1.0000 0.01500  0.14900  0.04870  Biso   1.000  H
  C25      1.0000 0.94090  0.05090  0.07930  Biso   1.000  C
  C26      1.0000 0.85880  0.00420  0.02580  Biso   1.000  C
  H17      1.0000 0.84650  0.95890  0.07360  Biso   1.000  H
  O15      1.0000 0.00420  0.06500  0.21070  Biso   1.000  O
  C27      1.0000 0.98550  0.01110  0.29440  Biso   1.000  C
  H18      1.0000 0.99330  0.94440  0.28690  Biso   1.000  H
  H19      1.0000 0.92520  0.02300  0.28270  Biso   1.000  H
  H20      1.0000 0.46410  0.96170  0.74720  Biso   1.000  H
  H21      1.0000 0.51920  0.93310  0.69540  Biso   1.000  H
  Co4      1.0000 0.09678  0.32699  0.90098  Biso   1.000  Co
  O16      1.0000 0.20157  0.40603  0.91420  Biso   1.000  O
  O17      1.0000 0.13883  0.50405  0.74990  Biso   1.000  O
  C28      1.0000 0.20430  0.47440  0.84970  Biso   1.000  C
  C29      1.0000 0.29440  0.52400  0.90160  Biso   1.000  C
  C30      1.0000 0.31170  0.58980  0.83120  Biso   1.000  C
  H22      1.0000 0.26750  0.60300  0.74650  Biso   1.000  H
  C31      1.0000 0.39530  0.63690  0.88580  Biso   1.000  C
  C32      1.0000 0.42080  0.71030  0.81760  Biso   1.000  C
  O18      1.0000 0.37011  0.72675  0.70300  Biso   1.000  O
  O19      1.0000 0.49424  0.74770  0.88530  Biso   1.000  O
  C33      1.0000 0.45880  0.61680  0.01060  Biso   1.000  C
  H23      1.0000 0.51500  0.64900  0.04870  Biso   1.000  H
  C34      1.0000 0.44090  0.55090  0.07930  Biso   1.000  C
  C35      1.0000 0.35880  0.50420  0.02580  Biso   1.000  C
  H24      1.0000 0.34650  0.45890  0.07360  Biso   1.000  H
  O20      1.0000 0.50420  0.56500  0.21070  Biso   1.000  O
  C36      1.0000 0.48550  0.51110  0.29440  Biso   1.000  C
  H25      1.0000 0.49330  0.44440  0.28690  Biso   1.000  H
  H26      1.0000 0.42520  0.52300  0.28270  Biso   1.000  H
  H27      1.0000 0.96410  0.46170  0.74720  Biso   1.000  H
  H28      1.0000 0.01920  0.43310  0.69540  Biso   1.000  H
  O21      1.0000 0.50000  0.91400  0.75000  Biso   1.000  O
  O22      1.0000 0.00000  0.41400  0.75000  Biso   1.000  O
  Co5      1.0000 0.59678  0.17301  0.40098  Biso   1.000  Co
  O23      1.0000 0.70157  0.09397  0.41420  Biso   1.000  O
  O24      1.0000 0.63883  0.99595  0.24990  Biso   1.000  O
  C37      1.0000 0.70430  0.02560  0.34970  Biso   1.000  C
  C38      1.0000 0.79440  0.97600  0.40160  Biso   1.000  C
  C39      1.0000 0.81170  0.91020  0.33120  Biso   1.000  C
  H29      1.0000 0.76750  0.89700  0.24650  Biso   1.000  H
  C40      1.0000 0.89530  0.86310  0.38580  Biso   1.000  C
  C41      1.0000 0.92080  0.78970  0.31760  Biso   1.000  C
  O25      1.0000 0.87011  0.77325  0.20300  Biso   1.000  O
  O26      1.0000 0.99424  0.75230  0.38530  Biso   1.000  O
  C42      1.0000 0.95880  0.88320  0.51060  Biso   1.000  C
  H30      1.0000 0.01500  0.85100  0.54870  Biso   1.000  H
  C43      1.0000 0.94090  0.94910  0.57930  Biso   1.000  C
  C44      1.0000 0.85880  0.99580  0.52580  Biso   1.000  C
  H31      1.0000 0.84650  0.04110  0.57360  Biso   1.000  H
  O27      1.0000 0.00420  0.93500  0.71070  Biso   1.000  O
  C45      1.0000 0.98550  0.98890  0.79440  Biso   1.000  C
  H32      1.0000 0.99330  0.05560  0.78690  Biso   1.000  H
  H33      1.0000 0.92520  0.97700  0.78270  Biso   1.000  H
  H34      1.0000 0.46410  0.03830  0.24720  Biso   1.000  H
  H35      1.0000 0.51920  0.06690  0.19540  Biso   1.000  H
  Co6      1.0000 0.09678  0.67301  0.40098  Biso   1.000  Co
  O28      1.0000 0.20157  0.59397  0.41420  Biso   1.000  O
  O29      1.0000 0.13883  0.49595  0.24990  Biso   1.000  O
  C46      1.0000 0.20430  0.52560  0.34970  Biso   1.000  C
  C47      1.0000 0.29440  0.47600  0.40160  Biso   1.000  C
  C48      1.0000 0.31170  0.41020  0.33120  Biso   1.000  C
  H36      1.0000 0.26750  0.39700  0.24650  Biso   1.000  H
  C49      1.0000 0.39530  0.36310  0.38580  Biso   1.000  C
  C50      1.0000 0.42080  0.28970  0.31760  Biso   1.000  C
  O30      1.0000 0.37011  0.27325  0.20300  Biso   1.000  O
  O31      1.0000 0.49424  0.25230  0.38530  Biso   1.000  O
  C51      1.0000 0.45880  0.38320  0.51060  Biso   1.000  C
  H37      1.0000 0.51500  0.35100  0.54870  Biso   1.000  H
  C52      1.0000 0.44090  0.44910  0.57930  Biso   1.000  C
  C53      1.0000 0.35880  0.49580  0.52580  Biso   1.000  C
  H38      1.0000 0.34650  0.54110  0.57360  Biso   1.000  H
  O32      1.0000 0.50420  0.43500  0.71070  Biso   1.000  O
  C54      1.0000 0.48550  0.48890  0.79440  Biso   1.000  C
  H39      1.0000 0.49330  0.55560  0.78690  Biso   1.000  H
  H40      1.0000 0.42520  0.47700  0.78270  Biso   1.000  H
  H41      1.0000 0.96410  0.53830  0.24720  Biso   1.000  H
  H42      1.0000 0.01920  0.56690  0.19540  Biso   1.000  H
  Co7      1.0000 0.40322  0.17301  0.09902  Biso   1.000  Co
  O33      1.0000 0.29843  0.09397  0.08580  Biso   1.000  O
  O34      1.0000 0.36117  0.99595  0.25010  Biso   1.000  O
  C55      1.0000 0.29570  0.02560  0.15030  Biso   1.000  C
  C56      1.0000 0.20560  0.97600  0.09840  Biso   1.000  C
  C57      1.0000 0.18830  0.91020  0.16880  Biso   1.000  C
  H43      1.0000 0.23250  0.89700  0.25350  Biso   1.000  H
  C58      1.0000 0.10470  0.86310  0.11420  Biso   1.000  C
  C59      1.0000 0.07920  0.78970  0.18240  Biso   1.000  C
  O35      1.0000 0.12989  0.77325  0.29700  Biso   1.000  O
  O36      1.0000 0.00576  0.75230  0.11470  Biso   1.000  O
  C60      1.0000 0.04120  0.88320  0.98940  Biso   1.000  C
  H44      1.0000 0.98500  0.85100  0.95130  Biso   1.000  H
  C61      1.0000 0.05910  0.94910  0.92070  Biso   1.000  C
  C62      1.0000 0.14120  0.99580  0.97420  Biso   1.000  C
  H45      1.0000 0.15350  0.04110  0.92640  Biso   1.000  H
  O37      1.0000 0.99580  0.93500  0.78930  Biso   1.000  O
  C63      1.0000 0.01450  0.98890  0.70560  Biso   1.000  C
  H46      1.0000 0.00670  0.05560  0.71310  Biso   1.000  H
  H47      1.0000 0.07480  0.97700  0.71730  Biso   1.000  H
  H48      1.0000 0.53590  0.03830  0.25280  Biso   1.000  H
  H49      1.0000 0.48080  0.06690  0.30460  Biso   1.000  H
  Co8      1.0000 0.90322  0.67301  0.09902  Biso   1.000  Co
  O38      1.0000 0.79843  0.59397  0.08580  Biso   1.000  O
  O39      1.0000 0.86117  0.49595  0.25010  Biso   1.000  O
  C64      1.0000 0.79570  0.52560  0.15030  Biso   1.000  C
  C65      1.0000 0.70560  0.47600  0.09840  Biso   1.000  C
  C66      1.0000 0.68830  0.41020  0.16880  Biso   1.000  C
  H50      1.0000 0.73250  0.39700  0.25350  Biso   1.000  H
  C67      1.0000 0.60470  0.36310  0.11420  Biso   1.000  C
  C68      1.0000 0.57920  0.28970  0.18240  Biso   1.000  C
  O40      1.0000 0.62989  0.27325  0.29700  Biso   1.000  O
  O41      1.0000 0.50576  0.25230  0.11470  Biso   1.000  O
  C69      1.0000 0.54120  0.38320  0.98940  Biso   1.000  C
  H51      1.0000 0.48500  0.35100  0.95130  Biso   1.000  H
  C70      1.0000 0.55910  0.44910  0.92070  Biso   1.000  C
  C71      1.0000 0.64120  0.49580  0.97420  Biso   1.000  C
  H52      1.0000 0.65350  0.54110  0.92640  Biso   1.000  H
  O42      1.0000 0.49580  0.43500  0.78930  Biso   1.000  O
  C72      1.0000 0.51450  0.48890  0.70560  Biso   1.000  C
  H53      1.0000 0.50670  0.55560  0.71310  Biso   1.000  H
  H54      1.0000 0.57480  0.47700  0.71730  Biso   1.000  H
  H55      1.0000 0.03590  0.53830  0.25280  Biso   1.000  H
  H56      1.0000 0.98080  0.56690  0.30460  Biso   1.000  H
  O43      1.0000 0.50000  0.08600  0.25000  Biso   1.000  O
  O44      1.0000 0.00000  0.58600  0.25000  Biso   1.000  O
