data_image0
_cell_length_a       16.791
_cell_length_b       14.107
_cell_length_c       12.228
_cell_angle_alpha    90
_cell_angle_beta     119.02
_cell_angle_gamma    90

_symmetry_space_group_name_H-M    "P 1"
_symmetry_int_tables_number       1

loop_
  _symmetry_equiv_pos_as_xyz
  'x, y, z'

loop_
  _atom_site_label
  _atom_site_occupancy
  _atom_site_fract_x
  _atom_site_fract_y
  _atom_site_fract_z
  _atom_site_thermal_displace_type
  _atom_site_B_iso_or_equiv
  _atom_site_type_symbol
  Co1      1.0000 0.09662  0.16872  0.89762  Biso   1.000  Co
  C1       1.0000 0.42340  0.78580  0.82210  Biso   1.000  C
  C2       1.0000 0.39880  0.85980  0.88910  Biso   1.000  C
  C3       1.0000 0.31600  0.90790  0.83300  Biso   1.000  C
  H1       1.0000 0.27330  0.89580  0.75020  Biso   1.000  H
  C4       1.0000 0.29770  0.97400  0.90170  Biso   1.000  C
  C5       1.0000 0.36130  0.99300  0.02580  Biso   1.000  C
  H2       1.0000 0.34870  0.03790  0.07090  Biso   1.000  H
  C6       1.0000 0.44360  0.94460  0.08180  Biso   1.000  C
  C7       1.0000 0.46090  0.87820  0.01280  Biso   1.000  C
  H3       1.0000 0.51570  0.84510  0.05050  Biso   1.000  H
  C8       1.0000 0.20640  0.02220  0.84750  Biso   1.000  C
  O1       1.0000 0.48824  0.73200  0.89220  Biso   1.000  O
  O2       1.0000 0.38117  0.77881  0.70610  Biso   1.000  O
  O3       1.0000 0.13965  0.98680  0.75590  Biso   1.000  O
  O4       1.0000 0.20370  0.09694  0.90190  Biso   1.000  O
  O5       1.0000 0.50036  0.93346  0.20424  Biso   1.000  O
  H4       1.0000 0.03440  0.04130  0.73620  Biso   1.000  H
  C9       1.0000 0.51750  0.98230  0.21160  Biso   1.000  C
  H5       1.0000 0.57830  0.96850  0.22540  Biso   1.000  H
  H6       1.0000 0.51160  0.05020  0.21830  Biso   1.000  H
  Co2      1.0000 0.59662  0.66872  0.89762  Biso   1.000  Co
  C10      1.0000 0.92340  0.28580  0.82210  Biso   1.000  C
  C11      1.0000 0.89880  0.35980  0.88910  Biso   1.000  C
  C12      1.0000 0.81600  0.40790  0.83300  Biso   1.000  C
  H7       1.0000 0.77330  0.39580  0.75020  Biso   1.000  H
  C13      1.0000 0.79770  0.47400  0.90170  Biso   1.000  C
  C14      1.0000 0.86130  0.49300  0.02580  Biso   1.000  C
  H8       1.0000 0.84870  0.53790  0.07090  Biso   1.000  H
  C15      1.0000 0.94360  0.44460  0.08180  Biso   1.000  C
  C16      1.0000 0.96090  0.37820  0.01280  Biso   1.000  C
  H9       1.0000 0.01570  0.34510  0.05050  Biso   1.000  H
  C17      1.0000 0.70640  0.52220  0.84750  Biso   1.000  C
  O6       1.0000 0.98824  0.23200  0.89220  Biso   1.000  O
  O7       1.0000 0.88117  0.27881  0.70610  Biso   1.000  O
  O8       1.0000 0.63965  0.48680  0.75590  Biso   1.000  O
  O9       1.0000 0.70370  0.59694  0.90190  Biso   1.000  O
  O10      1.0000 0.00036  0.43346  0.20424  Biso   1.000  O
  H10      1.0000 0.53440  0.54130  0.73620  Biso   1.000  H
  C18      1.0000 0.01750  0.48230  0.21160  Biso   1.000  C
  H11      1.0000 0.07830  0.46850  0.22540  Biso   1.000  H
  H12      1.0000 0.01160  0.55020  0.21830  Biso   1.000  H
  Co3      1.0000 0.90338  0.16872  0.60238  Biso   1.000  Co
  C19      1.0000 0.57660  0.78580  0.67790  Biso   1.000  C
  C20      1.0000 0.60120  0.85980  0.61090  Biso   1.000  C
  C21      1.0000 0.68400  0.90790  0.66700  Biso   1.000  C
  H13      1.0000 0.72670  0.89580  0.74980  Biso   1.000  H
  C22      1.0000 0.70230  0.97400  0.59830  Biso   1.000  C
  C23      1.0000 0.63870  0.99300  0.47420  Biso   1.000  C
  H14      1.0000 0.65130  0.03790  0.42910  Biso   1.000  H
  C24      1.0000 0.55640  0.94460  0.41820  Biso   1.000  C
  C25      1.0000 0.53910  0.87820  0.48720  Biso   1.000  C
  H15      1.0000 0.48430  0.84510  0.44950  Biso   1.000  H
  C26      1.0000 0.79360  0.02220  0.65250  Biso   1.000  C
  O11      1.0000 0.51176  0.73200  0.60780  Biso   1.000  O
  O12      1.0000 0.61883  0.77881  0.79390  Biso   1.000  O
  O13      1.0000 0.86035  0.98680  0.74410  Biso   1.000  O
  O14      1.0000 0.79630  0.09694  0.59810  Biso   1.000  O
  O15      1.0000 0.49964  0.93346  0.29576  Biso   1.000  O
  H16      1.0000 0.96560  0.04130  0.76380  Biso   1.000  H
  C27      1.0000 0.48250  0.98230  0.28840  Biso   1.000  C
  H17      1.0000 0.42170  0.96850  0.27460  Biso   1.000  H
  H18      1.0000 0.48840  0.05020  0.28170  Biso   1.000  H
  Co4      1.0000 0.40338  0.66872  0.60238  Biso   1.000  Co
  C28      1.0000 0.07660  0.28580  0.67790  Biso   1.000  C
  C29      1.0000 0.10120  0.35980  0.61090  Biso   1.000  C
  C30      1.0000 0.18400  0.40790  0.66700  Biso   1.000  C
  H19      1.0000 0.22670  0.39580  0.74980  Biso   1.000  H
  C31      1.0000 0.20230  0.47400  0.59830  Biso   1.000  C
  C32      1.0000 0.13870  0.49300  0.47420  Biso   1.000  C
  H20      1.0000 0.15130  0.53790  0.42910  Biso   1.000  H
  C33      1.0000 0.05640  0.44460  0.41820  Biso   1.000  C
  C34      1.0000 0.03910  0.37820  0.48720  Biso   1.000  C
  H21      1.0000 0.98430  0.34510  0.44950  Biso   1.000  H
  C35      1.0000 0.29360  0.52220  0.65250  Biso   1.000  C
  O16      1.0000 0.01176  0.23200  0.60780  Biso   1.000  O
  O17      1.0000 0.11883  0.27881  0.79390  Biso   1.000  O
  O18      1.0000 0.36035  0.48680  0.74410  Biso   1.000  O
  O19      1.0000 0.29630  0.59694  0.59810  Biso   1.000  O
  O20      1.0000 0.99964  0.43346  0.29576  Biso   1.000  O
  H22      1.0000 0.46560  0.54130  0.76380  Biso   1.000  H
  C36      1.0000 0.98250  0.48230  0.28840  Biso   1.000  C
  H23      1.0000 0.92170  0.46850  0.27460  Biso   1.000  H
  H24      1.0000 0.98840  0.55020  0.28170  Biso   1.000  H
  O21      1.0000 0.00000  0.07962  0.75000  Biso   1.000  O
  O22      1.0000 0.50000  0.57962  0.75000  Biso   1.000  O
  Co5      1.0000 0.90338  0.83128  0.10238  Biso   1.000  Co
  C37      1.0000 0.57660  0.21420  0.17790  Biso   1.000  C
  C38      1.0000 0.60120  0.14020  0.11090  Biso   1.000  C
  C39      1.0000 0.68400  0.09210  0.16700  Biso   1.000  C
  H25      1.0000 0.72670  0.10420  0.24980  Biso   1.000  H
  C40      1.0000 0.70230  0.02600  0.09830  Biso   1.000  C
  C41      1.0000 0.63870  0.00700  0.97420  Biso   1.000  C
  H26      1.0000 0.65130  0.96210  0.92910  Biso   1.000  H
  C42      1.0000 0.55640  0.05540  0.91820  Biso   1.000  C
  C43      1.0000 0.53910  0.12180  0.98720  Biso   1.000  C
  H27      1.0000 0.48430  0.15490  0.94950  Biso   1.000  H
  C44      1.0000 0.79360  0.97780  0.15250  Biso   1.000  C
  O23      1.0000 0.51176  0.26800  0.10780  Biso   1.000  O
  O24      1.0000 0.61883  0.22119  0.29390  Biso   1.000  O
  O25      1.0000 0.86035  0.01320  0.24410  Biso   1.000  O
  O26      1.0000 0.79630  0.90306  0.09810  Biso   1.000  O
  O27      1.0000 0.49964  0.06654  0.79576  Biso   1.000  O
  H28      1.0000 0.96560  0.95870  0.26380  Biso   1.000  H
  C45      1.0000 0.48250  0.01770  0.78840  Biso   1.000  C
  H29      1.0000 0.42170  0.03150  0.77460  Biso   1.000  H
  H30      1.0000 0.48840  0.94980  0.78170  Biso   1.000  H
  Co6      1.0000 0.40338  0.33128  0.10238  Biso   1.000  Co
  C46      1.0000 0.07660  0.71420  0.17790  Biso   1.000  C
  C47      1.0000 0.10120  0.64020  0.11090  Biso   1.000  C
  C48      1.0000 0.18400  0.59210  0.16700  Biso   1.000  C
  H31      1.0000 0.22670  0.60420  0.24980  Biso   1.000  H
  C49      1.0000 0.20230  0.52600  0.09830  Biso   1.000  C
  C50      1.0000 0.13870  0.50700  0.97420  Biso   1.000  C
  H32      1.0000 0.15130  0.46210  0.92910  Biso   1.000  H
  C51      1.0000 0.05640  0.55540  0.91820  Biso   1.000  C
  C52      1.0000 0.03910  0.62180  0.98720  Biso   1.000  C
  H33      1.0000 0.98430  0.65490  0.94950  Biso   1.000  H
  C53      1.0000 0.29360  0.47780  0.15250  Biso   1.000  C
  O28      1.0000 0.01176  0.76800  0.10780  Biso   1.000  O
  O29      1.0000 0.11883  0.72119  0.29390  Biso   1.000  O
  O30      1.0000 0.36035  0.51320  0.24410  Biso   1.000  O
  O31      1.0000 0.29630  0.40306  0.09810  Biso   1.000  O
  O32      1.0000 0.99964  0.56654  0.79576  Biso   1.000  O
  H34      1.0000 0.46560  0.45870  0.26380  Biso   1.000  H
  C54      1.0000 0.98250  0.51770  0.78840  Biso   1.000  C
  H35      1.0000 0.92170  0.53150  0.77460  Biso   1.000  H
  H36      1.0000 0.98840  0.44980  0.78170  Biso   1.000  H
  Co7      1.0000 0.09662  0.83128  0.39762  Biso   1.000  Co
  C55      1.0000 0.42340  0.21420  0.32210  Biso   1.000  C
  C56      1.0000 0.39880  0.14020  0.38910  Biso   1.000  C
  C57      1.0000 0.31600  0.09210  0.33300  Biso   1.000  C
  H37      1.0000 0.27330  0.10420  0.25020  Biso   1.000  H
  C58      1.0000 0.29770  0.02600  0.40170  Biso   1.000  C
  C59      1.0000 0.36130  0.00700  0.52580  Biso   1.000  C
  H38      1.0000 0.34870  0.96210  0.57090  Biso   1.000  H
  C60      1.0000 0.44360  0.05540  0.58180  Biso   1.000  C
  C61      1.0000 0.46090  0.12180  0.51280  Biso   1.000  C
  H39      1.0000 0.51570  0.15490  0.55050  Biso   1.000  H
  C62      1.0000 0.20640  0.97780  0.34750  Biso   1.000  C
  O33      1.0000 0.48824  0.26800  0.39220  Biso   1.000  O
  O34      1.0000 0.38117  0.22119  0.20610  Biso   1.000  O
  O35      1.0000 0.13965  0.01320  0.25590  Biso   1.000  O
  O36      1.0000 0.20370  0.90306  0.40190  Biso   1.000  O
  O37      1.0000 0.50036  0.06654  0.70424  Biso   1.000  O
  H40      1.0000 0.03440  0.95870  0.23620  Biso   1.000  H
  C63      1.0000 0.51750  0.01770  0.71160  Biso   1.000  C
  H41      1.0000 0.57830  0.03150  0.72540  Biso   1.000  H
  H42      1.0000 0.51160  0.94980  0.71830  Biso   1.000  H
  Co8      1.0000 0.59662  0.33128  0.39762  Biso   1.000  Co
  C64      1.0000 0.92340  0.71420  0.32210  Biso   1.000  C
  C65      1.0000 0.89880  0.64020  0.38910  Biso   1.000  C
  C66      1.0000 0.81600  0.59210  0.33300  Biso   1.000  C
  H43      1.0000 0.77330  0.60420  0.25020  Biso   1.000  H
  C67      1.0000 0.79770  0.52600  0.40170  Biso   1.000  C
  C68      1.0000 0.86130  0.50700  0.52580  Biso   1.000  C
  H44      1.0000 0.84870  0.46210  0.57090  Biso   1.000  H
  C69      1.0000 0.94360  0.55540  0.58180  Biso   1.000  C
  C70      1.0000 0.96090  0.62180  0.51280  Biso   1.000  C
  H45      1.0000 0.01570  0.65490  0.55050  Biso   1.000  H
  C71      1.0000 0.70640  0.47780  0.34750  Biso   1.000  C
  O38      1.0000 0.98824  0.76800  0.39220  Biso   1.000  O
  O39      1.0000 0.88117  0.72119  0.20610  Biso   1.000  O
  O40      1.0000 0.63965  0.51320  0.25590  Biso   1.000  O
  O41      1.0000 0.70370  0.40306  0.40190  Biso   1.000  O
  O42      1.0000 0.00036  0.56654  0.70424  Biso   1.000  O
  H46      1.0000 0.53440  0.45870  0.23620  Biso   1.000  H
  C72      1.0000 0.01750  0.51770  0.71160  Biso   1.000  C
  H47      1.0000 0.07830  0.53150  0.72540  Biso   1.000  H
  H48      1.0000 0.01160  0.44980  0.71830  Biso   1.000  H
  O43      1.0000 0.00000  0.92038  0.25000  Biso   1.000  O
  O44      1.0000 0.50000  0.42038  0.25000  Biso   1.000  O
