data_image0
_cell_length_a       16.4725
_cell_length_b       18.9713
_cell_length_c       19.232
_cell_angle_alpha    108.409
_cell_angle_beta     108.935
_cell_angle_gamma    106.424

_symmetry_space_group_name_H-M    "P 1"
_symmetry_int_tables_number       1

loop_
  _symmetry_equiv_pos_as_xyz
  'x, y, z'

loop_
  _atom_site_label
  _atom_site_occupancy
  _atom_site_fract_x
  _atom_site_fract_y
  _atom_site_fract_z
  _atom_site_thermal_displace_type
  _atom_site_B_iso_or_equiv
  _atom_site_type_symbol
  Cd1      1.0000 0.91525  0.31524  0.66549  Biso   1.000  Cd
  Cd2      1.0000 0.53216  0.29575  0.64122  Biso   1.000  Cd
  Mo1      1.0000 0.82853  0.08975  0.53430  Biso   1.000  Mo
  Mo2      1.0000 0.04351  0.08753  0.59139  Biso   1.000  Mo
  Mo3      1.0000 0.88496  0.91422  0.56223  Biso   1.000  Mo
  Mo4      1.0000 0.93028  0.12038  0.42120  Biso   1.000  Mo
  Mo5      1.0000 0.78039  0.35690  0.79419  Biso   1.000  Mo
  Mo6      1.0000 0.03932  0.50760  0.86553  Biso   1.000  Mo
  Mo7      1.0000 0.08490  0.46479  0.03445  Biso   1.000  Mo
  Mo8      1.0000 0.80099  0.34323  0.96011  Biso   1.000  Mo
  C1       1.0000 0.65960  0.02590  0.99190  Biso   1.000  C
  C2       1.0000 0.78640  0.15380  0.10310  Biso   1.000  C
  C3       1.0000 0.69760  0.11210  0.03420  Biso   1.000  C
  C4       1.0000 0.82460  0.24690  0.15340  Biso   1.000  C
  H1       1.0000 0.89080  0.27440  0.16660  Biso   1.000  H
  H2       1.0000 0.78840  0.26880  0.12280  Biso   1.000  H
  C5       1.0000 0.84000  0.33500  0.28150  Biso   1.000  C
  C6       1.0000 0.85500  0.40350  0.26830  Biso   1.000  C
  H3       1.0000 0.85170  0.40070  0.21820  Biso   1.000  H
  C7       1.0000 0.87490  0.47650  0.33020  Biso   1.000  C
  H4       1.0000 0.88350  0.52230  0.32030  Biso   1.000  H
  C8       1.0000 0.88280  0.48500  0.40590  Biso   1.000  C
  H5       1.0000 0.89950  0.53580  0.44750  Biso   1.000  H
  C9       1.0000 0.86490  0.41540  0.41770  Biso   1.000  C
  C10      1.0000 0.84700  0.34230  0.35840  Biso   1.000  C
  H6       1.0000 0.83950  0.29690  0.36900  Biso   1.000  H
  C11      1.0000 0.85180  0.46750  0.54970  Biso   1.000  C
  H7       1.0000 0.83710  0.51030  0.54530  Biso   1.000  H
  C12      1.0000 0.88730  0.36650  0.52460  Biso   1.000  C
  H8       1.0000 0.90200  0.32450  0.49990  Biso   1.000  H
  C13      1.0000 0.64230  0.15870  0.00700  Biso   1.000  C
  H9       1.0000 0.68520  0.21010  0.01360  Biso   1.000  H
  H10      1.0000 0.59590  0.12620  0.94950  Biso   1.000  H
  C14      1.0000 0.60200  0.25280  0.09670  Biso   1.000  C
  C15      1.0000 0.62860  0.31710  0.07440  Biso   1.000  C
  C16      1.0000 0.61890  0.38550  0.11120  Biso   1.000  C
  C17      1.0000 0.61360  0.40300  0.18250  Biso   1.000  C
  H11      1.0000 0.61250  0.45260  0.20990  Biso   1.000  H
  C18      1.0000 0.60980  0.34750  0.21530  Biso   1.000  C
  C19      1.0000 0.59910  0.27230  0.17030  Biso   1.000  C
  H12      1.0000 0.58960  0.23290  0.18940  Biso   1.000  H
  N1       1.0000 0.87010  0.41810  0.49450  Biso   1.000  N
  N2       1.0000 0.85710  0.44810  0.60920  Biso   1.000  N
  N3       1.0000 0.88080  0.38230  0.59210  Biso   1.000  N
  N4       1.0000 0.61770  0.36880  0.29470  Biso   1.000  N
  C20      1.0000 0.61400  0.43930  0.34600  Biso   1.000  C
  H13      1.0000 0.60820  0.48190  0.33380  Biso   1.000  H
  N5       1.0000 0.62060  0.43330  0.41930  Biso   1.000  N
  N6       1.0000 0.62830  0.35920  0.41320  Biso   1.000  N
  C21      1.0000 0.62660  0.31930  0.33620  Biso   1.000  C
  H14      1.0000 0.63050  0.26950  0.31650  Biso   1.000  H
  O1       1.0000 0.81460  0.25860  0.22690  Biso   1.000  O
  O2       1.0000 0.59460  0.17470  0.05790  Biso   1.000  O
  O3       1.0000 0.82400  0.18480  0.55560  Biso   1.000  O
  O4       1.0000 0.98040  0.14900  0.55850  Biso   1.000  O
  O5       1.0000 0.81770  0.05700  0.42920  Biso   1.000  O
  O6       1.0000 0.91960  0.82840  0.53800  Biso   1.000  O
  O7       1.0000 0.02070  0.97350  0.55980  Biso   1.000  O
  O8       1.0000 0.14400  0.12220  0.57710  Biso   1.000  O
  O9       1.0000 0.89590  0.01930  0.56160  Biso   1.000  O
  O10      1.0000 0.80320  0.31550  0.71260  Biso   1.000  O
  O11      1.0000 0.03020  0.42920  0.78230  Biso   1.000  O
  O12      1.0000 0.04740  0.56410  0.98780  Biso   1.000  O
  O13      1.0000 0.91110  0.45720  0.85450  Biso   1.000  O
  O14      1.0000 0.06670  0.42520  0.93210  Biso   1.000  O
  O15      1.0000 0.79690  0.44090  0.91100  Biso   1.000  O
  O16      1.0000 0.81630  0.30630  0.85790  Biso   1.000  O
  O17      1.0000 0.17090  0.56960  0.93680  Biso   1.000  O
  O18      1.0000 0.65870  0.31130  0.75420  Biso   1.000  O
  C22      1.0000 0.83730  0.11190  0.13000  Biso   1.000  C
  C23      1.0000 0.80330  0.02780  0.08400  Biso   1.000  C
  C24      1.0000 0.71050  0.98410  0.01560  Biso   1.000  C
  O19      1.0000 0.90300  0.96000  0.04800  Biso   1.000  O
  C25      1.0000 0.85890  0.98150  0.11070  Biso   1.000  C
  O20      1.0000 0.00140  0.19770  0.19140  Biso   1.000  O
  C26      1.0000 0.92920  0.15860  0.20800  Biso   1.000  C
  H15      1.0000 0.92350  0.19910  0.24960  Biso   1.000  H
  H16      1.0000 0.94440  0.12110  0.22870  Biso   1.000  H
  C27      1.0000 0.94490  0.91360  0.05970  Biso   1.000  C
  C28      1.0000 0.08360  0.25940  0.25850  Biso   1.000  C
  C29      1.0000 0.96830  0.88560  0.99930  Biso   1.000  C
  H17      1.0000 0.95200  0.89920  0.95580  Biso   1.000  H
  C30      1.0000 0.01670  0.83660  0.00130  Biso   1.000  C
  H18      1.0000 0.03140  0.81670  0.95850  Biso   1.000  H
  C31      1.0000 0.97060  0.89450  0.12580  Biso   1.000  C
  H19      1.0000 0.95420  0.91290  0.16780  Biso   1.000  H
  C32      1.0000 0.20860  0.39220  0.31170  Biso   1.000  C
  C33      1.0000 0.12660  0.32620  0.24620  Biso   1.000  C
  H20      1.0000 0.10090  0.32640  0.19550  Biso   1.000  H
  C34      1.0000 0.04320  0.81700  0.06590  Biso   1.000  C
  H21      1.0000 0.07520  0.78380  0.06720  Biso   1.000  H
  C35      1.0000 0.20410  0.32470  0.39730  Biso   1.000  C
  H22      1.0000 0.23080  0.32320  0.44710  Biso   1.000  H
  C36      1.0000 0.24830  0.39240  0.38790  Biso   1.000  C
  H23      1.0000 0.30330  0.43700  0.43140  Biso   1.000  H
  C37      1.0000 0.12120  0.25980  0.33380  Biso   1.000  C
  H24      1.0000 0.09050  0.21590  0.34180  Biso   1.000  H
  N7       1.0000 0.24700  0.46230  0.30130  Biso   1.000  N
  C38      1.0000 0.02130  0.84740  0.12680  Biso   1.000  C
  N8       1.0000 0.05090  0.83220  0.19860  Biso   1.000  N
  C39      1.0000 0.04200  0.76100  0.20100  Biso   1.000  C
  H25      1.0000 0.01650  0.71070  0.15520  Biso   1.000  H
  C40      1.0000 0.09080  0.88750  0.27610  Biso   1.000  C
  H26      1.0000 0.10530  0.94310  0.29340  Biso   1.000  H
  O21      1.0000 0.55420  0.97740  0.84810  Biso   1.000  O
  C41      1.0000 0.55360  0.97770  0.92250  Biso   1.000  C
  N9       1.0000 0.10710  0.85350  0.32510  Biso   1.000  N
  N10      1.0000 0.07380  0.77210  0.27600  Biso   1.000  N
  C42      1.0000 0.39900  0.86370  0.62950  Biso   1.000  C
  C43      1.0000 0.38930  0.90480  0.77770  Biso   1.000  C
  H27      1.0000 0.38550  0.91680  0.82700  Biso   1.000  H
  C44      1.0000 0.47420  0.92600  0.77690  Biso   1.000  C
  C45      1.0000 0.48230  0.90390  0.70350  Biso   1.000  C
  H28      1.0000 0.54140  0.91580  0.70410  Biso   1.000  H
  N11      1.0000 0.40580  0.84380  0.55470  Biso   1.000  N
  C46      1.0000 0.30540  0.86350  0.70090  Biso   1.000  C
  H29      1.0000 0.24620  0.84980  0.70010  Biso   1.000  H
  C47      1.0000 0.31150  0.84360  0.62780  Biso   1.000  C
  H30      1.0000 0.25670  0.81680  0.57790  Biso   1.000  H
  C48      1.0000 0.41730  0.88960  0.51620  Biso   1.000  C
  H31      1.0000 0.41980  0.94220  0.53450  Biso   1.000  H
  C49      1.0000 0.40630  0.77450  0.50710  Biso   1.000  C
  H32      1.0000 0.39650  0.72820  0.51640  Biso   1.000  H
  N12      1.0000 0.25410  0.55590  0.25730  Biso   1.000  N
  C50      1.0000 0.19770  0.48700  0.25140  Biso   1.000  C
  H33      1.0000 0.13260  0.45930  0.21730  Biso   1.000  H
  N13      1.0000 0.34440  0.57860  0.31640  Biso   1.000  N
  N14      1.0000 0.42250  0.78020  0.44520  Biso   1.000  N
  C51      1.0000 0.33760  0.52030  0.33870  Biso   1.000  C
  H34      1.0000 0.38890  0.51850  0.37580  Biso   1.000  H
  N15      1.0000 0.42480  0.85330  0.44930  Biso   1.000  N
  O22      1.0000 0.62030  0.85870  0.87630  Biso   1.000  O
  C52      1.0000 0.67460  0.89030  0.96460  Biso   1.000  C
  N16      1.0000 0.62240  0.76160  0.61700  Biso   1.000  N
  C53      1.0000 0.57280  0.67800  0.58310  Biso   1.000  C
  C54      1.0000 0.67360  0.86760  0.83390  Biso   1.000  C
  C55      1.0000 0.76500  0.92840  0.86720  Biso   1.000  C
  C56      1.0000 0.80990  0.93300  0.81780  Biso   1.000  C
  C57      1.0000 0.76350  0.87680  0.73500  Biso   1.000  C
  C58      1.0000 0.67210  0.81600  0.70170  Biso   1.000  C
  C59      1.0000 0.62720  0.81140  0.75110  Biso   1.000  C
  N17      1.0000 0.56170  0.70550  0.47900  Biso   1.000  N
  N18      1.0000 0.53320  0.64370  0.50540  Biso   1.000  N
  C60      1.0000 0.61180  0.77860  0.55160  Biso   1.000  C
  O23      1.0000 0.56900  0.95200  0.84800  Biso   1.000  O
  C61      1.0000 0.58800  0.29600  0.05000  Biso   1.000  C
  O24      1.0000 0.89300  0.96400  0.05800  Biso   1.000  O
  O25      1.0000 0.95150  0.83830  0.55260  Biso   1.000  O
  O26      1.0000 0.66590  0.85490  0.01660  Biso   1.000  O
  C62      1.0000 0.68800  0.78480  0.00470  Biso   1.000  C
  C63      1.0000 0.69900  0.74340  0.93730  Biso   1.000  C
  C64      1.0000 0.72700  0.68050  0.93430  Biso   1.000  C
  C65      1.0000 0.74400  0.65900  0.99900  Biso   1.000  C
  C66      1.0000 0.73300  0.70030  0.06590  Biso   1.000  C
  C67      1.0000 0.70400  0.76320  0.06890  Biso   1.000  C
  N19      1.0000 0.74900  0.68320  0.13530  Biso   1.000  N
  N20      1.0000 0.74000  0.67140  0.24550  Biso   1.000  N
  N21      1.0000 0.79270  0.63100  0.22330  Biso   1.000  N
  C68      1.0000 0.79810  0.63830  0.15520  Biso   1.000  C
  C69      1.0000 0.70300  0.69200  0.18100  Biso   1.000  C
  Cd3      1.0000 0.08475  0.68476  0.33451  Biso   1.000  Cd
  Cd4      1.0000 0.46784  0.70425  0.35878  Biso   1.000  Cd
  Mo9      1.0000 0.17147  0.91025  0.46570  Biso   1.000  Mo
  Mo10     1.0000 0.95649  0.91247  0.40861  Biso   1.000  Mo
  Mo11     1.0000 0.11504  0.08578  0.43777  Biso   1.000  Mo
  Mo12     1.0000 0.06972  0.87962  0.57880  Biso   1.000  Mo
  Mo13     1.0000 0.21961  0.64310  0.20581  Biso   1.000  Mo
  Mo14     1.0000 0.96068  0.49240  0.13447  Biso   1.000  Mo
  Mo15     1.0000 0.91510  0.53521  0.96555  Biso   1.000  Mo
  Mo16     1.0000 0.19901  0.65677  0.03989  Biso   1.000  Mo
  C70      1.0000 0.34040  0.97410  0.00810  Biso   1.000  C
  C71      1.0000 0.21360  0.84620  0.89690  Biso   1.000  C
  C72      1.0000 0.30240  0.88790  0.96580  Biso   1.000  C
  C73      1.0000 0.17540  0.75310  0.84660  Biso   1.000  C
  H35      1.0000 0.10920  0.72560  0.83340  Biso   1.000  H
  H36      1.0000 0.21160  0.73120  0.87720  Biso   1.000  H
  C74      1.0000 0.16000  0.66500  0.71850  Biso   1.000  C
  C75      1.0000 0.14500  0.59650  0.73170  Biso   1.000  C
  H37      1.0000 0.14830  0.59930  0.78180  Biso   1.000  H
  C76      1.0000 0.12510  0.52350  0.66980  Biso   1.000  C
  H38      1.0000 0.11650  0.47770  0.67970  Biso   1.000  H
  C77      1.0000 0.11720  0.51500  0.59410  Biso   1.000  C
  H39      1.0000 0.10050  0.46420  0.55250  Biso   1.000  H
  C78      1.0000 0.13510  0.58460  0.58230  Biso   1.000  C
  C79      1.0000 0.15300  0.65770  0.64160  Biso   1.000  C
  H40      1.0000 0.16050  0.70310  0.63100  Biso   1.000  H
  C80      1.0000 0.14820  0.53250  0.45030  Biso   1.000  C
  H41      1.0000 0.16290  0.48970  0.45470  Biso   1.000  H
  C81      1.0000 0.11270  0.63350  0.47540  Biso   1.000  C
  H42      1.0000 0.09800  0.67550  0.50010  Biso   1.000  H
  C82      1.0000 0.35770  0.84130  0.99300  Biso   1.000  C
  H43      1.0000 0.31480  0.78990  0.98640  Biso   1.000  H
  H44      1.0000 0.40410  0.87380  0.05050  Biso   1.000  H
  C83      1.0000 0.39800  0.74720  0.90330  Biso   1.000  C
  C84      1.0000 0.37140  0.68290  0.92560  Biso   1.000  C
  C85      1.0000 0.38110  0.61450  0.88880  Biso   1.000  C
  C86      1.0000 0.38640  0.59700  0.81750  Biso   1.000  C
  H45      1.0000 0.38750  0.54740  0.79010  Biso   1.000  H
  C87      1.0000 0.39020  0.65250  0.78470  Biso   1.000  C
  C88      1.0000 0.40090  0.72770  0.82970  Biso   1.000  C
  H46      1.0000 0.41040  0.76710  0.81060  Biso   1.000  H
  N22      1.0000 0.12990  0.58190  0.50550  Biso   1.000  N
  N23      1.0000 0.14290  0.55190  0.39080  Biso   1.000  N
  N24      1.0000 0.11920  0.61770  0.40790  Biso   1.000  N
  N25      1.0000 0.38230  0.63120  0.70530  Biso   1.000  N
  C89      1.0000 0.38600  0.56070  0.65400  Biso   1.000  C
  H47      1.0000 0.39180  0.51810  0.66620  Biso   1.000  H
  N26      1.0000 0.37940  0.56670  0.58070  Biso   1.000  N
  N27      1.0000 0.37170  0.64080  0.58680  Biso   1.000  N
  C90      1.0000 0.37340  0.68070  0.66380  Biso   1.000  C
  H48      1.0000 0.36950  0.73050  0.68350  Biso   1.000  H
  O27      1.0000 0.18540  0.74140  0.77310  Biso   1.000  O
  O28      1.0000 0.40540  0.82530  0.94210  Biso   1.000  O
  O29      1.0000 0.17600  0.81520  0.44440  Biso   1.000  O
  O30      1.0000 0.01960  0.85100  0.44150  Biso   1.000  O
  O31      1.0000 0.18230  0.94300  0.57080  Biso   1.000  O
  O32      1.0000 0.08040  0.17160  0.46200  Biso   1.000  O
  O33      1.0000 0.97930  0.02650  0.44020  Biso   1.000  O
  O34      1.0000 0.85600  0.87780  0.42290  Biso   1.000  O
  O35      1.0000 0.10410  0.98070  0.43840  Biso   1.000  O
  O36      1.0000 0.19680  0.68450  0.28740  Biso   1.000  O
  O37      1.0000 0.96980  0.57080  0.21770  Biso   1.000  O
  O38      1.0000 0.95260  0.43590  0.01220  Biso   1.000  O
  O39      1.0000 0.08890  0.54280  0.14550  Biso   1.000  O
  O40      1.0000 0.93330  0.57480  0.06790  Biso   1.000  O
  O41      1.0000 0.20310  0.55910  0.08900  Biso   1.000  O
  O42      1.0000 0.18370  0.69370  0.14210  Biso   1.000  O
  O43      1.0000 0.82910  0.43040  0.06320  Biso   1.000  O
  O44      1.0000 0.34130  0.68870  0.24580  Biso   1.000  O
  C91      1.0000 0.16270  0.88810  0.87000  Biso   1.000  C
  C92      1.0000 0.19670  0.97220  0.91600  Biso   1.000  C
  C93      1.0000 0.28950  0.01590  0.98440  Biso   1.000  C
  O45      1.0000 0.09700  0.04000  0.95200  Biso   1.000  O
  C94      1.0000 0.14110  0.01850  0.88930  Biso   1.000  C
  O46      1.0000 0.99860  0.80230  0.80860  Biso   1.000  O
  C95      1.0000 0.07080  0.84140  0.79200  Biso   1.000  C
  H49      1.0000 0.07650  0.80090  0.75040  Biso   1.000  H
  H50      1.0000 0.05560  0.87890  0.77130  Biso   1.000  H
  C96      1.0000 0.05510  0.08640  0.94030  Biso   1.000  C
  C97      1.0000 0.91640  0.74060  0.74150  Biso   1.000  C
  C98      1.0000 0.03170  0.11440  0.00070  Biso   1.000  C
  H51      1.0000 0.04800  0.10080  0.04420  Biso   1.000  H
  C99      1.0000 0.98330  0.16340  0.99870  Biso   1.000  C
  H52      1.0000 0.96860  0.18330  0.04150  Biso   1.000  H
  C100     1.0000 0.02940  0.10550  0.87420  Biso   1.000  C
  H53      1.0000 0.04580  0.08710  0.83220  Biso   1.000  H
  C101     1.0000 0.79140  0.60780  0.68830  Biso   1.000  C
  C102     1.0000 0.87340  0.67380  0.75380  Biso   1.000  C
  H54      1.0000 0.89910  0.67360  0.80450  Biso   1.000  H
  C103     1.0000 0.95680  0.18300  0.93410  Biso   1.000  C
  H55      1.0000 0.92480  0.21620  0.93280  Biso   1.000  H
  C104     1.0000 0.79590  0.67530  0.60270  Biso   1.000  C
  H56      1.0000 0.76920  0.67680  0.55290  Biso   1.000  H
  C105     1.0000 0.75170  0.60760  0.61210  Biso   1.000  C
  H57      1.0000 0.69670  0.56300  0.56860  Biso   1.000  H
  C106     1.0000 0.87880  0.74020  0.66620  Biso   1.000  C
  H58      1.0000 0.90950  0.78410  0.65820  Biso   1.000  H
  N28      1.0000 0.75300  0.53770  0.69870  Biso   1.000  N
  C107     1.0000 0.97870  0.15260  0.87320  Biso   1.000  C
  N29      1.0000 0.94910  0.16780  0.80140  Biso   1.000  N
  C108     1.0000 0.95800  0.23900  0.79900  Biso   1.000  C
  H59      1.0000 0.98350  0.28930  0.84480  Biso   1.000  H
  C109     1.0000 0.90920  0.11250  0.72390  Biso   1.000  C
  H60      1.0000 0.89470  0.05690  0.70660  Biso   1.000  H
  O47      1.0000 0.44580  0.02260  0.15190  Biso   1.000  O
  C110     1.0000 0.44640  0.02230  0.07750  Biso   1.000  C
  N30      1.0000 0.89290  0.14650  0.67490  Biso   1.000  N
  N31      1.0000 0.92620  0.22790  0.72400  Biso   1.000  N
  C111     1.0000 0.60100  0.13630  0.37050  Biso   1.000  C
  C112     1.0000 0.61070  0.09520  0.22230  Biso   1.000  C
  H61      1.0000 0.61450  0.08320  0.17300  Biso   1.000  H
  C113     1.0000 0.52580  0.07400  0.22310  Biso   1.000  C
  C114     1.0000 0.51770  0.09610  0.29650  Biso   1.000  C
  H62      1.0000 0.45860  0.08420  0.29590  Biso   1.000  H
  N32      1.0000 0.59420  0.15620  0.44530  Biso   1.000  N
  C115     1.0000 0.69460  0.13650  0.29910  Biso   1.000  C
  H63      1.0000 0.75380  0.15020  0.29990  Biso   1.000  H
  C116     1.0000 0.68850  0.15640  0.37220  Biso   1.000  C
  H64      1.0000 0.74330  0.18320  0.42210  Biso   1.000  H
  C117     1.0000 0.58270  0.11040  0.48380  Biso   1.000  C
  H65      1.0000 0.58020  0.05780  0.46550  Biso   1.000  H
  C118     1.0000 0.59370  0.22550  0.49290  Biso   1.000  C
  H66      1.0000 0.60350  0.27180  0.48360  Biso   1.000  H
  N33      1.0000 0.74590  0.44410  0.74270  Biso   1.000  N
  C119     1.0000 0.80230  0.51300  0.74860  Biso   1.000  C
  H67      1.0000 0.86740  0.54070  0.78270  Biso   1.000  H
  N34      1.0000 0.65560  0.42140  0.68360  Biso   1.000  N
  N35      1.0000 0.57750  0.21980  0.55480  Biso   1.000  N
  C120     1.0000 0.66240  0.47970  0.66130  Biso   1.000  C
  H68      1.0000 0.61110  0.48150  0.62420  Biso   1.000  H
  N36      1.0000 0.57520  0.14670  0.55070  Biso   1.000  N
  O48      1.0000 0.37970  0.14130  0.12370  Biso   1.000  O
  C121     1.0000 0.32540  0.10970  0.03540  Biso   1.000  C
  N37      1.0000 0.37760  0.23840  0.38300  Biso   1.000  N
  C122     1.0000 0.42720  0.32200  0.41690  Biso   1.000  C
  C123     1.0000 0.32640  0.13240  0.16610  Biso   1.000  C
  C124     1.0000 0.23500  0.07160  0.13280  Biso   1.000  C
  C125     1.0000 0.19010  0.06700  0.18220  Biso   1.000  C
  C126     1.0000 0.23650  0.12320  0.26500  Biso   1.000  C
  C127     1.0000 0.32790  0.18400  0.29830  Biso   1.000  C
  C128     1.0000 0.37280  0.18860  0.24890  Biso   1.000  C
  N38      1.0000 0.43830  0.29450  0.52100  Biso   1.000  N
  N39      1.0000 0.46680  0.35630  0.49460  Biso   1.000  N
  C129     1.0000 0.38820  0.22140  0.44840  Biso   1.000  C
  O49      1.0000 0.43100  0.04800  0.15200  Biso   1.000  O
  C130     1.0000 0.41200  0.70400  0.95000  Biso   1.000  C
  O50      1.0000 0.10700  0.03600  0.94200  Biso   1.000  O
  O51      1.0000 0.04850  0.16170  0.44740  Biso   1.000  O
  O52      1.0000 0.33410  0.14510  0.98340  Biso   1.000  O
  C131     1.0000 0.31200  0.21520  0.99530  Biso   1.000  C
  C132     1.0000 0.30100  0.25660  0.06270  Biso   1.000  C
  C133     1.0000 0.27300  0.31950  0.06570  Biso   1.000  C
  C134     1.0000 0.25600  0.34100  0.00100  Biso   1.000  C
  C135     1.0000 0.26700  0.29970  0.93410  Biso   1.000  C
  C136     1.0000 0.29600  0.23680  0.93110  Biso   1.000  C
  N40      1.0000 0.25100  0.31680  0.86470  Biso   1.000  N
  N41      1.0000 0.26000  0.32860  0.75450  Biso   1.000  N
  N42      1.0000 0.20730  0.36900  0.77670  Biso   1.000  N
  C137     1.0000 0.20190  0.36170  0.84480  Biso   1.000  C
  C138     1.0000 0.29700  0.30800  0.81900  Biso   1.000  C
