data_image0
_cell_length_a       12.568
_cell_length_b       13.59
_cell_length_c       25.68
_cell_angle_alpha    80.498
_cell_angle_beta     76.872
_cell_angle_gamma    76.607

_symmetry_space_group_name_H-M    "P 1"
_symmetry_int_tables_number       1

loop_
  _symmetry_equiv_pos_as_xyz
  'x, y, z'

loop_
  _atom_site_label
  _atom_site_occupancy
  _atom_site_fract_x
  _atom_site_fract_y
  _atom_site_fract_z
  _atom_site_thermal_displace_type
  _atom_site_B_iso_or_equiv
  _atom_site_type_symbol
  Zn1      1.0000 0.60778  0.39757  0.34702  Biso   1.000  Zn
  Zn2      1.0000 0.68580  0.36571  0.20043  Biso   1.000  Zn
  Mo1      1.0000 0.43830  0.23842  0.45327  Biso   1.000  Mo
  Mo2      1.0000 0.45190  0.20130  0.58894  Biso   1.000  Mo
  Mo3      1.0000 0.34895  0.00735  0.51630  Biso   1.000  Mo
  Mo4      1.0000 0.52476  0.94066  0.62524  Biso   1.000  Mo
  C1       1.0000 0.07190  0.96860  0.45320  Biso   1.000  C
  C2       1.0000 0.04870  0.07010  0.46150  Biso   1.000  C
  C3       1.0000 0.97430  0.10230  0.50790  Biso   1.000  C
  C4       1.0000 0.14990  0.93490  0.40150  Biso   1.000  C
  H1       1.0000 0.15700  0.99480  0.37560  Biso   1.000  H
  H2       1.0000 0.22320  0.90480  0.40940  Biso   1.000  H
  C5       1.0000 0.10840  0.14550  0.42320  Biso   1.000  C
  H3       1.0000 0.11380  0.19960  0.44220  Biso   1.000  H
  H4       1.0000 0.18330  0.11190  0.40790  Biso   1.000  H
  C6       1.0000 0.93950  0.21470  0.51290  Biso   1.000  C
  H5       1.0000 0.92960  0.25260  0.47830  Biso   1.000  H
  H6       1.0000 0.86930  0.22850  0.53830  Biso   1.000  H
  C7       1.0000 0.02590  0.89480  0.35250  Biso   1.000  C
  C8       1.0000 0.99370  0.81490  0.33470  Biso   1.000  C
  H7       1.0000 0.03060  0.74750  0.34020  Biso   1.000  H
  C9       1.0000 0.90020  0.84390  0.30770  Biso   1.000  C
  H8       1.0000 0.87660  0.79450  0.29450  Biso   1.000  H
  C10      1.0000 0.84720  0.94130  0.30130  Biso   1.000  C
  H9       1.0000 0.78430  0.95850  0.28580  Biso   1.000  H
  C11      1.0000 0.88380  0.01330  0.31700  Biso   1.000  C
  C12      1.0000 0.97110  0.99470  0.34370  Biso   1.000  C
  H10      1.0000 0.99220  0.04720  0.35540  Biso   1.000  H
  C13      1.0000 0.81590  0.16930  0.25770  Biso   1.000  C
  H11      1.0000 0.84430  0.14120  0.22550  Biso   1.000  H
  C14      1.0000 0.77130  0.18800  0.34190  Biso   1.000  C
  H12      1.0000 0.76240  0.17480  0.37920  Biso   1.000  H
  C15      1.0000 0.09720  0.24020  0.33620  Biso   1.000  C
  C16      1.0000 0.03970  0.27200  0.29470  Biso   1.000  C
  H13      1.0000 0.96860  0.25900  0.29880  Biso   1.000  H
  C17      1.0000 0.08720  0.32380  0.24620  Biso   1.000  C
  H14      1.0000 0.04740  0.34480  0.21860  Biso   1.000  H
  C18      1.0000 0.19380  0.34390  0.23930  Biso   1.000  C
  H15      1.0000 0.22740  0.37640  0.20710  Biso   1.000  H
  C19      1.0000 0.24750  0.31320  0.28280  Biso   1.000  C
  C20      1.0000 0.20240  0.26160  0.33050  Biso   1.000  C
  H16      1.0000 0.24160  0.24140  0.35840  Biso   1.000  H
  C21      1.0000 0.43870  0.33060  0.23500  Biso   1.000  C
  H17      1.0000 0.43460  0.31490  0.20170  Biso   1.000  H
  C22      1.0000 0.39670  0.36120  0.31710  Biso   1.000  C
  H18      1.0000 0.35640  0.37120  0.35160  Biso   1.000  H
  C23      1.0000 0.00390  0.33860  0.54890  Biso   1.000  C
  C24      1.0000 0.89990  0.40030  0.56250  Biso   1.000  C
  H19      1.0000 0.83660  0.38020  0.55850  Biso   1.000  H
  C25      1.0000 0.88980  0.49020  0.58160  Biso   1.000  C
  H20      1.0000 0.81900  0.52960  0.59140  Biso   1.000  H
  C26      1.0000 0.98090  0.52480  0.58710  Biso   1.000  C
  H21      1.0000 0.97320  0.58790  0.59860  Biso   1.000  H
  C27      1.0000 0.08330  0.46220  0.57480  Biso   1.000  C
  C28      1.0000 0.09560  0.37210  0.55560  Biso   1.000  C
  H22      1.0000 0.16660  0.33220  0.54690  Biso   1.000  H
  C29      1.0000 0.27570  0.49410  0.54140  Biso   1.000  C
  H23      1.0000 0.28810  0.46760  0.50890  Biso   1.000  H
  C30      1.0000 0.19960  0.54260  0.61810  Biso   1.000  C
  H24      1.0000 0.14820  0.55740  0.64950  Biso   1.000  H
  C31      1.0000 0.90280  0.97420  0.99480  Biso   1.000  C
  C32      1.0000 0.94540  0.93810  0.04090  Biso   1.000  C
  C33      1.0000 0.04160  0.96480  0.04680  Biso   1.000  C
  C34      1.0000 0.80040  0.94040  0.98740  Biso   1.000  C
  H25      1.0000 0.77900  0.97340  0.95380  Biso   1.000  H
  H26      1.0000 0.81570  0.86720  0.98690  Biso   1.000  H
  C35      1.0000 0.62210  0.92710  0.03780  Biso   1.000  C
  C36      1.0000 0.54050  0.94220  0.08400  Biso   1.000  C
  C37      1.0000 0.44450  0.90300  0.09190  Biso   1.000  C
  C38      1.0000 0.43020  0.84850  0.05350  Biso   1.000  C
  C39      1.0000 0.51180  0.83330  0.00730  Biso   1.000  C
  C40      1.0000 0.60780  0.87260  0.99950  Biso   1.000  C
  C41      1.0000 0.88910  0.87050  0.08620  Biso   1.000  C
  H27      1.0000 0.84110  0.83740  0.07330  Biso   1.000  H
  H28      1.0000 0.94420  0.81840  0.10160  Biso   1.000  H
  C42      1.0000 0.74950  0.89990  0.16650  Biso   1.000  C
  C43      1.0000 0.67070  0.97020  0.19590  Biso   1.000  C
  H29      1.0000 0.67210  0.03910  0.18740  Biso   1.000  H
  C44      1.0000 0.59140  0.93940  0.23700  Biso   1.000  C
  H30      1.0000 0.53760  0.98750  0.25560  Biso   1.000  H
  C45      1.0000 0.59040  0.83370  0.25170  Biso   1.000  C
  H31      1.0000 0.53800  0.81090  0.28010  Biso   1.000  H
  C46      1.0000 0.66950  0.76860  0.22220  Biso   1.000  C
  C47      1.0000 0.75330  0.79650  0.18050  Biso   1.000  C
  H32      1.0000 0.80890  0.74810  0.16300  Biso   1.000  H
  C48      1.0000 0.69070  0.59080  0.20190  Biso   1.000  C
  H33      1.0000 0.70680  0.60440  0.16460  Biso   1.000  H
  C49      1.0000 0.65030  0.60980  0.28560  Biso   1.000  C
  H34      1.0000 0.62980  0.64020  0.31720  Biso   1.000  H
  C50      1.0000 0.09560  0.91950  0.09830  Biso   1.000  C
  H35      1.0000 0.05700  0.86790  0.12000  Biso   1.000  H
  H36      1.0000 0.17340  0.88810  0.08720  Biso   1.000  H
  C51      1.0000 0.14750  0.97080  0.16750  Biso   1.000  C
  C52      1.0000 0.16260  0.05420  0.18780  Biso   1.000  C
  H37      1.0000 0.13380  0.11990  0.17360  Biso   1.000  H
  C53      1.0000 0.22090  0.03930  0.22940  Biso   1.000  C
  H38      1.0000 0.23100  0.09510  0.24300  Biso   1.000  H
  C54      1.0000 0.26400  0.94110  0.25070  Biso   1.000  C
  H39      1.0000 0.30300  0.93110  0.27850  Biso   1.000  H
  C55      1.0000 0.24890  0.85770  0.23030  Biso   1.000  C
  C56      1.0000 0.19060  0.87260  0.18880  Biso   1.000  C
  H40      1.0000 0.18050  0.81690  0.17520  Biso   1.000  H
  N1       1.0000 0.82820  0.11960  0.30560  Biso   1.000  N
  N2       1.0000 0.76010  0.26100  0.26120  Biso   1.000  N
  N3       1.0000 0.73280  0.27320  0.31540  Biso   1.000  N
  N4       1.0000 0.35650  0.33500  0.27750  Biso   1.000  N
  N5       1.0000 0.52870  0.35170  0.24660  Biso   1.000  N
  N6       1.0000 0.50020  0.37040  0.29940  Biso   1.000  N
  N7       1.0000 0.18110  0.49720  0.57800  Biso   1.000  N
  N8       1.0000 0.34910  0.53210  0.55610  Biso   1.000  N
  N9       1.0000 0.29880  0.56190  0.60570  Biso   1.000  N
  N10      1.0000 0.67250  0.65910  0.23620  Biso   1.000  N
  N11      1.0000 0.68240  0.50090  0.22920  Biso   1.000  N
  N12      1.0000 0.66190  0.51130  0.28290  Biso   1.000  N
  O1       1.0000 0.11540  0.86390  0.37730  Biso   1.000  O
  O2       1.0000 0.04520  0.18750  0.38060  Biso   1.000  O
  O3       1.0000 0.02600  0.24530  0.53150  Biso   1.000  O
  O4       1.0000 0.71510  0.96870  0.03110  Biso   1.000  O
  O5       1.0000 0.82320  0.93730  0.12650  Biso   1.000  O
  O6       1.0000 0.08670  0.99580  0.12720  Biso   1.000  O
  O7       1.0000 0.54470  0.28620  0.40840  Biso   1.000  O
  O8       1.0000 0.38320  0.17770  0.40601  Biso   1.000  O
  O9       1.0000 0.48200  0.24450  0.51850  Biso   1.000  O
  O10      1.0000 0.34260  0.14010  0.51600  Biso   1.000  O
  O11      1.0000 0.37020  0.97840  0.44990  Biso   1.000  O
  O12      1.0000 0.45780  0.92520  0.55019  Biso   1.000  O
  O13      1.0000 0.42620  0.07340  0.61790  Biso   1.000  O
  N13      1.0000 0.29720  0.76200  0.24880  Biso   1.000  N
  C57      1.0000 0.31360  0.72930  0.30230  Biso   1.000  C
  H41      1.0000 0.29380  0.76950  0.33040  Biso   1.000  H
  N14      1.0000 0.36550  0.62450  0.30560  Biso   1.000  N
  N15      1.0000 0.38120  0.59240  0.25400  Biso   1.000  N
  C58      1.0000 0.33900  0.67730  0.21890  Biso   1.000  C
  N16      1.0000 0.41500  0.79700  0.89140  Biso   1.000  N
  N17      1.0000 0.52800  0.74790  0.87580  Biso   1.000  N
  C59      1.0000 0.58100  0.73600  0.92050  Biso   1.000  C
  C60      1.0000 0.39000  0.83900  0.93800  Biso   1.000  C
  N18      1.0000 0.49000  0.81400  0.95490  Biso   1.000  N
  O14      1.0000 0.53210  0.22580  0.62210  Biso   1.000  O
  O15      1.0000 0.68500  0.24500  0.15690  Biso   1.000  O
  N19      1.0000 0.41300  0.60500  0.25030  Biso   1.000  N
  N20      1.0000 0.32100  0.57400  0.26900  Biso   1.000  N
  C61      1.0000 0.55800  0.89800  0.09060  Biso   1.000  C
  C62      1.0000 0.47300  0.85400  0.09470  Biso   1.000  C
  N21      1.0000 0.50100  0.77800  0.96380  Biso   1.000  N
  C63      1.0000 0.39800  0.81600  0.94580  Biso   1.000  C
  N22      1.0000 0.52800  0.71900  0.98300  Biso   1.000  N
  N23      1.0000 0.41800  0.74400  0.90700  Biso   1.000  N
  O16      1.0000 0.60200  0.46000  0.13790  Biso   1.000  O
  O17      1.0000 0.61600  0.38700  0.14150  Biso   1.000  O
  O18      1.0000 0.55540  0.46520  0.09880  Biso   1.000  O
  O19      1.0000 0.75680  0.28150  0.11010  Biso   1.000  O
  O20      1.0000 0.73500  0.23910  0.15930  Biso   1.000  O
  O21      1.0000 0.50830  0.22950  0.51600  Biso   1.000  O
  O22      1.0000 0.57260  0.21320  0.61600  Biso   1.000  O
  O23      1.0000 0.59170  0.15700  0.52780  Biso   1.000  O
  O24      1.0000 0.64550  0.45670  0.13060  Biso   1.000  O
  Zn3      1.0000 0.39222  0.60243  0.65298  Biso   1.000  Zn
  Zn4      1.0000 0.31420  0.63429  0.79957  Biso   1.000  Zn
  Mo5      1.0000 0.56170  0.76158  0.54673  Biso   1.000  Mo
  Mo6      1.0000 0.54810  0.79870  0.41106  Biso   1.000  Mo
  Mo7      1.0000 0.65105  0.99265  0.48370  Biso   1.000  Mo
  Mo8      1.0000 0.47524  0.05934  0.37476  Biso   1.000  Mo
  C64      1.0000 0.92810  0.03140  0.54680  Biso   1.000  C
  C65      1.0000 0.95130  0.92990  0.53850  Biso   1.000  C
  C66      1.0000 0.02570  0.89770  0.49210  Biso   1.000  C
  C67      1.0000 0.85010  0.06510  0.59850  Biso   1.000  C
  H42      1.0000 0.84300  0.00520  0.62440  Biso   1.000  H
  H43      1.0000 0.77680  0.09520  0.59060  Biso   1.000  H
  C68      1.0000 0.89160  0.85450  0.57680  Biso   1.000  C
  H44      1.0000 0.88620  0.80040  0.55780  Biso   1.000  H
  H45      1.0000 0.81670  0.88810  0.59210  Biso   1.000  H
  C69      1.0000 0.06050  0.78530  0.48710  Biso   1.000  C
  H46      1.0000 0.07040  0.74740  0.52170  Biso   1.000  H
  H47      1.0000 0.13070  0.77150  0.46170  Biso   1.000  H
  C70      1.0000 0.97410  0.10520  0.64750  Biso   1.000  C
  C71      1.0000 0.00630  0.18510  0.66530  Biso   1.000  C
  H48      1.0000 0.96940  0.25250  0.65980  Biso   1.000  H
  C72      1.0000 0.09980  0.15610  0.69230  Biso   1.000  C
  H49      1.0000 0.12340  0.20550  0.70550  Biso   1.000  H
  C73      1.0000 0.15280  0.05870  0.69870  Biso   1.000  C
  H50      1.0000 0.21570  0.04150  0.71420  Biso   1.000  H
  C74      1.0000 0.11620  0.98670  0.68300  Biso   1.000  C
  C75      1.0000 0.02890  0.00530  0.65630  Biso   1.000  C
  H51      1.0000 0.00780  0.95280  0.64460  Biso   1.000  H
  C76      1.0000 0.18410  0.83070  0.74230  Biso   1.000  C
  H52      1.0000 0.15570  0.85880  0.77450  Biso   1.000  H
  C77      1.0000 0.22870  0.81200  0.65810  Biso   1.000  C
  H53      1.0000 0.23760  0.82520  0.62080  Biso   1.000  H
  C78      1.0000 0.90280  0.75980  0.66380  Biso   1.000  C
  C79      1.0000 0.96030  0.72800  0.70530  Biso   1.000  C
  H54      1.0000 0.03140  0.74100  0.70120  Biso   1.000  H
  C80      1.0000 0.91280  0.67620  0.75380  Biso   1.000  C
  H55      1.0000 0.95260  0.65520  0.78140  Biso   1.000  H
  C81      1.0000 0.80620  0.65610  0.76070  Biso   1.000  C
  H56      1.0000 0.77260  0.62360  0.79290  Biso   1.000  H
  C82      1.0000 0.75250  0.68680  0.71720  Biso   1.000  C
  C83      1.0000 0.79760  0.73840  0.66950  Biso   1.000  C
  H57      1.0000 0.75840  0.75860  0.64160  Biso   1.000  H
  C84      1.0000 0.56130  0.66940  0.76500  Biso   1.000  C
  H58      1.0000 0.56540  0.68510  0.79830  Biso   1.000  H
  C85      1.0000 0.60330  0.63880  0.68290  Biso   1.000  C
  H59      1.0000 0.64360  0.62880  0.64840  Biso   1.000  H
  C86      1.0000 0.99610  0.66140  0.45110  Biso   1.000  C
  C87      1.0000 0.10010  0.59970  0.43750  Biso   1.000  C
  H60      1.0000 0.16340  0.61980  0.44150  Biso   1.000  H
  C88      1.0000 0.11020  0.50980  0.41840  Biso   1.000  C
  H61      1.0000 0.18100  0.47040  0.40860  Biso   1.000  H
  C89      1.0000 0.01910  0.47520  0.41290  Biso   1.000  C
  H62      1.0000 0.02680  0.41210  0.40140  Biso   1.000  H
  C90      1.0000 0.91670  0.53780  0.42520  Biso   1.000  C
  C91      1.0000 0.90440  0.62790  0.44440  Biso   1.000  C
  H63      1.0000 0.83340  0.66780  0.45310  Biso   1.000  H
  C92      1.0000 0.72430  0.50590  0.45860  Biso   1.000  C
  H64      1.0000 0.71190  0.53240  0.49110  Biso   1.000  H
  C93      1.0000 0.80040  0.45740  0.38190  Biso   1.000  C
  H65      1.0000 0.85180  0.44260  0.35050  Biso   1.000  H
  C94      1.0000 0.09720  0.02580  0.00520  Biso   1.000  C
  C95      1.0000 0.05460  0.06190  0.95910  Biso   1.000  C
  C96      1.0000 0.95840  0.03520  0.95320  Biso   1.000  C
  C97      1.0000 0.19960  0.05960  0.01260  Biso   1.000  C
  H66      1.0000 0.22100  0.02660  0.04620  Biso   1.000  H
  H67      1.0000 0.18430  0.13280  0.01310  Biso   1.000  H
  C98      1.0000 0.37790  0.07290  0.96220  Biso   1.000  C
  C99      1.0000 0.45950  0.05780  0.91600  Biso   1.000  C
  C100     1.0000 0.55550  0.09700  0.90810  Biso   1.000  C
  C101     1.0000 0.56980  0.15150  0.94650  Biso   1.000  C
  C102     1.0000 0.48820  0.16670  0.99270  Biso   1.000  C
  C103     1.0000 0.39220  0.12740  0.00050  Biso   1.000  C
  C104     1.0000 0.11090  0.12950  0.91380  Biso   1.000  C
  H68      1.0000 0.15890  0.16260  0.92670  Biso   1.000  H
  H69      1.0000 0.05580  0.18160  0.89840  Biso   1.000  H
  C105     1.0000 0.25050  0.10010  0.83350  Biso   1.000  C
  C106     1.0000 0.32930  0.02980  0.80410  Biso   1.000  C
  H70      1.0000 0.32790  0.96090  0.81260  Biso   1.000  H
  C107     1.0000 0.40860  0.06060  0.76300  Biso   1.000  C
  H71      1.0000 0.46240  0.01250  0.74440  Biso   1.000  H
  C108     1.0000 0.40960  0.16630  0.74830  Biso   1.000  C
  H72      1.0000 0.46200  0.18910  0.71990  Biso   1.000  H
  C109     1.0000 0.33050  0.23140  0.77780  Biso   1.000  C
  C110     1.0000 0.24670  0.20350  0.81950  Biso   1.000  C
  H73      1.0000 0.19110  0.25190  0.83700  Biso   1.000  H
  C111     1.0000 0.30930  0.40920  0.79810  Biso   1.000  C
  H74      1.0000 0.29320  0.39560  0.83540  Biso   1.000  H
  C112     1.0000 0.34970  0.39020  0.71440  Biso   1.000  C
  H75      1.0000 0.37020  0.35980  0.68280  Biso   1.000  H
  C113     1.0000 0.90440  0.08050  0.90170  Biso   1.000  C
  H76      1.0000 0.94300  0.13210  0.88000  Biso   1.000  H
  H77      1.0000 0.82660  0.11190  0.91280  Biso   1.000  H
  C114     1.0000 0.85250  0.02920  0.83250  Biso   1.000  C
  C115     1.0000 0.83740  0.94580  0.81220  Biso   1.000  C
  H78      1.0000 0.86620  0.88010  0.82640  Biso   1.000  H
  C116     1.0000 0.77910  0.96070  0.77060  Biso   1.000  C
  H79      1.0000 0.76900  0.90490  0.75700  Biso   1.000  H
  C117     1.0000 0.73600  0.05890  0.74930  Biso   1.000  C
  H80      1.0000 0.69700  0.06890  0.72150  Biso   1.000  H
  C118     1.0000 0.75110  0.14230  0.76970  Biso   1.000  C
  C119     1.0000 0.80940  0.12740  0.81120  Biso   1.000  C
  H81      1.0000 0.81950  0.18310  0.82480  Biso   1.000  H
  N24      1.0000 0.17180  0.88040  0.69440  Biso   1.000  N
  N25      1.0000 0.23990  0.73900  0.73880  Biso   1.000  N
  N26      1.0000 0.26720  0.72680  0.68460  Biso   1.000  N
  N27      1.0000 0.64350  0.66500  0.72250  Biso   1.000  N
  N28      1.0000 0.47130  0.64830  0.75340  Biso   1.000  N
  N29      1.0000 0.49980  0.62960  0.70060  Biso   1.000  N
  N30      1.0000 0.81890  0.50280  0.42200  Biso   1.000  N
  N31      1.0000 0.65090  0.46790  0.44390  Biso   1.000  N
  N32      1.0000 0.70120  0.43810  0.39430  Biso   1.000  N
  N33      1.0000 0.32750  0.34090  0.76380  Biso   1.000  N
  N34      1.0000 0.31760  0.49910  0.77080  Biso   1.000  N
  N35      1.0000 0.33810  0.48870  0.71710  Biso   1.000  N
  O25      1.0000 0.88460  0.13610  0.62270  Biso   1.000  O
  O26      1.0000 0.95480  0.81250  0.61940  Biso   1.000  O
  O27      1.0000 0.97400  0.75470  0.46850  Biso   1.000  O
  O28      1.0000 0.28490  0.03130  0.96890  Biso   1.000  O
  O29      1.0000 0.17680  0.06270  0.87350  Biso   1.000  O
  O30      1.0000 0.91330  0.00420  0.87280  Biso   1.000  O
  O31      1.0000 0.45530  0.71380  0.59160  Biso   1.000  O
  O32      1.0000 0.61680  0.82230  0.59399  Biso   1.000  O
  O33      1.0000 0.51800  0.75550  0.48150  Biso   1.000  O
  O34      1.0000 0.65740  0.85990  0.48400  Biso   1.000  O
  O35      1.0000 0.62980  0.02160  0.55010  Biso   1.000  O
  O36      1.0000 0.54220  0.07480  0.44981  Biso   1.000  O
  O37      1.0000 0.57380  0.92660  0.38210  Biso   1.000  O
  N36      1.0000 0.70280  0.23800  0.75120  Biso   1.000  N
  C120     1.0000 0.68640  0.27070  0.69770  Biso   1.000  C
  H82      1.0000 0.70620  0.23050  0.66960  Biso   1.000  H
  N37      1.0000 0.63450  0.37550  0.69440  Biso   1.000  N
  N38      1.0000 0.61880  0.40760  0.74600  Biso   1.000  N
  C121     1.0000 0.66100  0.32270  0.78110  Biso   1.000  C
  N39      1.0000 0.58500  0.20300  0.10860  Biso   1.000  N
  N40      1.0000 0.47200  0.25210  0.12420  Biso   1.000  N
  C122     1.0000 0.41900  0.26400  0.07950  Biso   1.000  C
  C123     1.0000 0.61000  0.16100  0.06200  Biso   1.000  C
  N41      1.0000 0.51000  0.18600  0.04510  Biso   1.000  N
  O38      1.0000 0.46790  0.77420  0.37790  Biso   1.000  O
  O39      1.0000 0.31500  0.75500  0.84310  Biso   1.000  O
  N42      1.0000 0.58700  0.39500  0.74970  Biso   1.000  N
  N43      1.0000 0.67900  0.42600  0.73100  Biso   1.000  N
  C124     1.0000 0.44200  0.10200  0.90940  Biso   1.000  C
  C125     1.0000 0.52700  0.14600  0.90530  Biso   1.000  C
  N44      1.0000 0.49900  0.22200  0.03620  Biso   1.000  N
  C126     1.0000 0.60200  0.18400  0.05420  Biso   1.000  C
  N45      1.0000 0.47200  0.28100  0.01700  Biso   1.000  N
  N46      1.0000 0.58200  0.25600  0.09300  Biso   1.000  N
  O40      1.0000 0.39800  0.54000  0.86210  Biso   1.000  O
  O41      1.0000 0.38400  0.61300  0.85850  Biso   1.000  O
  O42      1.0000 0.44460  0.53480  0.90120  Biso   1.000  O
  O43      1.0000 0.24320  0.71850  0.88990  Biso   1.000  O
  O44      1.0000 0.26500  0.76090  0.84070  Biso   1.000  O
  O45      1.0000 0.49170  0.77050  0.48400  Biso   1.000  O
  O46      1.0000 0.42740  0.78680  0.38400  Biso   1.000  O
  O47      1.0000 0.40830  0.84300  0.47220  Biso   1.000  O
  O48      1.0000 0.35450  0.54330  0.86940  Biso   1.000  O
