data_image0
_cell_length_a       16.994
_cell_length_b       18.914
_cell_length_c       18.948
_cell_angle_alpha    108.314
_cell_angle_beta     106.718
_cell_angle_gamma    109.066

_symmetry_space_group_name_H-M    "P 1"
_symmetry_int_tables_number       1

loop_
  _symmetry_equiv_pos_as_xyz
  'x, y, z'

loop_
  _atom_site_label
  _atom_site_occupancy
  _atom_site_fract_x
  _atom_site_fract_y
  _atom_site_fract_z
  _atom_site_thermal_displace_type
  _atom_site_B_iso_or_equiv
  _atom_site_type_symbol
  Zn1      1.0000 0.94087  0.78929  0.14184  Biso   1.000  Zn
  Zn2      1.0000 0.17716  0.93525  0.25885  Biso   1.000  Zn
  Zn3      1.0000 0.58440  0.83720  0.19279  Biso   1.000  Zn
  C1       1.0000 0.66200  0.38470  0.39860  Biso   1.000  C
  C2       1.0000 0.71650  0.41580  0.36240  Biso   1.000  C
  C3       1.0000 0.78950  0.49470  0.40770  Biso   1.000  C
  C4       1.0000 0.83000  0.53100  0.49150  Biso   1.000  C
  C5       1.0000 0.76230  0.50610  0.52810  Biso   1.000  C
  C6       1.0000 0.68320  0.43110  0.48110  Biso   1.000  C
  C7       1.0000 0.57970  0.29930  0.34840  Biso   1.000  C
  C8       1.0000 0.43410  0.24030  0.23650  Biso   1.000  C
  C9       1.0000 0.40170  0.16220  0.23540  Biso   1.000  C
  C10      1.0000 0.30300  0.10300  0.18000  Biso   1.000  C
  C11      1.0000 0.25200  0.11900  0.11700  Biso   1.000  C
  C12      1.0000 0.30590  0.18660  0.10740  Biso   1.000  C
  C13      1.0000 0.38520  0.25250  0.17280  Biso   1.000  C
  H1       1.0000 0.40630  0.30530  0.17450  Biso   1.000  H
  C14      1.0000 0.17800  0.16950  0.98830  Biso   1.000  C
  C15      1.0000 0.31360  0.24050  0.00640  Biso   1.000  C
  C16      1.0000 0.69380  0.36560  0.27480  Biso   1.000  C
  H2       1.0000 0.62950  0.34700  0.24000  Biso   1.000  H
  H3       1.0000 0.73210  0.39950  0.25690  Biso   1.000  H
  C17      1.0000 0.68130  0.23370  0.19140  Biso   1.000  C
  C18      1.0000 0.65820  0.24380  0.12050  Biso   1.000  C
  C19      1.0000 0.60600  0.09200  0.03100  Biso   1.000  C
  C20      1.0000 0.65490  0.09480  0.11430  Biso   1.000  C
  C21      1.0000 0.68250  0.15980  0.18920  Biso   1.000  C
  H4       1.0000 0.70170  0.15450  0.23760  Biso   1.000  H
  C22      1.0000 0.61570  0.97610  0.15010  Biso   1.000  C
  C23      1.0000 0.72090  0.98830  0.10510  Biso   1.000  C
  C24      1.0000 0.85110  0.53830  0.37310  Biso   1.000  C
  C25      1.0000 0.00900  0.58780  0.40250  Biso   1.000  C
  C26      1.0000 0.09210  0.59900  0.45690  Biso   1.000  C
  H5       1.0000 0.09410  0.56700  0.48540  Biso   1.000  H
  C27      1.0000 0.17440  0.66240  0.46650  Biso   1.000  C
  H6       1.0000 0.23150  0.67210  0.50260  Biso   1.000  H
  C28      1.0000 0.17220  0.70920  0.42470  Biso   1.000  C
  H7       1.0000 0.22640  0.74980  0.43140  Biso   1.000  H
  C29      1.0000 0.08810  0.69460  0.37300  Biso   1.000  C
  C30      1.0000 0.00630  0.63660  0.36310  Biso   1.000  C
  H8       1.0000 0.95000  0.63080  0.32990  Biso   1.000  H
  C31      1.0000 0.01140  0.72420  0.26130  Biso   1.000  C
  C32      1.0000 0.15560  0.81280  0.33980  Biso   1.000  C
  H9       1.0000 0.21570  0.83940  0.38110  Biso   1.000  H
  C33      1.0000 0.99460  0.76190  0.59720  Biso   1.000  C
  C34      1.0000 0.07920  0.77890  0.59820  Biso   1.000  C
  H10      1.0000 0.09330  0.73540  0.57800  Biso   1.000  H
  C35      1.0000 0.14600  0.86330  0.63020  Biso   1.000  C
  H11      1.0000 0.20490  0.87630  0.63310  Biso   1.000  H
  C36      1.0000 0.11960  0.92810  0.65810  Biso   1.000  C
  H12      1.0000 0.15970  0.98410  0.67700  Biso   1.000  H
  C37      1.0000 0.03550  0.90500  0.65600  Biso   1.000  C
  C38      1.0000 0.97010  0.82430  0.62530  Biso   1.000  C
  H13      1.0000 0.91160  0.81200  0.62330  Biso   1.000  H
  C39      1.0000 0.79440  0.55740  0.62300  Biso   1.000  C
  H14      1.0000 0.85090  0.60910  0.64650  Biso   1.000  H
  H15      1.0000 0.74700  0.57090  0.63290  Biso   1.000  H
  C40      1.0000 0.79700  0.51220  0.72990  Biso   1.000  C
  C41      1.0000 0.78800  0.57980  0.77610  Biso   1.000  C
  H16      1.0000 0.79240  0.62210  0.76000  Biso   1.000  H
  C42      1.0000 0.77100  0.58700  0.84400  Biso   1.000  C
  H17      1.0000 0.76830  0.63300  0.87670  Biso   1.000  H
  C43      1.0000 0.75800  0.50900  0.86000  Biso   1.000  C
  H18      1.0000 0.74840  0.50800  0.90530  Biso   1.000  H
  C44      1.0000 0.76060  0.43930  0.80650  Biso   1.000  C
  C45      1.0000 0.77730  0.43990  0.74100  Biso   1.000  C
  H19      1.0000 0.77540  0.39280  0.70380  Biso   1.000  H
  C46      1.0000 0.69000  0.33930  0.85460  Biso   1.000  C
  H20      1.0000 0.65590  0.36380  0.87300  Biso   1.000  H
  C47      1.0000 0.78130  0.31670  0.80270  Biso   1.000  C
  H21      1.0000 0.82300  0.32060  0.77960  Biso   1.000  H
  C48      1.0000 0.47680  0.37590  0.66040  Biso   1.000  C
  C49      1.0000 0.52090  0.37880  0.61080  Biso   1.000  C
  H22      1.0000 0.53600  0.33630  0.58940  Biso   1.000  H
  C50      1.0000 0.54260  0.44630  0.59300  Biso   1.000  C
  C51      1.0000 0.51980  0.50790  0.62550  Biso   1.000  C
  H23      1.0000 0.53530  0.55370  0.61410  Biso   1.000  H
  C52      1.0000 0.62220  0.39970  0.52040  Biso   1.000  C
  H24      1.0000 0.57180  0.34450  0.48100  Biso   1.000  H
  H25      1.0000 0.65790  0.39560  0.56780  Biso   1.000  H
  C53      1.0000 0.47450  0.50360  0.67440  Biso   1.000  C
  H26      1.0000 0.45940  0.54610  0.69550  Biso   1.000  H
  C54      1.0000 0.45120  0.43640  0.69270  Biso   1.000  C
  H27      1.0000 0.41970  0.43210  0.72530  Biso   1.000  H
  C55      1.0000 0.40830  0.22270  0.61500  Biso   1.000  C
  H28      1.0000 0.39380  0.20700  0.55940  Biso   1.000  H
  C56      1.0000 0.45720  0.29740  0.74350  Biso   1.000  C
  H29      1.0000 0.48250  0.34300  0.79480  Biso   1.000  H
  N1       1.0000 0.25900  0.19600  0.03400  Biso   1.000  N
  N2       1.0000 0.17040  0.20420  0.93810  Biso   1.000  N
  N3       1.0000 0.25640  0.24320  0.94520  Biso   1.000  N
  N4       1.0000 0.67600  0.02760  0.12770  Biso   1.000  N
  N5       1.0000 0.62980  0.91160  0.14160  Biso   1.000  N
  N6       1.0000 0.71080  0.92400  0.12260  Biso   1.000  N
  N7       1.0000 0.08460  0.74240  0.32760  Biso   1.000  N
  N8       1.0000 0.12530  0.83690  0.28390  Biso   1.000  N
  N9       1.0000 0.02900  0.79100  0.25500  Biso   1.000  N
  N10      1.0000 0.74530  0.37240  0.82260  Biso   1.000  N
  N11      1.0000 0.68740  0.27030  0.85810  Biso   1.000  N
  N12      1.0000 0.74450  0.25610  0.82310  Biso   1.000  N
  N13      1.0000 0.44770  0.30190  0.67320  Biso   1.000  N
  N14      1.0000 0.42530  0.21860  0.72940  Biso   1.000  N
  N15      1.0000 0.39300  0.17060  0.64680  Biso   1.000  N
  O1       1.0000 0.50610  0.31060  0.30050  Biso   1.000  O
  O2       1.0000 0.71010  0.29570  0.26860  Biso   1.000  O
  O3       1.0000 0.93600  0.51700  0.38800  Biso   1.000  O
  O4       1.0000 0.80970  0.50330  0.65750  Biso   1.000  O
  O5       1.0000 0.58710  0.45510  0.54510  Biso   1.000  O
  N16      1.0000 0.01340  0.97200  0.69140  Biso   1.000  N
  C57      1.0000 0.07430  0.05260  0.75640  Biso   1.000  C
  N17      1.0000 0.02190  0.09370  0.77370  Biso   1.000  N
  N18      1.0000 0.92850  0.03850  0.71940  Biso   1.000  N
  C58      1.0000 0.92330  0.96330  0.66850  Biso   1.000  C
  H30      1.0000 0.86960  0.91600  0.62690  Biso   1.000  H
  C59      1.0000 0.60800  0.16500  0.03500  Biso   1.000  C
  O6       1.0000 0.91200  0.68190  0.57280  Biso   1.000  O
  C60      1.0000 0.92370  0.60620  0.54580  Biso   1.000  C
  Mo1      1.0000 0.41913  0.46244  0.03582  Biso   1.000  Mo
  Mo2      1.0000 0.46223  0.63887  0.00092  Biso   1.000  Mo
  Mo3      1.0000 0.28643  0.29055  0.85496  Biso   1.000  Mo
  Mo4      1.0000 0.69520  0.53675  0.15104  Biso   1.000  Mo
  O7       1.0000 0.30290  0.41000  0.94250  Biso   1.000  O
  O8       1.0000 0.43650  0.56620  0.07830  Biso   1.000  O
  O9       1.0000 0.54710  0.48440  0.06150  Biso   1.000  O
  O10      1.0000 0.41420  0.35230  0.95290  Biso   1.000  O
  O11      1.0000 0.33410  0.56690  0.93920  Biso   1.000  O
  O12      1.0000 0.48070  0.72320  0.08550  Biso   1.000  O
  O13      1.0000 0.31870  0.35900  0.80600  Biso   1.000  O
  Mo5      1.0000 0.54195  0.08982  0.59111  Biso   1.000  Mo
  Mo6      1.0000 0.39674  0.07041  0.41989  Biso   1.000  Mo
  Mo7      1.0000 0.42336  0.91072  0.61177  Biso   1.000  Mo
  Mo8      1.0000 0.32998  0.03035  0.58724  Biso   1.000  Mo
  O14      1.0000 0.31690  0.92250  0.54900  Biso   1.000  O
  O15      1.0000 0.47680  0.05120  0.64780  Biso   1.000  O
  O16      1.0000 0.63840  0.07370  0.62470  Biso   1.000  O
  O17      1.0000 0.52320  0.06380  0.47790  Biso   1.000  O
  O18      1.0000 0.39920  0.06180  0.52080  Biso   1.000  O
  O19      1.0000 0.44490  0.05690  0.34070  Biso   1.000  O
  O20      1.0000 0.27970  0.03040  0.35860  Biso   1.000  O
  O21      1.0000 0.13680  0.96400  0.16620  Biso   1.000  O
  O22      1.0000 0.02700  0.81840  0.08990  Biso   1.000  O
  O23      1.0000 0.14040  0.87410  0.04520  Biso   1.000  O
  O24      1.0000 0.02700  0.92600  0.03660  Biso   1.000  O
  S1       1.0000 0.07890  0.89240  0.07910  Biso   1.000  S
  C61      1.0000 0.79800  0.55100  0.49100  Biso   1.000  C
  C62      1.0000 0.85600  0.65500  0.53600  Biso   1.000  C
  C63      1.0000 0.32830  0.09130  0.16230  Biso   1.000  C
  C64      1.0000 0.27360  0.10160  0.09760  Biso   1.000  C
  O25      1.0000 0.52700  0.30740  0.28580  Biso   1.000  O
  O26      1.0000 0.49600  0.31600  0.31700  Biso   1.000  O
  O27      1.0000 0.93100  0.54100  0.40700  Biso   1.000  O
  O28      1.0000 0.94800  0.67300  0.55810  Biso   1.000  O
  C65      1.0000 0.64900  0.10420  0.04550  Biso   1.000  C
  C66      1.0000 0.65000  0.18400  0.05000  Biso   1.000  C
  C67      1.0000 0.09500  0.06800  0.73100  Biso   1.000  C
  C68      1.0000 0.64700  0.95200  0.05100  Biso   1.000  C
  N19      1.0000 0.64000  0.89230  0.07050  Biso   1.000  N
  N20      1.0000 0.63340  0.00890  0.10320  Biso   1.000  N
  N21      1.0000 0.03510  0.77500  0.23010  Biso   1.000  N
  C69      1.0000 0.17100  0.19000  0.00400  Biso   1.000  C
  N22      1.0000 0.26700  0.20100  0.04100  Biso   1.000  N
  C70      1.0000 0.06200  0.04810  0.75100  Biso   1.000  C
  Zn4      1.0000 0.05913  0.21071  0.85816  Biso   1.000  Zn
  Zn5      1.0000 0.82284  0.06475  0.74115  Biso   1.000  Zn
  Zn6      1.0000 0.41560  0.16280  0.80721  Biso   1.000  Zn
  C71      1.0000 0.33800  0.61530  0.60140  Biso   1.000  C
  C72      1.0000 0.28350  0.58420  0.63760  Biso   1.000  C
  C73      1.0000 0.21050  0.50530  0.59230  Biso   1.000  C
  C74      1.0000 0.17000  0.46900  0.50850  Biso   1.000  C
  C75      1.0000 0.23770  0.49390  0.47190  Biso   1.000  C
  C76      1.0000 0.31680  0.56890  0.51890  Biso   1.000  C
  C77      1.0000 0.42030  0.70070  0.65160  Biso   1.000  C
  C78      1.0000 0.56590  0.75970  0.76350  Biso   1.000  C
  C79      1.0000 0.59830  0.83780  0.76460  Biso   1.000  C
  C80      1.0000 0.69700  0.89700  0.82000  Biso   1.000  C
  C81      1.0000 0.74800  0.88100  0.88300  Biso   1.000  C
  C82      1.0000 0.69410  0.81340  0.89260  Biso   1.000  C
  C83      1.0000 0.61480  0.74750  0.82720  Biso   1.000  C
  H31      1.0000 0.59370  0.69470  0.82550  Biso   1.000  H
  C84      1.0000 0.82200  0.83050  0.01170  Biso   1.000  C
  C85      1.0000 0.68640  0.75950  0.99360  Biso   1.000  C
  C86      1.0000 0.30620  0.63440  0.72520  Biso   1.000  C
  H32      1.0000 0.37050  0.65300  0.76000  Biso   1.000  H
  H33      1.0000 0.26790  0.60050  0.74310  Biso   1.000  H
  C87      1.0000 0.31870  0.76630  0.80860  Biso   1.000  C
  C88      1.0000 0.34180  0.75620  0.87950  Biso   1.000  C
  C89      1.0000 0.39400  0.90800  0.96900  Biso   1.000  C
  C90      1.0000 0.34510  0.90520  0.88570  Biso   1.000  C
  C91      1.0000 0.31750  0.84020  0.81080  Biso   1.000  C
  H34      1.0000 0.29830  0.84550  0.76240  Biso   1.000  H
  C92      1.0000 0.38430  0.02390  0.84990  Biso   1.000  C
  C93      1.0000 0.27910  0.01170  0.89490  Biso   1.000  C
  C94      1.0000 0.14890  0.46170  0.62690  Biso   1.000  C
  C95      1.0000 0.99100  0.41220  0.59750  Biso   1.000  C
  C96      1.0000 0.90790  0.40100  0.54310  Biso   1.000  C
  H35      1.0000 0.90590  0.43300  0.51460  Biso   1.000  H
  C97      1.0000 0.82560  0.33760  0.53350  Biso   1.000  C
  H36      1.0000 0.76850  0.32790  0.49740  Biso   1.000  H
  C98      1.0000 0.82780  0.29080  0.57530  Biso   1.000  C
  H37      1.0000 0.77360  0.25020  0.56860  Biso   1.000  H
  C99      1.0000 0.91190  0.30540  0.62700  Biso   1.000  C
  C100     1.0000 0.99370  0.36340  0.63690  Biso   1.000  C
  H38      1.0000 0.05000  0.36920  0.67010  Biso   1.000  H
  C101     1.0000 0.98860  0.27580  0.73870  Biso   1.000  C
  C102     1.0000 0.84440  0.18720  0.66020  Biso   1.000  C
  H39      1.0000 0.78430  0.16060  0.61890  Biso   1.000  H
  C103     1.0000 0.00540  0.23810  0.40280  Biso   1.000  C
  C104     1.0000 0.92080  0.22110  0.40180  Biso   1.000  C
  H40      1.0000 0.90670  0.26460  0.42200  Biso   1.000  H
  C105     1.0000 0.85400  0.13670  0.36980  Biso   1.000  C
  H41      1.0000 0.79510  0.12370  0.36690  Biso   1.000  H
  C106     1.0000 0.88040  0.07190  0.34190  Biso   1.000  C
  H42      1.0000 0.84030  0.01590  0.32300  Biso   1.000  H
  C107     1.0000 0.96450  0.09500  0.34400  Biso   1.000  C
  C108     1.0000 0.02990  0.17570  0.37470  Biso   1.000  C
  H43      1.0000 0.08840  0.18800  0.37670  Biso   1.000  H
  C109     1.0000 0.20560  0.44260  0.37700  Biso   1.000  C
  H44      1.0000 0.14910  0.39090  0.35350  Biso   1.000  H
  H45      1.0000 0.25300  0.42910  0.36710  Biso   1.000  H
  C110     1.0000 0.20300  0.48780  0.27010  Biso   1.000  C
  C111     1.0000 0.21200  0.42020  0.22390  Biso   1.000  C
  H46      1.0000 0.20760  0.37790  0.24000  Biso   1.000  H
  C112     1.0000 0.22900  0.41300  0.15600  Biso   1.000  C
  H47      1.0000 0.23170  0.36700  0.12330  Biso   1.000  H
  C113     1.0000 0.24200  0.49100  0.14000  Biso   1.000  C
  H48      1.0000 0.25160  0.49200  0.09470  Biso   1.000  H
  C114     1.0000 0.23940  0.56070  0.19350  Biso   1.000  C
  C115     1.0000 0.22270  0.56010  0.25900  Biso   1.000  C
  H49      1.0000 0.22460  0.60720  0.29620  Biso   1.000  H
  C116     1.0000 0.31000  0.66070  0.14540  Biso   1.000  C
  H50      1.0000 0.34410  0.63620  0.12700  Biso   1.000  H
  C117     1.0000 0.21870  0.68330  0.19730  Biso   1.000  C
  H51      1.0000 0.17700  0.67940  0.22040  Biso   1.000  H
  C118     1.0000 0.52320  0.62410  0.33960  Biso   1.000  C
  C119     1.0000 0.47910  0.62120  0.38920  Biso   1.000  C
  H52      1.0000 0.46400  0.66370  0.41060  Biso   1.000  H
  C120     1.0000 0.45740  0.55370  0.40700  Biso   1.000  C
  C121     1.0000 0.48020  0.49210  0.37450  Biso   1.000  C
  H53      1.0000 0.46470  0.44630  0.38590  Biso   1.000  H
  C122     1.0000 0.37780  0.60030  0.47960  Biso   1.000  C
  H54      1.0000 0.42820  0.65550  0.51900  Biso   1.000  H
  H55      1.0000 0.34210  0.60440  0.43220  Biso   1.000  H
  C123     1.0000 0.52550  0.49640  0.32560  Biso   1.000  C
  H56      1.0000 0.54060  0.45390  0.30450  Biso   1.000  H
  C124     1.0000 0.54880  0.56360  0.30730  Biso   1.000  C
  H57      1.0000 0.58030  0.56790  0.27470  Biso   1.000  H
  C125     1.0000 0.59170  0.77730  0.38500  Biso   1.000  C
  H58      1.0000 0.60620  0.79300  0.44060  Biso   1.000  H
  C126     1.0000 0.54280  0.70260  0.25650  Biso   1.000  C
  H59      1.0000 0.51750  0.65700  0.20520  Biso   1.000  H
  N23      1.0000 0.74100  0.80400  0.96600  Biso   1.000  N
  N24      1.0000 0.82960  0.79580  0.06190  Biso   1.000  N
  N25      1.0000 0.74360  0.75680  0.05480  Biso   1.000  N
  N26      1.0000 0.32400  0.97240  0.87230  Biso   1.000  N
  N27      1.0000 0.37020  0.08840  0.85840  Biso   1.000  N
  N28      1.0000 0.28920  0.07600  0.87740  Biso   1.000  N
  N29      1.0000 0.91540  0.25760  0.67240  Biso   1.000  N
  N30      1.0000 0.87470  0.16310  0.71610  Biso   1.000  N
  N31      1.0000 0.97100  0.20900  0.74500  Biso   1.000  N
  N32      1.0000 0.25470  0.62760  0.17740  Biso   1.000  N
  N33      1.0000 0.31260  0.72970  0.14190  Biso   1.000  N
  N34      1.0000 0.25550  0.74390  0.17690  Biso   1.000  N
  N35      1.0000 0.55230  0.69810  0.32680  Biso   1.000  N
  N36      1.0000 0.57470  0.78140  0.27060  Biso   1.000  N
  N37      1.0000 0.60700  0.82940  0.35320  Biso   1.000  N
  O29      1.0000 0.49390  0.68940  0.69950  Biso   1.000  O
  O30      1.0000 0.28990  0.70430  0.73140  Biso   1.000  O
  O31      1.0000 0.06400  0.48300  0.61200  Biso   1.000  O
  O32      1.0000 0.19030  0.49670  0.34250  Biso   1.000  O
  O33      1.0000 0.41290  0.54490  0.45490  Biso   1.000  O
  N38      1.0000 0.98660  0.02800  0.30860  Biso   1.000  N
  C127     1.0000 0.92570  0.94740  0.24360  Biso   1.000  C
  N39      1.0000 0.97810  0.90630  0.22630  Biso   1.000  N
  N40      1.0000 0.07150  0.96150  0.28060  Biso   1.000  N
  C128     1.0000 0.07670  0.03670  0.33150  Biso   1.000  C
  H60      1.0000 0.13040  0.08400  0.37310  Biso   1.000  H
  C129     1.0000 0.39200  0.83500  0.96500  Biso   1.000  C
  O34      1.0000 0.08800  0.31810  0.42720  Biso   1.000  O
  C130     1.0000 0.07630  0.39380  0.45420  Biso   1.000  C
  Mo9      1.0000 0.58087  0.53756  0.96418  Biso   1.000  Mo
  Mo10     1.0000 0.53777  0.36113  0.99908  Biso   1.000  Mo
  Mo11     1.0000 0.71357  0.70945  0.14504  Biso   1.000  Mo
  Mo12     1.0000 0.30480  0.46325  0.84896  Biso   1.000  Mo
  O35      1.0000 0.69710  0.59000  0.05750  Biso   1.000  O
  O36      1.0000 0.56350  0.43380  0.92170  Biso   1.000  O
  O37      1.0000 0.45290  0.51560  0.93850  Biso   1.000  O
  O38      1.0000 0.58580  0.64770  0.04710  Biso   1.000  O
  O39      1.0000 0.66590  0.43310  0.06080  Biso   1.000  O
  O40      1.0000 0.51930  0.27680  0.91450  Biso   1.000  O
  O41      1.0000 0.68130  0.64100  0.19400  Biso   1.000  O
  Mo13     1.0000 0.45805  0.91018  0.40889  Biso   1.000  Mo
  Mo14     1.0000 0.60326  0.92959  0.58011  Biso   1.000  Mo
  Mo15     1.0000 0.57664  0.08928  0.38823  Biso   1.000  Mo
  Mo16     1.0000 0.67002  0.96965  0.41276  Biso   1.000  Mo
  O42      1.0000 0.68310  0.07750  0.45100  Biso   1.000  O
  O43      1.0000 0.52320  0.94880  0.35220  Biso   1.000  O
  O44      1.0000 0.36160  0.92630  0.37530  Biso   1.000  O
  O45      1.0000 0.47680  0.93620  0.52210  Biso   1.000  O
  O46      1.0000 0.60080  0.93820  0.47920  Biso   1.000  O
  O47      1.0000 0.55510  0.94310  0.65930  Biso   1.000  O
  O48      1.0000 0.72030  0.96960  0.64140  Biso   1.000  O
  O49      1.0000 0.86320  0.03600  0.83380  Biso   1.000  O
  O50      1.0000 0.97300  0.18160  0.91010  Biso   1.000  O
  O51      1.0000 0.85960  0.12590  0.95480  Biso   1.000  O
  O52      1.0000 0.97300  0.07400  0.96340  Biso   1.000  O
  S2       1.0000 0.92110  0.10760  0.92090  Biso   1.000  S
  C131     1.0000 0.20200  0.44900  0.50900  Biso   1.000  C
  C132     1.0000 0.14400  0.34500  0.46400  Biso   1.000  C
  C133     1.0000 0.67170  0.90870  0.83770  Biso   1.000  C
  C134     1.0000 0.72640  0.89840  0.90240  Biso   1.000  C
  O53      1.0000 0.47300  0.69260  0.71420  Biso   1.000  O
  O54      1.0000 0.50400  0.68400  0.68300  Biso   1.000  O
  O55      1.0000 0.06900  0.45900  0.59300  Biso   1.000  O
  O56      1.0000 0.05200  0.32700  0.44190  Biso   1.000  O
  C135     1.0000 0.35100  0.89580  0.95450  Biso   1.000  C
  C136     1.0000 0.35000  0.81600  0.95000  Biso   1.000  C
  C137     1.0000 0.90500  0.93200  0.26900  Biso   1.000  C
  C138     1.0000 0.35300  0.04800  0.94900  Biso   1.000  C
  N41      1.0000 0.36000  0.10770  0.92950  Biso   1.000  N
  N42      1.0000 0.36660  0.99110  0.89680  Biso   1.000  N
  N43      1.0000 0.96490  0.22500  0.76990  Biso   1.000  N
  C139     1.0000 0.82900  0.81000  0.99600  Biso   1.000  C
  N44      1.0000 0.73300  0.79900  0.95900  Biso   1.000  N
  C140     1.0000 0.93800  0.95190  0.24900  Biso   1.000  C
