data_image0
_cell_length_a       22.858
_cell_length_b       22.858
_cell_length_c       14.042
_cell_angle_alpha    90
_cell_angle_beta     90
_cell_angle_gamma    120

_symmetry_space_group_name_H-M    "P 1"
_symmetry_int_tables_number       1

loop_
  _symmetry_equiv_pos_as_xyz
  'x, y, z'

loop_
  _atom_site_label
  _atom_site_occupancy
  _atom_site_fract_x
  _atom_site_fract_y
  _atom_site_fract_z
  _atom_site_thermal_displace_type
  _atom_site_B_iso_or_equiv
  _atom_site_type_symbol
  O1       1.0000 0.22310  0.66040  0.39940  Biso   1.000  O
  C1       1.0000 0.15830  0.53060  0.22130  Biso   1.000  C
  H1       1.0000 0.18480  0.51010  0.23450  Biso   1.000  H
  C2       1.0000 0.11540  0.51000  0.14340  Biso   1.000  C
  H2       1.0000 0.11190  0.47500  0.10320  Biso   1.000  H
  C3       1.0000 0.08080  0.49340  0.18180  Biso   1.000  C
  H3       1.0000 0.05190  0.44660  0.16910  Biso   1.000  H
  C4       1.0000 0.12410  0.51320  0.25860  Biso   1.000  C
  H4       1.0000 0.12760  0.48060  0.29630  Biso   1.000  H
  O2       1.0000 0.33960  0.56270  0.39940  Biso   1.000  O
  C5       1.0000 0.46940  0.62770  0.22130  Biso   1.000  C
  H5       1.0000 0.48990  0.67470  0.23450  Biso   1.000  H
  C6       1.0000 0.49000  0.60540  0.14340  Biso   1.000  C
  H6       1.0000 0.52500  0.63690  0.10320  Biso   1.000  H
  C7       1.0000 0.50660  0.58740  0.18180  Biso   1.000  C
  H7       1.0000 0.55340  0.60530  0.16910  Biso   1.000  H
  C8       1.0000 0.48680  0.61090  0.25860  Biso   1.000  C
  H8       1.0000 0.51940  0.64700  0.29630  Biso   1.000  H
  O3       1.0000 0.43730  0.77690  0.39940  Biso   1.000  O
  C9       1.0000 0.37230  0.84170  0.22130  Biso   1.000  C
  H9       1.0000 0.32530  0.81520  0.23450  Biso   1.000  H
  C10      1.0000 0.39460  0.88460  0.14340  Biso   1.000  C
  H10      1.0000 0.36310  0.88810  0.10320  Biso   1.000  H
  C11      1.0000 0.41260  0.91920  0.18180  Biso   1.000  C
  H11      1.0000 0.39470  0.94810  0.16910  Biso   1.000  H
  C12      1.0000 0.38910  0.87590  0.25860  Biso   1.000  C
  H12      1.0000 0.35300  0.87240  0.29630  Biso   1.000  H
  O4       1.0000 0.77690  0.33960  0.39940  Biso   1.000  O
  C13      1.0000 0.84170  0.46940  0.22130  Biso   1.000  C
  H13      1.0000 0.81520  0.48990  0.23450  Biso   1.000  H
  C14      1.0000 0.88460  0.49000  0.14340  Biso   1.000  C
  H14      1.0000 0.88810  0.52500  0.10320  Biso   1.000  H
  C15      1.0000 0.91920  0.50660  0.18180  Biso   1.000  C
  H15      1.0000 0.94810  0.55340  0.16910  Biso   1.000  H
  C16      1.0000 0.87590  0.48680  0.25860  Biso   1.000  C
  H16      1.0000 0.87240  0.51940  0.29630  Biso   1.000  H
  O5       1.0000 0.66040  0.43730  0.39940  Biso   1.000  O
  C17      1.0000 0.53060  0.37230  0.22130  Biso   1.000  C
  H17      1.0000 0.51010  0.32530  0.23450  Biso   1.000  H
  C18      1.0000 0.51000  0.39460  0.14340  Biso   1.000  C
  H18      1.0000 0.47500  0.36310  0.10320  Biso   1.000  H
  C19      1.0000 0.49340  0.41260  0.18180  Biso   1.000  C
  H19      1.0000 0.44660  0.39470  0.16910  Biso   1.000  H
  C20      1.0000 0.51320  0.38910  0.25860  Biso   1.000  C
  H20      1.0000 0.48060  0.35300  0.29630  Biso   1.000  H
  O6       1.0000 0.56270  0.22310  0.39940  Biso   1.000  O
  C21      1.0000 0.62770  0.15830  0.22130  Biso   1.000  C
  H21      1.0000 0.67470  0.18480  0.23450  Biso   1.000  H
  C22      1.0000 0.60540  0.11540  0.14340  Biso   1.000  C
  H22      1.0000 0.63690  0.11190  0.10320  Biso   1.000  H
  C23      1.0000 0.58740  0.08080  0.18180  Biso   1.000  C
  H23      1.0000 0.60530  0.05190  0.16910  Biso   1.000  H
  C24      1.0000 0.61090  0.12410  0.25860  Biso   1.000  C
  H24      1.0000 0.64700  0.12760  0.29630  Biso   1.000  H
  O7       1.0000 0.66040  0.22310  0.60060  Biso   1.000  O
  C25      1.0000 0.53060  0.15830  0.77870  Biso   1.000  C
  H25      1.0000 0.51010  0.18480  0.76550  Biso   1.000  H
  C26      1.0000 0.51000  0.11540  0.85660  Biso   1.000  C
  H26      1.0000 0.47500  0.11190  0.89680  Biso   1.000  H
  C27      1.0000 0.49340  0.08080  0.81820  Biso   1.000  C
  H27      1.0000 0.44660  0.05190  0.83090  Biso   1.000  H
  C28      1.0000 0.51320  0.12410  0.74140  Biso   1.000  C
  H28      1.0000 0.48060  0.12760  0.70370  Biso   1.000  H
  O8       1.0000 0.56270  0.33960  0.60060  Biso   1.000  O
  C29      1.0000 0.62770  0.46940  0.77870  Biso   1.000  C
  H29      1.0000 0.67470  0.48990  0.76550  Biso   1.000  H
  C30      1.0000 0.60540  0.49000  0.85660  Biso   1.000  C
  H30      1.0000 0.63690  0.52500  0.89680  Biso   1.000  H
  C31      1.0000 0.58740  0.50660  0.81820  Biso   1.000  C
  H31      1.0000 0.60530  0.55340  0.83090  Biso   1.000  H
  C32      1.0000 0.61090  0.48680  0.74140  Biso   1.000  C
  H32      1.0000 0.64700  0.51940  0.70370  Biso   1.000  H
  O9       1.0000 0.77690  0.43730  0.60060  Biso   1.000  O
  C33      1.0000 0.84170  0.37230  0.77870  Biso   1.000  C
  H33      1.0000 0.81520  0.32530  0.76550  Biso   1.000  H
  C34      1.0000 0.88460  0.39460  0.85660  Biso   1.000  C
  H34      1.0000 0.88810  0.36310  0.89680  Biso   1.000  H
  C35      1.0000 0.91920  0.41260  0.81820  Biso   1.000  C
  H35      1.0000 0.94810  0.39470  0.83090  Biso   1.000  H
  C36      1.0000 0.87590  0.38910  0.74140  Biso   1.000  C
  H36      1.0000 0.87240  0.35300  0.70370  Biso   1.000  H
  O10      1.0000 0.33960  0.77690  0.60060  Biso   1.000  O
  C37      1.0000 0.46940  0.84170  0.77870  Biso   1.000  C
  H37      1.0000 0.48990  0.81520  0.76550  Biso   1.000  H
  C38      1.0000 0.49000  0.88460  0.85660  Biso   1.000  C
  H38      1.0000 0.52500  0.88810  0.89680  Biso   1.000  H
  C39      1.0000 0.50660  0.91920  0.81820  Biso   1.000  C
  H39      1.0000 0.55340  0.94810  0.83090  Biso   1.000  H
  C40      1.0000 0.48680  0.87590  0.74140  Biso   1.000  C
  H40      1.0000 0.51940  0.87240  0.70370  Biso   1.000  H
  O11      1.0000 0.43730  0.66040  0.60060  Biso   1.000  O
  C41      1.0000 0.37230  0.53060  0.77870  Biso   1.000  C
  H41      1.0000 0.32530  0.51010  0.76550  Biso   1.000  H
  C42      1.0000 0.39460  0.51000  0.85660  Biso   1.000  C
  H42      1.0000 0.36310  0.47500  0.89680  Biso   1.000  H
  C43      1.0000 0.41260  0.49340  0.81820  Biso   1.000  C
  H43      1.0000 0.39470  0.44660  0.83090  Biso   1.000  H
  C44      1.0000 0.38910  0.51320  0.74140  Biso   1.000  C
  H44      1.0000 0.35300  0.48060  0.70370  Biso   1.000  H
  O12      1.0000 0.22310  0.56270  0.60060  Biso   1.000  O
  C45      1.0000 0.15830  0.62770  0.77870  Biso   1.000  C
  H45      1.0000 0.18480  0.67470  0.76550  Biso   1.000  H
  C46      1.0000 0.11540  0.60540  0.85660  Biso   1.000  C
  H46      1.0000 0.11190  0.63690  0.89680  Biso   1.000  H
  C47      1.0000 0.08080  0.58740  0.81820  Biso   1.000  C
  H47      1.0000 0.05190  0.60530  0.83090  Biso   1.000  H
  C48      1.0000 0.12410  0.61090  0.74140  Biso   1.000  C
  H48      1.0000 0.12760  0.64700  0.70370  Biso   1.000  H
  O13      1.0000 0.77690  0.33960  0.60060  Biso   1.000  O
  C49      1.0000 0.84170  0.46940  0.77870  Biso   1.000  C
  H49      1.0000 0.81520  0.48990  0.76550  Biso   1.000  H
  C50      1.0000 0.88460  0.49000  0.85660  Biso   1.000  C
  H50      1.0000 0.88810  0.52500  0.89680  Biso   1.000  H
  C51      1.0000 0.91920  0.50660  0.81820  Biso   1.000  C
  H51      1.0000 0.94810  0.55340  0.83090  Biso   1.000  H
  C52      1.0000 0.87590  0.48680  0.74140  Biso   1.000  C
  H52      1.0000 0.87240  0.51940  0.70370  Biso   1.000  H
  O14      1.0000 0.66040  0.43730  0.60060  Biso   1.000  O
  C53      1.0000 0.53060  0.37230  0.77870  Biso   1.000  C
  H53      1.0000 0.51010  0.32530  0.76550  Biso   1.000  H
  C54      1.0000 0.51000  0.39460  0.85660  Biso   1.000  C
  H54      1.0000 0.47500  0.36310  0.89680  Biso   1.000  H
  C55      1.0000 0.49340  0.41260  0.81820  Biso   1.000  C
  H55      1.0000 0.44660  0.39470  0.83090  Biso   1.000  H
  C56      1.0000 0.51320  0.38910  0.74140  Biso   1.000  C
  H56      1.0000 0.48060  0.35300  0.70370  Biso   1.000  H
  O15      1.0000 0.56270  0.22310  0.60060  Biso   1.000  O
  C57      1.0000 0.62770  0.15830  0.77870  Biso   1.000  C
  H57      1.0000 0.67470  0.18480  0.76550  Biso   1.000  H
  C58      1.0000 0.60540  0.11540  0.85660  Biso   1.000  C
  H58      1.0000 0.63690  0.11190  0.89680  Biso   1.000  H
  C59      1.0000 0.58740  0.08080  0.81820  Biso   1.000  C
  H59      1.0000 0.60530  0.05190  0.83090  Biso   1.000  H
  C60      1.0000 0.61090  0.12410  0.74140  Biso   1.000  C
  H60      1.0000 0.64700  0.12760  0.70370  Biso   1.000  H
  O16      1.0000 0.22310  0.66040  0.60060  Biso   1.000  O
  C61      1.0000 0.15830  0.53060  0.77870  Biso   1.000  C
  H61      1.0000 0.18480  0.51010  0.76550  Biso   1.000  H
  C62      1.0000 0.11540  0.51000  0.85660  Biso   1.000  C
  H62      1.0000 0.11190  0.47500  0.89680  Biso   1.000  H
  C63      1.0000 0.08080  0.49340  0.81820  Biso   1.000  C
  H63      1.0000 0.05190  0.44660  0.83090  Biso   1.000  H
  C64      1.0000 0.12410  0.51320  0.74140  Biso   1.000  C
  H64      1.0000 0.12760  0.48060  0.70370  Biso   1.000  H
  O17      1.0000 0.33960  0.56270  0.60060  Biso   1.000  O
  C65      1.0000 0.46940  0.62770  0.77870  Biso   1.000  C
  H65      1.0000 0.48990  0.67470  0.76550  Biso   1.000  H
  C66      1.0000 0.49000  0.60540  0.85660  Biso   1.000  C
  H66      1.0000 0.52500  0.63690  0.89680  Biso   1.000  H
  C67      1.0000 0.50660  0.58740  0.81820  Biso   1.000  C
  H67      1.0000 0.55340  0.60530  0.83090  Biso   1.000  H
  C68      1.0000 0.48680  0.61090  0.74140  Biso   1.000  C
  H68      1.0000 0.51940  0.64700  0.70370  Biso   1.000  H
  O18      1.0000 0.43730  0.77690  0.60060  Biso   1.000  O
  C69      1.0000 0.37230  0.84170  0.77870  Biso   1.000  C
  H69      1.0000 0.32530  0.81520  0.76550  Biso   1.000  H
  C70      1.0000 0.39460  0.88460  0.85660  Biso   1.000  C
  H70      1.0000 0.36310  0.88810  0.89680  Biso   1.000  H
  C71      1.0000 0.41260  0.91920  0.81820  Biso   1.000  C
  H71      1.0000 0.39470  0.94810  0.83090  Biso   1.000  H
  C72      1.0000 0.38910  0.87590  0.74140  Biso   1.000  C
  H72      1.0000 0.35300  0.87240  0.70370  Biso   1.000  H
  O19      1.0000 0.33960  0.77690  0.39940  Biso   1.000  O
  C73      1.0000 0.46940  0.84170  0.22130  Biso   1.000  C
  H73      1.0000 0.48990  0.81520  0.23450  Biso   1.000  H
  C74      1.0000 0.49000  0.88460  0.14340  Biso   1.000  C
  H74      1.0000 0.52500  0.88810  0.10320  Biso   1.000  H
  C75      1.0000 0.50660  0.91920  0.18180  Biso   1.000  C
  H75      1.0000 0.55340  0.94810  0.16910  Biso   1.000  H
  C76      1.0000 0.48680  0.87590  0.25860  Biso   1.000  C
  H76      1.0000 0.51940  0.87240  0.29630  Biso   1.000  H
  O20      1.0000 0.43730  0.66040  0.39940  Biso   1.000  O
  C77      1.0000 0.37230  0.53060  0.22130  Biso   1.000  C
  H77      1.0000 0.32530  0.51010  0.23450  Biso   1.000  H
  C78      1.0000 0.39460  0.51000  0.14340  Biso   1.000  C
  H78      1.0000 0.36310  0.47500  0.10320  Biso   1.000  H
  C79      1.0000 0.41260  0.49340  0.18180  Biso   1.000  C
  H79      1.0000 0.39470  0.44660  0.16910  Biso   1.000  H
  C80      1.0000 0.38910  0.51320  0.25860  Biso   1.000  C
  H80      1.0000 0.35300  0.48060  0.29630  Biso   1.000  H
  O21      1.0000 0.22310  0.56270  0.39940  Biso   1.000  O
  C81      1.0000 0.15830  0.62770  0.22130  Biso   1.000  C
  H81      1.0000 0.18480  0.67470  0.23450  Biso   1.000  H
  C82      1.0000 0.11540  0.60540  0.14340  Biso   1.000  C
  H82      1.0000 0.11190  0.63690  0.10320  Biso   1.000  H
  C83      1.0000 0.08080  0.58740  0.18180  Biso   1.000  C
  H83      1.0000 0.05190  0.60530  0.16910  Biso   1.000  H
  C84      1.0000 0.12410  0.61090  0.25860  Biso   1.000  C
  H84      1.0000 0.12760  0.64700  0.29630  Biso   1.000  H
  O22      1.0000 0.66040  0.22310  0.39940  Biso   1.000  O
  C85      1.0000 0.53060  0.15830  0.22130  Biso   1.000  C
  H85      1.0000 0.51010  0.18480  0.23450  Biso   1.000  H
  C86      1.0000 0.51000  0.11540  0.14340  Biso   1.000  C
  H86      1.0000 0.47500  0.11190  0.10320  Biso   1.000  H
  C87      1.0000 0.49340  0.08080  0.18180  Biso   1.000  C
  H87      1.0000 0.44660  0.05190  0.16910  Biso   1.000  H
  C88      1.0000 0.51320  0.12410  0.25860  Biso   1.000  C
  H88      1.0000 0.48060  0.12760  0.29630  Biso   1.000  H
  O23      1.0000 0.56270  0.33960  0.39940  Biso   1.000  O
  C89      1.0000 0.62770  0.46940  0.22130  Biso   1.000  C
  H89      1.0000 0.67470  0.48990  0.23450  Biso   1.000  H
  C90      1.0000 0.60540  0.49000  0.14340  Biso   1.000  C
  H90      1.0000 0.63690  0.52500  0.10320  Biso   1.000  H
  C91      1.0000 0.58740  0.50660  0.18180  Biso   1.000  C
  H91      1.0000 0.60530  0.55340  0.16910  Biso   1.000  H
  C92      1.0000 0.61090  0.48680  0.25860  Biso   1.000  C
  H92      1.0000 0.64700  0.51940  0.29630  Biso   1.000  H
  O24      1.0000 0.77690  0.43730  0.39940  Biso   1.000  O
  C93      1.0000 0.84170  0.37230  0.22130  Biso   1.000  C
  H93      1.0000 0.81520  0.32530  0.23450  Biso   1.000  H
  C94      1.0000 0.88460  0.39460  0.14340  Biso   1.000  C
  H94      1.0000 0.88810  0.36310  0.10320  Biso   1.000  H
  C95      1.0000 0.91920  0.41260  0.18180  Biso   1.000  C
  H95      1.0000 0.94810  0.39470  0.16910  Biso   1.000  H
  C96      1.0000 0.87590  0.38910  0.25860  Biso   1.000  C
  H96      1.0000 0.87240  0.35300  0.29630  Biso   1.000  H
  Cd1      1.0000 0.00000  0.50000  0.00000  Biso   1.000  Cd
  Cd2      1.0000 0.50000  0.50000  0.00000  Biso   1.000  Cd
  Cd3      1.0000 0.50000  0.00000  0.00000  Biso   1.000  Cd
  Cr1      1.0000 0.28521  0.71479  0.50000  Biso   1.000  Cr
  Cr2      1.0000 0.28521  0.57042  0.50000  Biso   1.000  Cr
  Cr3      1.0000 0.42958  0.71479  0.50000  Biso   1.000  Cr
  Cr4      1.0000 0.71479  0.28521  0.50000  Biso   1.000  Cr
  Cr5      1.0000 0.71479  0.42958  0.50000  Biso   1.000  Cr
  Cr6      1.0000 0.57042  0.28521  0.50000  Biso   1.000  Cr
  O25      1.0000 0.33333  0.66667  0.50000  Biso   1.000  O
  O26      1.0000 0.66667  0.33333  0.50000  Biso   1.000  O
  C97      1.0000 0.20520  0.60260  0.36880  Biso   1.000  C
  C98      1.0000 0.16230  0.58115  0.27990  Biso   1.000  C
  N1       1.0000 0.07910  0.53955  0.12520  Biso   1.000  N
  C99      1.0000 0.39740  0.60260  0.36880  Biso   1.000  C
  C100     1.0000 0.41885  0.58115  0.27990  Biso   1.000  C
  N2       1.0000 0.46045  0.53955  0.12520  Biso   1.000  N
  C101     1.0000 0.39740  0.79480  0.36880  Biso   1.000  C
  C102     1.0000 0.41885  0.83770  0.27990  Biso   1.000  C
  N3       1.0000 0.46045  0.92090  0.12520  Biso   1.000  N
  C103     1.0000 0.79480  0.39740  0.36880  Biso   1.000  C
  C104     1.0000 0.83770  0.41885  0.27990  Biso   1.000  C
  N4       1.0000 0.92090  0.46045  0.12520  Biso   1.000  N
  C105     1.0000 0.60260  0.39740  0.36880  Biso   1.000  C
  C106     1.0000 0.58115  0.41885  0.27990  Biso   1.000  C
  N5       1.0000 0.53955  0.46045  0.12520  Biso   1.000  N
  C107     1.0000 0.60260  0.20520  0.36880  Biso   1.000  C
  C108     1.0000 0.58115  0.16230  0.27990  Biso   1.000  C
  N6       1.0000 0.53955  0.07910  0.12520  Biso   1.000  N
  C109     1.0000 0.60260  0.20520  0.63120  Biso   1.000  C
  C110     1.0000 0.58115  0.16230  0.72010  Biso   1.000  C
  N7       1.0000 0.53955  0.07910  0.87480  Biso   1.000  N
  C111     1.0000 0.60260  0.39740  0.63120  Biso   1.000  C
  C112     1.0000 0.58115  0.41885  0.72010  Biso   1.000  C
  N8       1.0000 0.53955  0.46045  0.87480  Biso   1.000  N
  C113     1.0000 0.79480  0.39740  0.63120  Biso   1.000  C
  C114     1.0000 0.83770  0.41885  0.72010  Biso   1.000  C
  N9       1.0000 0.92090  0.46045  0.87480  Biso   1.000  N
  C115     1.0000 0.39740  0.79480  0.63120  Biso   1.000  C
  C116     1.0000 0.41885  0.83770  0.72010  Biso   1.000  C
  N10      1.0000 0.46045  0.92090  0.87480  Biso   1.000  N
  C117     1.0000 0.39740  0.60260  0.63120  Biso   1.000  C
  C118     1.0000 0.41885  0.58115  0.72010  Biso   1.000  C
  N11      1.0000 0.46045  0.53955  0.87480  Biso   1.000  N
  C119     1.0000 0.20520  0.60260  0.63120  Biso   1.000  C
  C120     1.0000 0.16230  0.58115  0.72010  Biso   1.000  C
  N12      1.0000 0.07910  0.53955  0.87480  Biso   1.000  N
