data_image0
_cell_length_a       13.3382
_cell_length_b       21.4986
_cell_length_c       10.1527
_cell_angle_alpha    90
_cell_angle_beta     95
_cell_angle_gamma    90

_symmetry_space_group_name_H-M    "P 1"
_symmetry_int_tables_number       1

loop_
  _symmetry_equiv_pos_as_xyz
  'x, y, z'

loop_
  _atom_site_label
  _atom_site_occupancy
  _atom_site_fract_x
  _atom_site_fract_y
  _atom_site_fract_z
  _atom_site_thermal_displace_type
  _atom_site_B_iso_or_equiv
  _atom_site_type_symbol
  C1       1.0000 0.10330  0.71980  0.75460  Biso   1.000  C
  C2       1.0000 0.25990  0.80310  0.75410  Biso   1.000  C
  C3       1.0000 0.13670  0.73650  0.63570  Biso   1.000  C
  H1       1.0000 0.10820  0.71980  0.55660  Biso   1.000  H
  C4       1.0000 0.21560  0.77980  0.63820  Biso   1.000  C
  H2       1.0000 0.23830  0.79290  0.55880  Biso   1.000  H
  C5       1.0000 0.22150  0.78590  0.87490  Biso   1.000  C
  H3       1.0000 0.24920  0.80290  0.95410  Biso   1.000  H
  C6       1.0000 0.14240  0.74360  0.87520  Biso   1.000  C
  H4       1.0000 0.11670  0.73170  0.95370  Biso   1.000  H
  C7       1.0000 0.34660  0.84750  0.75220  Biso   1.000  C
  C8       1.0000 0.36280  0.01730  0.80440  Biso   1.000  C
  C9       1.0000 0.27260  0.05930  0.79270  Biso   1.000  C
  C10      1.0000 0.23840  0.08200  0.66810  Biso   1.000  C
  H5       1.0000 0.27160  0.07180  0.59420  Biso   1.000  H
  C11      1.0000 0.15400  0.12010  0.65590  Biso   1.000  C
  H6       1.0000 0.13040  0.13580  0.57370  Biso   1.000  H
  C12      1.0000 0.10510  0.13460  0.76780  Biso   1.000  C
  C13      1.0000 0.13820  0.11170  0.89160  Biso   1.000  C
  H7       1.0000 0.10450  0.12150  0.96520  Biso   1.000  H
  C14      1.0000 0.22270  0.07370  0.90330  Biso   1.000  C
  H8       1.0000 0.24600  0.05780  0.98560  Biso   1.000  H
  Cd1      1.0000 0.51548  0.92697  0.91945  Biso   1.000  Cd
  O1       1.0000 0.38510  0.99060  0.70350  Biso   1.000  O
  O2       1.0000 0.41000  0.00950  0.91910  Biso   1.000  O
  O3       1.0000 0.37890  0.87100  0.86070  Biso   1.000  O
  O4       1.0000 0.38020  0.85680  0.64060  Biso   1.000  O
  O5       1.0000 0.00460  0.63380  0.87250  Biso   1.000  O
  O6       1.0000 0.00450  0.21830  0.62800  Biso   1.000  O
  C15      1.0000 0.17130  0.71450  0.66000  Biso   1.000  C
  H9       1.0000 0.16380  0.68340  0.59610  Biso   1.000  H
  C16      1.0000 0.25140  0.75630  0.66200  Biso   1.000  C
  H10      1.0000 0.29890  0.75250  0.60020  Biso   1.000  H
  C17      1.0000 0.19500  0.80920  0.84600  Biso   1.000  C
  H11      1.0000 0.20460  0.84050  0.90940  Biso   1.000  H
  C18      1.0000 0.11300  0.76910  0.84800  Biso   1.000  C
  H12      1.0000 0.06520  0.77450  0.90910  Biso   1.000  H
  C19      1.0000 0.89670  0.71980  0.74540  Biso   1.000  C
  C20      1.0000 0.74010  0.80310  0.74590  Biso   1.000  C
  C21      1.0000 0.86330  0.73650  0.86430  Biso   1.000  C
  H13      1.0000 0.89180  0.71980  0.94340  Biso   1.000  H
  C22      1.0000 0.78440  0.77980  0.86180  Biso   1.000  C
  H14      1.0000 0.76170  0.79290  0.94120  Biso   1.000  H
  C23      1.0000 0.77850  0.78590  0.62510  Biso   1.000  C
  H15      1.0000 0.75080  0.80290  0.54590  Biso   1.000  H
  C24      1.0000 0.85760  0.74360  0.62480  Biso   1.000  C
  H16      1.0000 0.88330  0.73170  0.54630  Biso   1.000  H
  C25      1.0000 0.65340  0.84750  0.74780  Biso   1.000  C
  C26      1.0000 0.63720  0.01730  0.69560  Biso   1.000  C
  C27      1.0000 0.72740  0.05930  0.70730  Biso   1.000  C
  C28      1.0000 0.76160  0.08200  0.83190  Biso   1.000  C
  H17      1.0000 0.72840  0.07180  0.90580  Biso   1.000  H
  C29      1.0000 0.84600  0.12010  0.84410  Biso   1.000  C
  H18      1.0000 0.86960  0.13580  0.92630  Biso   1.000  H
  C30      1.0000 0.89490  0.13460  0.73220  Biso   1.000  C
  C31      1.0000 0.86180  0.11170  0.60840  Biso   1.000  C
  H19      1.0000 0.89550  0.12150  0.53480  Biso   1.000  H
  C32      1.0000 0.77730  0.07370  0.59670  Biso   1.000  C
  H20      1.0000 0.75400  0.05780  0.51440  Biso   1.000  H
  Cd2      1.0000 0.48452  0.92697  0.58055  Biso   1.000  Cd
  O7       1.0000 0.61490  0.99060  0.79650  Biso   1.000  O
  O8       1.0000 0.59000  0.00950  0.58090  Biso   1.000  O
  O9       1.0000 0.62110  0.87100  0.63930  Biso   1.000  O
  O10      1.0000 0.61980  0.85680  0.85940  Biso   1.000  O
  O11      1.0000 0.99540  0.63380  0.62750  Biso   1.000  O
  O12      1.0000 0.99550  0.21830  0.87200  Biso   1.000  O
  C33      1.0000 0.82870  0.71450  0.84000  Biso   1.000  C
  H21      1.0000 0.83620  0.68340  0.90390  Biso   1.000  H
  C34      1.0000 0.74860  0.75630  0.83800  Biso   1.000  C
  H22      1.0000 0.70110  0.75250  0.89980  Biso   1.000  H
  C35      1.0000 0.80500  0.80920  0.65400  Biso   1.000  C
  H23      1.0000 0.79540  0.84050  0.59060  Biso   1.000  H
  C36      1.0000 0.88700  0.76910  0.65200  Biso   1.000  C
  H24      1.0000 0.93480  0.77450  0.59090  Biso   1.000  H
  C37      1.0000 0.89670  0.28020  0.24540  Biso   1.000  C
  C38      1.0000 0.74010  0.19690  0.24590  Biso   1.000  C
  C39      1.0000 0.86330  0.26350  0.36430  Biso   1.000  C
  H25      1.0000 0.89180  0.28020  0.44340  Biso   1.000  H
  C40      1.0000 0.78440  0.22020  0.36180  Biso   1.000  C
  H26      1.0000 0.76170  0.20710  0.44120  Biso   1.000  H
  C41      1.0000 0.77850  0.21410  0.12510  Biso   1.000  C
  H27      1.0000 0.75080  0.19710  0.04590  Biso   1.000  H
  C42      1.0000 0.85760  0.25640  0.12480  Biso   1.000  C
  H28      1.0000 0.88330  0.26830  0.04630  Biso   1.000  H
  C43      1.0000 0.65340  0.15250  0.24780  Biso   1.000  C
  C44      1.0000 0.63720  0.98270  0.19560  Biso   1.000  C
  C45      1.0000 0.72740  0.94070  0.20730  Biso   1.000  C
  C46      1.0000 0.76160  0.91800  0.33190  Biso   1.000  C
  H29      1.0000 0.72840  0.92820  0.40580  Biso   1.000  H
  C47      1.0000 0.84600  0.87990  0.34410  Biso   1.000  C
  H30      1.0000 0.86960  0.86420  0.42630  Biso   1.000  H
  C48      1.0000 0.89490  0.86540  0.23220  Biso   1.000  C
  C49      1.0000 0.86180  0.88830  0.10840  Biso   1.000  C
  H31      1.0000 0.89550  0.87850  0.03480  Biso   1.000  H
  C50      1.0000 0.77730  0.92630  0.09670  Biso   1.000  C
  H32      1.0000 0.75400  0.94220  0.01440  Biso   1.000  H
  Cd3      1.0000 0.48452  0.07303  0.08055  Biso   1.000  Cd
  O13      1.0000 0.61490  0.00940  0.29650  Biso   1.000  O
  O14      1.0000 0.59000  0.99050  0.08090  Biso   1.000  O
  O15      1.0000 0.62110  0.12900  0.13930  Biso   1.000  O
  O16      1.0000 0.61980  0.14320  0.35940  Biso   1.000  O
  O17      1.0000 0.99540  0.36620  0.12750  Biso   1.000  O
  O18      1.0000 0.99550  0.78170  0.37200  Biso   1.000  O
  C51      1.0000 0.82870  0.28550  0.34000  Biso   1.000  C
  H33      1.0000 0.83620  0.31660  0.40390  Biso   1.000  H
  C52      1.0000 0.74860  0.24370  0.33800  Biso   1.000  C
  H34      1.0000 0.70110  0.24750  0.39980  Biso   1.000  H
  C53      1.0000 0.80500  0.19080  0.15400  Biso   1.000  C
  H35      1.0000 0.79540  0.15950  0.09060  Biso   1.000  H
  C54      1.0000 0.88700  0.23090  0.15200  Biso   1.000  C
  H36      1.0000 0.93480  0.22550  0.09090  Biso   1.000  H
  C55      1.0000 0.10330  0.28020  0.25460  Biso   1.000  C
  C56      1.0000 0.25990  0.19690  0.25410  Biso   1.000  C
  C57      1.0000 0.13670  0.26350  0.13570  Biso   1.000  C
  H37      1.0000 0.10820  0.28020  0.05660  Biso   1.000  H
  C58      1.0000 0.21560  0.22020  0.13820  Biso   1.000  C
  H38      1.0000 0.23830  0.20710  0.05880  Biso   1.000  H
  C59      1.0000 0.22150  0.21410  0.37490  Biso   1.000  C
  H39      1.0000 0.24920  0.19710  0.45410  Biso   1.000  H
  C60      1.0000 0.14240  0.25640  0.37520  Biso   1.000  C
  H40      1.0000 0.11670  0.26830  0.45370  Biso   1.000  H
  C61      1.0000 0.34660  0.15250  0.25220  Biso   1.000  C
  C62      1.0000 0.36280  0.98270  0.30440  Biso   1.000  C
  C63      1.0000 0.27260  0.94070  0.29270  Biso   1.000  C
  C64      1.0000 0.23840  0.91800  0.16810  Biso   1.000  C
  H41      1.0000 0.27160  0.92820  0.09420  Biso   1.000  H
  C65      1.0000 0.15400  0.87990  0.15590  Biso   1.000  C
  H42      1.0000 0.13040  0.86420  0.07370  Biso   1.000  H
  C66      1.0000 0.10510  0.86540  0.26780  Biso   1.000  C
  C67      1.0000 0.13820  0.88830  0.39160  Biso   1.000  C
  H43      1.0000 0.10450  0.87850  0.46520  Biso   1.000  H
  C68      1.0000 0.22270  0.92630  0.40330  Biso   1.000  C
  H44      1.0000 0.24600  0.94220  0.48560  Biso   1.000  H
  Cd4      1.0000 0.51548  0.07303  0.41945  Biso   1.000  Cd
  O19      1.0000 0.38510  0.00940  0.20350  Biso   1.000  O
  O20      1.0000 0.41000  0.99050  0.41910  Biso   1.000  O
  O21      1.0000 0.37890  0.12900  0.36070  Biso   1.000  O
  O22      1.0000 0.38020  0.14320  0.14060  Biso   1.000  O
  O23      1.0000 0.00460  0.36620  0.37250  Biso   1.000  O
  O24      1.0000 0.00450  0.78170  0.12800  Biso   1.000  O
  C69      1.0000 0.17130  0.28550  0.16000  Biso   1.000  C
  H45      1.0000 0.16380  0.31660  0.09610  Biso   1.000  H
  C70      1.0000 0.25140  0.24370  0.16200  Biso   1.000  C
  H46      1.0000 0.29890  0.24750  0.10020  Biso   1.000  H
  C71      1.0000 0.19500  0.19080  0.34600  Biso   1.000  C
  H47      1.0000 0.20460  0.15950  0.40940  Biso   1.000  H
  C72      1.0000 0.11300  0.23090  0.34800  Biso   1.000  C
  H48      1.0000 0.06520  0.22550  0.40910  Biso   1.000  H
  S1       1.0000 0.00000  0.66852  0.75000  Biso   1.000  S
  S2       1.0000 0.00000  0.18504  0.75000  Biso   1.000  S
  S3       1.0000 0.00000  0.33148  0.25000  Biso   1.000  S
  S4       1.0000 0.00000  0.81496  0.25000  Biso   1.000  S
  C73      1.0000 0.60330  0.21980  0.75460  Biso   1.000  C
  C74      1.0000 0.75990  0.30310  0.75410  Biso   1.000  C
  C75      1.0000 0.63670  0.23650  0.63570  Biso   1.000  C
  H49      1.0000 0.60820  0.21980  0.55660  Biso   1.000  H
  C76      1.0000 0.71560  0.27980  0.63820  Biso   1.000  C
  H50      1.0000 0.73830  0.29290  0.55880  Biso   1.000  H
  C77      1.0000 0.72150  0.28590  0.87490  Biso   1.000  C
  H51      1.0000 0.74920  0.30290  0.95410  Biso   1.000  H
  C78      1.0000 0.64240  0.24360  0.87520  Biso   1.000  C
  H52      1.0000 0.61670  0.23170  0.95370  Biso   1.000  H
  C79      1.0000 0.84660  0.34750  0.75220  Biso   1.000  C
  C80      1.0000 0.86280  0.51730  0.80440  Biso   1.000  C
  C81      1.0000 0.77260  0.55930  0.79270  Biso   1.000  C
  C82      1.0000 0.73840  0.58200  0.66810  Biso   1.000  C
  H53      1.0000 0.77160  0.57180  0.59420  Biso   1.000  H
  C83      1.0000 0.65400  0.62010  0.65590  Biso   1.000  C
  H54      1.0000 0.63040  0.63580  0.57370  Biso   1.000  H
  C84      1.0000 0.60510  0.63460  0.76780  Biso   1.000  C
  C85      1.0000 0.63820  0.61170  0.89160  Biso   1.000  C
  H55      1.0000 0.60450  0.62150  0.96520  Biso   1.000  H
  C86      1.0000 0.72270  0.57370  0.90330  Biso   1.000  C
  H56      1.0000 0.74600  0.55780  0.98560  Biso   1.000  H
  Cd5      1.0000 0.01548  0.42697  0.91945  Biso   1.000  Cd
  O25      1.0000 0.88510  0.49060  0.70350  Biso   1.000  O
  O26      1.0000 0.91000  0.50950  0.91910  Biso   1.000  O
  O27      1.0000 0.87890  0.37100  0.86070  Biso   1.000  O
  O28      1.0000 0.88020  0.35680  0.64060  Biso   1.000  O
  O29      1.0000 0.50460  0.13380  0.87250  Biso   1.000  O
  O30      1.0000 0.50450  0.71830  0.62800  Biso   1.000  O
  C87      1.0000 0.67130  0.21450  0.66000  Biso   1.000  C
  H57      1.0000 0.66380  0.18340  0.59610  Biso   1.000  H
  C88      1.0000 0.75140  0.25630  0.66200  Biso   1.000  C
  H58      1.0000 0.79890  0.25250  0.60020  Biso   1.000  H
  C89      1.0000 0.69500  0.30920  0.84600  Biso   1.000  C
  H59      1.0000 0.70460  0.34050  0.90940  Biso   1.000  H
  C90      1.0000 0.61300  0.26910  0.84800  Biso   1.000  C
  H60      1.0000 0.56520  0.27450  0.90910  Biso   1.000  H
  C91      1.0000 0.39670  0.21980  0.74540  Biso   1.000  C
  C92      1.0000 0.24010  0.30310  0.74590  Biso   1.000  C
  C93      1.0000 0.36330  0.23650  0.86430  Biso   1.000  C
  H61      1.0000 0.39180  0.21980  0.94340  Biso   1.000  H
  C94      1.0000 0.28440  0.27980  0.86180  Biso   1.000  C
  H62      1.0000 0.26170  0.29290  0.94120  Biso   1.000  H
  C95      1.0000 0.27850  0.28590  0.62510  Biso   1.000  C
  H63      1.0000 0.25080  0.30290  0.54590  Biso   1.000  H
  C96      1.0000 0.35760  0.24360  0.62480  Biso   1.000  C
  H64      1.0000 0.38330  0.23170  0.54630  Biso   1.000  H
  C97      1.0000 0.15340  0.34750  0.74780  Biso   1.000  C
  C98      1.0000 0.13720  0.51730  0.69560  Biso   1.000  C
  C99      1.0000 0.22740  0.55930  0.70730  Biso   1.000  C
  C100     1.0000 0.26160  0.58200  0.83190  Biso   1.000  C
  H65      1.0000 0.22840  0.57180  0.90580  Biso   1.000  H
  C101     1.0000 0.34600  0.62010  0.84410  Biso   1.000  C
  H66      1.0000 0.36960  0.63580  0.92630  Biso   1.000  H
  C102     1.0000 0.39490  0.63460  0.73220  Biso   1.000  C
  C103     1.0000 0.36180  0.61170  0.60840  Biso   1.000  C
  H67      1.0000 0.39550  0.62150  0.53480  Biso   1.000  H
  C104     1.0000 0.27730  0.57370  0.59670  Biso   1.000  C
  H68      1.0000 0.25400  0.55780  0.51440  Biso   1.000  H
  Cd6      1.0000 0.98452  0.42697  0.58055  Biso   1.000  Cd
  O31      1.0000 0.11490  0.49060  0.79650  Biso   1.000  O
  O32      1.0000 0.09000  0.50950  0.58090  Biso   1.000  O
  O33      1.0000 0.12110  0.37100  0.63930  Biso   1.000  O
  O34      1.0000 0.11980  0.35680  0.85940  Biso   1.000  O
  O35      1.0000 0.49540  0.13380  0.62750  Biso   1.000  O
  O36      1.0000 0.49550  0.71830  0.87200  Biso   1.000  O
  C105     1.0000 0.32870  0.21450  0.84000  Biso   1.000  C
  H69      1.0000 0.33620  0.18340  0.90390  Biso   1.000  H
  C106     1.0000 0.24860  0.25630  0.83800  Biso   1.000  C
  H70      1.0000 0.20110  0.25250  0.89980  Biso   1.000  H
  C107     1.0000 0.30500  0.30920  0.65400  Biso   1.000  C
  H71      1.0000 0.29540  0.34050  0.59060  Biso   1.000  H
  C108     1.0000 0.38700  0.26910  0.65200  Biso   1.000  C
  H72      1.0000 0.43480  0.27450  0.59090  Biso   1.000  H
  C109     1.0000 0.39670  0.78020  0.24540  Biso   1.000  C
  C110     1.0000 0.24010  0.69690  0.24590  Biso   1.000  C
  C111     1.0000 0.36330  0.76350  0.36430  Biso   1.000  C
  H73      1.0000 0.39180  0.78020  0.44340  Biso   1.000  H
  C112     1.0000 0.28440  0.72020  0.36180  Biso   1.000  C
  H74      1.0000 0.26170  0.70710  0.44120  Biso   1.000  H
  C113     1.0000 0.27850  0.71410  0.12510  Biso   1.000  C
  H75      1.0000 0.25080  0.69710  0.04590  Biso   1.000  H
  C114     1.0000 0.35760  0.75640  0.12480  Biso   1.000  C
  H76      1.0000 0.38330  0.76830  0.04630  Biso   1.000  H
  C115     1.0000 0.15340  0.65250  0.24780  Biso   1.000  C
  C116     1.0000 0.13720  0.48270  0.19560  Biso   1.000  C
  C117     1.0000 0.22740  0.44070  0.20730  Biso   1.000  C
  C118     1.0000 0.26160  0.41800  0.33190  Biso   1.000  C
  H77      1.0000 0.22840  0.42820  0.40580  Biso   1.000  H
  C119     1.0000 0.34600  0.37990  0.34410  Biso   1.000  C
  H78      1.0000 0.36960  0.36420  0.42630  Biso   1.000  H
  C120     1.0000 0.39490  0.36540  0.23220  Biso   1.000  C
  C121     1.0000 0.36180  0.38830  0.10840  Biso   1.000  C
  H79      1.0000 0.39550  0.37850  0.03480  Biso   1.000  H
  C122     1.0000 0.27730  0.42630  0.09670  Biso   1.000  C
  H80      1.0000 0.25400  0.44220  0.01440  Biso   1.000  H
  Cd7      1.0000 0.98452  0.57303  0.08055  Biso   1.000  Cd
  O37      1.0000 0.11490  0.50940  0.29650  Biso   1.000  O
  O38      1.0000 0.09000  0.49050  0.08090  Biso   1.000  O
  O39      1.0000 0.12110  0.62900  0.13930  Biso   1.000  O
  O40      1.0000 0.11980  0.64320  0.35940  Biso   1.000  O
  O41      1.0000 0.49540  0.86620  0.12750  Biso   1.000  O
  O42      1.0000 0.49550  0.28170  0.37200  Biso   1.000  O
  C123     1.0000 0.32870  0.78550  0.34000  Biso   1.000  C
  H81      1.0000 0.33620  0.81660  0.40390  Biso   1.000  H
  C124     1.0000 0.24860  0.74370  0.33800  Biso   1.000  C
  H82      1.0000 0.20110  0.74750  0.39980  Biso   1.000  H
  C125     1.0000 0.30500  0.69080  0.15400  Biso   1.000  C
  H83      1.0000 0.29540  0.65950  0.09060  Biso   1.000  H
  C126     1.0000 0.38700  0.73090  0.15200  Biso   1.000  C
  H84      1.0000 0.43480  0.72550  0.09090  Biso   1.000  H
  C127     1.0000 0.60330  0.78020  0.25460  Biso   1.000  C
  C128     1.0000 0.75990  0.69690  0.25410  Biso   1.000  C
  C129     1.0000 0.63670  0.76350  0.13570  Biso   1.000  C
  H85      1.0000 0.60820  0.78020  0.05660  Biso   1.000  H
  C130     1.0000 0.71560  0.72020  0.13820  Biso   1.000  C
  H86      1.0000 0.73830  0.70710  0.05880  Biso   1.000  H
  C131     1.0000 0.72150  0.71410  0.37490  Biso   1.000  C
  H87      1.0000 0.74920  0.69710  0.45410  Biso   1.000  H
  C132     1.0000 0.64240  0.75640  0.37520  Biso   1.000  C
  H88      1.0000 0.61670  0.76830  0.45370  Biso   1.000  H
  C133     1.0000 0.84660  0.65250  0.25220  Biso   1.000  C
  C134     1.0000 0.86280  0.48270  0.30440  Biso   1.000  C
  C135     1.0000 0.77260  0.44070  0.29270  Biso   1.000  C
  C136     1.0000 0.73840  0.41800  0.16810  Biso   1.000  C
  H89      1.0000 0.77160  0.42820  0.09420  Biso   1.000  H
  C137     1.0000 0.65400  0.37990  0.15590  Biso   1.000  C
  H90      1.0000 0.63040  0.36420  0.07370  Biso   1.000  H
  C138     1.0000 0.60510  0.36540  0.26780  Biso   1.000  C
  C139     1.0000 0.63820  0.38830  0.39160  Biso   1.000  C
  H91      1.0000 0.60450  0.37850  0.46520  Biso   1.000  H
  C140     1.0000 0.72270  0.42630  0.40330  Biso   1.000  C
  H92      1.0000 0.74600  0.44220  0.48560  Biso   1.000  H
  Cd8      1.0000 0.01548  0.57303  0.41945  Biso   1.000  Cd
  O43      1.0000 0.88510  0.50940  0.20350  Biso   1.000  O
  O44      1.0000 0.91000  0.49050  0.41910  Biso   1.000  O
  O45      1.0000 0.87890  0.62900  0.36070  Biso   1.000  O
  O46      1.0000 0.88020  0.64320  0.14060  Biso   1.000  O
  O47      1.0000 0.50460  0.86620  0.37250  Biso   1.000  O
  O48      1.0000 0.50450  0.28170  0.12800  Biso   1.000  O
  C141     1.0000 0.67130  0.78550  0.16000  Biso   1.000  C
  H93      1.0000 0.66380  0.81660  0.09610  Biso   1.000  H
  C142     1.0000 0.75140  0.74370  0.16200  Biso   1.000  C
  H94      1.0000 0.79890  0.74750  0.10020  Biso   1.000  H
  C143     1.0000 0.69500  0.69080  0.34600  Biso   1.000  C
  H95      1.0000 0.70460  0.65950  0.40940  Biso   1.000  H
  C144     1.0000 0.61300  0.73090  0.34800  Biso   1.000  C
  H96      1.0000 0.56520  0.72550  0.40910  Biso   1.000  H
  S5       1.0000 0.50000  0.16852  0.75000  Biso   1.000  S
  S6       1.0000 0.50000  0.68504  0.75000  Biso   1.000  S
  S7       1.0000 0.50000  0.83148  0.25000  Biso   1.000  S
  S8       1.0000 0.50000  0.31496  0.25000  Biso   1.000  S
