data_image0
_cell_length_a       12.295
_cell_length_b       30.7547
_cell_length_c       24.7649
_cell_angle_alpha    90
_cell_angle_beta     97.53
_cell_angle_gamma    90

_symmetry_space_group_name_H-M    "P 1"
_symmetry_int_tables_number       1

loop_
  _symmetry_equiv_pos_as_xyz
  'x, y, z'

loop_
  _atom_site_label
  _atom_site_occupancy
  _atom_site_fract_x
  _atom_site_fract_y
  _atom_site_fract_z
  _atom_site_thermal_displace_type
  _atom_site_B_iso_or_equiv
  _atom_site_type_symbol
  Zn1      1.0000 0.58151  0.26267  0.20692  Biso   1.000  Zn
  Zn2      1.0000 0.37930  0.27096  0.25387  Biso   1.000  Zn
  Zn3      1.0000 0.78026  0.14301  0.06244  Biso   1.000  Zn
  Zn4      1.0000 0.68886  0.12964  0.92093  Biso   1.000  Zn
  N1       1.0000 0.71960  0.25248  0.16870  Biso   1.000  N
  N2       1.0000 0.80060  0.20387  0.10620  Biso   1.000  N
  N3       1.0000 0.91880  0.24150  0.17950  Biso   1.000  N
  N4       1.0000 0.82740  0.28251  0.10190  Biso   1.000  N
  C1       1.0000 0.70640  0.21190  0.13660  Biso   1.000  C
  H1       1.0000 0.63830  0.21360  0.11050  Biso   1.000  H
  H2       1.0000 0.69890  0.18710  0.16130  Biso   1.000  H
  C2       1.0000 0.82440  0.24850  0.20790  Biso   1.000  C
  H3       1.0000 0.83540  0.27530  0.23000  Biso   1.000  H
  H4       1.0000 0.81760  0.22380  0.23300  Biso   1.000  H
  C3       1.0000 0.73380  0.28940  0.13150  Biso   1.000  C
  H5       1.0000 0.66640  0.29270  0.10520  Biso   1.000  H
  H6       1.0000 0.74480  0.31650  0.15300  Biso   1.000  H
  C4       1.0000 0.90160  0.20130  0.14770  Biso   1.000  C
  H7       1.0000 0.89420  0.17660  0.17260  Biso   1.000  H
  H8       1.0000 0.96640  0.19570  0.12880  Biso   1.000  H
  C5       1.0000 0.92660  0.27750  0.14230  Biso   1.000  C
  H9       1.0000 0.99100  0.27300  0.12280  Biso   1.000  H
  H10      1.0000 0.93860  0.30470  0.16360  Biso   1.000  H
  C6       1.0000 0.81210  0.24200  0.07060  Biso   1.000  C
  H11      1.0000 0.87590  0.23740  0.05060  Biso   1.000  H
  H12      1.0000 0.74570  0.24450  0.04350  Biso   1.000  H
  N5       1.0000 0.24080  0.27765  0.29200  Biso   1.000  N
  N6       1.0000 0.16400  0.31662  0.36430  Biso   1.000  N
  N7       1.0000 0.13600  0.23820  0.35360  Biso   1.000  N
  N8       1.0000 0.04250  0.28800  0.28630  Biso   1.000  N
  C7       1.0000 0.25700  0.31370  0.33220  Biso   1.000  C
  H13      1.0000 0.32570  0.30880  0.35710  Biso   1.000  H
  H14      1.0000 0.26420  0.34150  0.31290  Biso   1.000  H
  C8       1.0000 0.13590  0.28580  0.25510  Biso   1.000  C
  H15      1.0000 0.14160  0.31340  0.23530  Biso   1.000  H
  H16      1.0000 0.12370  0.26210  0.22790  Biso   1.000  H
  C9       1.0000 0.22890  0.23630  0.32230  Biso   1.000  C
  H17      1.0000 0.21820  0.21190  0.29610  Biso   1.000  H
  H18      1.0000 0.29700  0.23080  0.34730  Biso   1.000  H
  C10      1.0000 0.15460  0.27390  0.39230  Biso   1.000  C
  H19      1.0000 0.22280  0.26840  0.41740  Biso   1.000  H
  H20      1.0000 0.09300  0.27530  0.41440  Biso   1.000  H
  C11      1.0000 0.03670  0.24730  0.31560  Biso   1.000  C
  H21      1.0000 0.02440  0.22320  0.28900  Biso   1.000  H
  H22      1.0000 0.97300  0.24830  0.33630  Biso   1.000  H
  C12      1.0000 0.06150  0.32350  0.32620  Biso   1.000  C
  H23      1.0000 0.99850  0.32540  0.34720  Biso   1.000  H
  H24      1.0000 0.06660  0.35140  0.30670  Biso   1.000  H
  O1       1.0000 0.52890  0.19973  0.20930  Biso   1.000  O
  O2       1.0000 0.36120  0.20706  0.23440  Biso   1.000  O
  C13      1.0000 0.43700  0.18560  0.21800  Biso   1.000  C
  C14      1.0000 0.41630  0.13820  0.20790  Biso   1.000  C
  C15      1.0000 0.49310  0.11300  0.18670  Biso   1.000  C
  H25      1.0000 0.56070  0.12580  0.18050  Biso   1.000  H
  C16      1.0000 0.47390  0.06890  0.17410  Biso   1.000  C
  C17      1.0000 0.55090  0.04330  0.15110  Biso   1.000  C
  H26      1.0000 0.61740  0.05610  0.14330  Biso   1.000  H
  C18      1.0000 0.53150  0.00090  0.14010  Biso   1.000  C
  H27      1.0000 0.58570  0.98380  0.12600  Biso   1.000  H
  C19      1.0000 0.43210  0.98160  0.14930  Biso   1.000  C
  C20      1.0000 0.35610  0.00530  0.17170  Biso   1.000  C
  H28      1.0000 0.28980  0.99200  0.17880  Biso   1.000  H
  C21      1.0000 0.37530  0.05000  0.18470  Biso   1.000  C
  C22      1.0000 0.29560  0.07630  0.20540  Biso   1.000  C
  H29      1.0000 0.22740  0.06400  0.21130  Biso   1.000  H
  C23      1.0000 0.31580  0.11920  0.21690  Biso   1.000  C
  H30      1.0000 0.26190  0.13630  0.23120  Biso   1.000  H
  C24      1.0000 0.41800  0.93610  0.12750  Biso   1.000  C
  O3       1.0000 0.32500  0.92100  0.12880  Biso   1.000  O
  O4       1.0000 0.49500  0.91510  0.11250  Biso   1.000  O
  O5       1.0000 0.63660  0.25657  0.28759  Biso   1.000  O
  O6       1.0000 0.48420  0.25300  0.32391  Biso   1.000  O
  C25      1.0000 0.58560  0.25230  0.32650  Biso   1.000  C
  C26      1.0000 0.65320  0.24650  0.38100  Biso   1.000  C
  C27      1.0000 0.76760  0.25300  0.38580  Biso   1.000  C
  H31      1.0000 0.80010  0.26090  0.35440  Biso   1.000  H
  C28      1.0000 0.83250  0.24840  0.43450  Biso   1.000  C
  H32      1.0000 0.90950  0.25280  0.43670  Biso   1.000  H
  C29      1.0000 0.78620  0.23710  0.48160  Biso   1.000  C
  C30      1.0000 0.85070  0.23330  0.53340  Biso   1.000  C
  H33      1.0000 0.92770  0.23790  0.53620  Biso   1.000  H
  C31      1.0000 0.80560  0.22320  0.57880  Biso   1.000  C
  C32      1.0000 0.69110  0.21400  0.57460  Biso   1.000  C
  H34      1.0000 0.65950  0.20560  0.60600  Biso   1.000  H
  C33      1.0000 0.62640  0.21730  0.52500  Biso   1.000  C
  H35      1.0000 0.55020  0.21130  0.52260  Biso   1.000  H
  C34      1.0000 0.67130  0.22940  0.47780  Biso   1.000  C
  C35      1.0000 0.60590  0.23480  0.42630  Biso   1.000  C
  H36      1.0000 0.52890  0.23020  0.42320  Biso   1.000  H
  C36      1.0000 0.87290  0.22290  0.63450  Biso   1.000  C
  O7       1.0000 0.82230  0.21533  0.67482  Biso   1.000  O
  O8       1.0000 0.97410  0.23083  0.63720  Biso   1.000  O
  O9       1.0000 0.59350  0.32791  0.21953  Biso   1.000  O
  O10      1.0000 0.44640  0.33063  0.26400  Biso   1.000  O
  C37      1.0000 0.53260  0.34650  0.24900  Biso   1.000  C
  C38      1.0000 0.56200  0.39180  0.26880  Biso   1.000  C
  C39      1.0000 0.66560  0.40970  0.26140  Biso   1.000  C
  H37      1.0000 0.71620  0.39330  0.24370  Biso   1.000  H
  C40      1.0000 0.69180  0.45080  0.27990  Biso   1.000  C
  H38      1.0000 0.76050  0.46290  0.27430  Biso   1.000  H
  C41      1.0000 0.62030  0.47530  0.30680  Biso   1.000  C
  C42      1.0000 0.64440  0.51730  0.32690  Biso   1.000  C
  H39      1.0000 0.71190  0.53020  0.32080  Biso   1.000  H
  C43      1.0000 0.57580  0.54040  0.35480  Biso   1.000  C
  C44      1.0000 0.47660  0.52140  0.36350  Biso   1.000  C
  H40      1.0000 0.42740  0.53710  0.38270  Biso   1.000  H
  C45      1.0000 0.44900  0.48080  0.34490  Biso   1.000  C
  H41      1.0000 0.38130  0.46840  0.35170  Biso   1.000  H
  C46      1.0000 0.51960  0.45680  0.31580  Biso   1.000  C
  C47      1.0000 0.49260  0.41470  0.29580  Biso   1.000  C
  H42      1.0000 0.42420  0.40230  0.30130  Biso   1.000  H
  C48      1.0000 0.60390  0.58370  0.38090  Biso   1.000  C
  O11      1.0000 0.52260  0.60420  0.39680  Biso   1.000  O
  O12      1.0000 0.69780  0.59590  0.38340  Biso   1.000  O
  O13      1.0000 0.87050  0.16596  0.00920  Biso   1.000  O
  O14      1.0000 0.85000  0.13515  0.92695  Biso   1.000  O
  C49      1.0000 0.90690  0.14980  0.96800  Biso   1.000  C
  C50      1.0000 0.02830  0.14860  0.96800  Biso   1.000  C
  C51      1.0000 0.09780  0.15420  0.01580  Biso   1.000  C
  H43      1.0000 0.06840  0.15910  0.04880  Biso   1.000  H
  C52      1.0000 0.21200  0.15250  0.01580  Biso   1.000  C
  C53      1.0000 0.28530  0.15810  0.06440  Biso   1.000  C
  H44      1.0000 0.25730  0.16240  0.09800  Biso   1.000  H
  C54      1.0000 0.39570  0.15720  0.06330  Biso   1.000  C
  H45      1.0000 0.44410  0.16070  0.09610  Biso   1.000  H
  C55      1.0000 0.43890  0.15110  0.01360  Biso   1.000  C
  C56      1.0000 0.37030  0.14460  0.96610  Biso   1.000  C
  H46      1.0000 0.40020  0.13970  0.93320  Biso   1.000  H
  C57      1.0000 0.25430  0.14510  0.96580  Biso   1.000  C
  C58      1.0000 0.18160  0.13880  0.91730  Biso   1.000  C
  H47      1.0000 0.20950  0.13330  0.88390  Biso   1.000  H
  C59      1.0000 0.07090  0.14060  0.91870  Biso   1.000  C
  H48      1.0000 0.02210  0.13640  0.88610  Biso   1.000  H
  C60      1.0000 0.55930  0.15150  0.01150  Biso   1.000  C
  O15      1.0000 0.59560  0.15999  0.96850  Biso   1.000  O
  O16      1.0000 0.61900  0.14480  0.05700  Biso   1.000  O
  C61      1.0000 0.38800  0.93670  0.13300  Biso   1.000  C
  O17      1.0000 0.30100  0.92010  0.14500  Biso   1.000  O
  O18      1.0000 0.43000  0.91350  0.10010  Biso   1.000  O
  C62      1.0000 0.63300  0.58260  0.37400  Biso   1.000  C
  O19      1.0000 0.58700  0.60510  0.40590  Biso   1.000  O
  O20      1.0000 0.71600  0.60160  0.35720  Biso   1.000  O
  Zn5      1.0000 0.91849  0.76267  0.29308  Biso   1.000  Zn
  Zn6      1.0000 0.12070  0.77096  0.24613  Biso   1.000  Zn
  Zn7      1.0000 0.71974  0.64301  0.43756  Biso   1.000  Zn
  Zn8      1.0000 0.81114  0.62964  0.57907  Biso   1.000  Zn
  N9       1.0000 0.78040  0.75248  0.33130  Biso   1.000  N
  N10      1.0000 0.69940  0.70387  0.39380  Biso   1.000  N
  N11      1.0000 0.58120  0.74150  0.32050  Biso   1.000  N
  N12      1.0000 0.67260  0.78251  0.39810  Biso   1.000  N
  C63      1.0000 0.79360  0.71190  0.36340  Biso   1.000  C
  H49      1.0000 0.86170  0.71360  0.38950  Biso   1.000  H
  H50      1.0000 0.80110  0.68710  0.33870  Biso   1.000  H
  C64      1.0000 0.67560  0.74850  0.29210  Biso   1.000  C
  H51      1.0000 0.66460  0.77530  0.27000  Biso   1.000  H
  H52      1.0000 0.68240  0.72380  0.26700  Biso   1.000  H
  C65      1.0000 0.76620  0.78940  0.36850  Biso   1.000  C
  H53      1.0000 0.83360  0.79270  0.39480  Biso   1.000  H
  H54      1.0000 0.75520  0.81650  0.34700  Biso   1.000  H
  C66      1.0000 0.59840  0.70130  0.35230  Biso   1.000  C
  H55      1.0000 0.60580  0.67660  0.32740  Biso   1.000  H
  H56      1.0000 0.53360  0.69570  0.37120  Biso   1.000  H
  C67      1.0000 0.57340  0.77750  0.35770  Biso   1.000  C
  H57      1.0000 0.50900  0.77300  0.37720  Biso   1.000  H
  H58      1.0000 0.56140  0.80470  0.33640  Biso   1.000  H
  C68      1.0000 0.68790  0.74200  0.42940  Biso   1.000  C
  H59      1.0000 0.62410  0.73740  0.44940  Biso   1.000  H
  H60      1.0000 0.75430  0.74450  0.45650  Biso   1.000  H
  N13      1.0000 0.25920  0.77765  0.20800  Biso   1.000  N
  N14      1.0000 0.33600  0.81662  0.13570  Biso   1.000  N
  N15      1.0000 0.36400  0.73820  0.14640  Biso   1.000  N
  N16      1.0000 0.45750  0.78800  0.21370  Biso   1.000  N
  C69      1.0000 0.24300  0.81370  0.16780  Biso   1.000  C
  H61      1.0000 0.17430  0.80880  0.14290  Biso   1.000  H
  H62      1.0000 0.23580  0.84150  0.18710  Biso   1.000  H
  C70      1.0000 0.36410  0.78580  0.24490  Biso   1.000  C
  H63      1.0000 0.35840  0.81340  0.26470  Biso   1.000  H
  H64      1.0000 0.37630  0.76210  0.27210  Biso   1.000  H
  C71      1.0000 0.27110  0.73630  0.17770  Biso   1.000  C
  H65      1.0000 0.28180  0.71190  0.20390  Biso   1.000  H
  H66      1.0000 0.20300  0.73080  0.15270  Biso   1.000  H
  C72      1.0000 0.34540  0.77390  0.10770  Biso   1.000  C
  H67      1.0000 0.27720  0.76840  0.08260  Biso   1.000  H
  H68      1.0000 0.40700  0.77530  0.08560  Biso   1.000  H
  C73      1.0000 0.46330  0.74730  0.18440  Biso   1.000  C
  H69      1.0000 0.47560  0.72320  0.21100  Biso   1.000  H
  H70      1.0000 0.52700  0.74830  0.16370  Biso   1.000  H
  C74      1.0000 0.43850  0.82350  0.17380  Biso   1.000  C
  H71      1.0000 0.50150  0.82540  0.15280  Biso   1.000  H
  H72      1.0000 0.43340  0.85140  0.19330  Biso   1.000  H
  O21      1.0000 0.97110  0.69973  0.29070  Biso   1.000  O
  O22      1.0000 0.13880  0.70706  0.26560  Biso   1.000  O
  C75      1.0000 0.06300  0.68560  0.28200  Biso   1.000  C
  C76      1.0000 0.08370  0.63820  0.29210  Biso   1.000  C
  C77      1.0000 0.00690  0.61300  0.31330  Biso   1.000  C
  H73      1.0000 0.93930  0.62580  0.31950  Biso   1.000  H
  C78      1.0000 0.02610  0.56890  0.32590  Biso   1.000  C
  C79      1.0000 0.94910  0.54330  0.34890  Biso   1.000  C
  H74      1.0000 0.88260  0.55610  0.35670  Biso   1.000  H
  C80      1.0000 0.96850  0.50090  0.35990  Biso   1.000  C
  H75      1.0000 0.91430  0.48380  0.37400  Biso   1.000  H
  C81      1.0000 0.06790  0.48160  0.35070  Biso   1.000  C
  C82      1.0000 0.14390  0.50530  0.32830  Biso   1.000  C
  H76      1.0000 0.21020  0.49200  0.32120  Biso   1.000  H
  C83      1.0000 0.12470  0.55000  0.31530  Biso   1.000  C
  C84      1.0000 0.20440  0.57630  0.29460  Biso   1.000  C
  H77      1.0000 0.27260  0.56400  0.28870  Biso   1.000  H
  C85      1.0000 0.18420  0.61920  0.28310  Biso   1.000  C
  H78      1.0000 0.23810  0.63630  0.26880  Biso   1.000  H
  C86      1.0000 0.08200  0.43610  0.37250  Biso   1.000  C
  O23      1.0000 0.17500  0.42100  0.37120  Biso   1.000  O
  O24      1.0000 0.00500  0.41510  0.38750  Biso   1.000  O
  O25      1.0000 0.86340  0.75657  0.21241  Biso   1.000  O
  O26      1.0000 0.01580  0.75300  0.17609  Biso   1.000  O
  C87      1.0000 0.91440  0.75230  0.17350  Biso   1.000  C
  C88      1.0000 0.84680  0.74650  0.11900  Biso   1.000  C
  C89      1.0000 0.73240  0.75300  0.11420  Biso   1.000  C
  H79      1.0000 0.69990  0.76090  0.14560  Biso   1.000  H
  C90      1.0000 0.66750  0.74840  0.06550  Biso   1.000  C
  H80      1.0000 0.59050  0.75280  0.06330  Biso   1.000  H
  C91      1.0000 0.71380  0.73710  0.01840  Biso   1.000  C
  C92      1.0000 0.64930  0.73330  0.96660  Biso   1.000  C
  H81      1.0000 0.57230  0.73790  0.96380  Biso   1.000  H
  C93      1.0000 0.69440  0.72320  0.92120  Biso   1.000  C
  C94      1.0000 0.80890  0.71400  0.92540  Biso   1.000  C
  H82      1.0000 0.84050  0.70560  0.89400  Biso   1.000  H
  C95      1.0000 0.87360  0.71730  0.97500  Biso   1.000  C
  H83      1.0000 0.94980  0.71130  0.97740  Biso   1.000  H
  C96      1.0000 0.82870  0.72940  0.02220  Biso   1.000  C
  C97      1.0000 0.89410  0.73480  0.07370  Biso   1.000  C
  H84      1.0000 0.97110  0.73020  0.07680  Biso   1.000  H
  C98      1.0000 0.62710  0.72290  0.86550  Biso   1.000  C
  O27      1.0000 0.67770  0.71533  0.82518  Biso   1.000  O
  O28      1.0000 0.52590  0.73083  0.86280  Biso   1.000  O
  O29      1.0000 0.90650  0.82791  0.28047  Biso   1.000  O
  O30      1.0000 0.05360  0.83063  0.23600  Biso   1.000  O
  C99      1.0000 0.96740  0.84650  0.25100  Biso   1.000  C
  C100     1.0000 0.93800  0.89180  0.23120  Biso   1.000  C
  C101     1.0000 0.83440  0.90970  0.23860  Biso   1.000  C
  H85      1.0000 0.78380  0.89330  0.25630  Biso   1.000  H
  C102     1.0000 0.80820  0.95080  0.22010  Biso   1.000  C
  H86      1.0000 0.73950  0.96290  0.22570  Biso   1.000  H
  C103     1.0000 0.87970  0.97530  0.19320  Biso   1.000  C
  C104     1.0000 0.85560  0.01730  0.17310  Biso   1.000  C
  H87      1.0000 0.78810  0.03020  0.17920  Biso   1.000  H
  C105     1.0000 0.92420  0.04040  0.14520  Biso   1.000  C
  C106     1.0000 0.02340  0.02140  0.13650  Biso   1.000  C
  H88      1.0000 0.07260  0.03710  0.11730  Biso   1.000  H
  C107     1.0000 0.05100  0.98080  0.15510  Biso   1.000  C
  H89      1.0000 0.11870  0.96840  0.14830  Biso   1.000  H
  C108     1.0000 0.98040  0.95680  0.18420  Biso   1.000  C
  C109     1.0000 0.00740  0.91470  0.20420  Biso   1.000  C
  H90      1.0000 0.07580  0.90230  0.19870  Biso   1.000  H
  C110     1.0000 0.89610  0.08370  0.11910  Biso   1.000  C
  O31      1.0000 0.97740  0.10420  0.10320  Biso   1.000  O
  O32      1.0000 0.80220  0.09590  0.11660  Biso   1.000  O
  O33      1.0000 0.62950  0.66596  0.49080  Biso   1.000  O
  O34      1.0000 0.65000  0.63515  0.57305  Biso   1.000  O
  C111     1.0000 0.59310  0.64980  0.53200  Biso   1.000  C
  C112     1.0000 0.47170  0.64860  0.53200  Biso   1.000  C
  C113     1.0000 0.40220  0.65420  0.48420  Biso   1.000  C
  H91      1.0000 0.43160  0.65910  0.45120  Biso   1.000  H
  C114     1.0000 0.28800  0.65250  0.48420  Biso   1.000  C
  C115     1.0000 0.21470  0.65810  0.43560  Biso   1.000  C
  H92      1.0000 0.24270  0.66240  0.40200  Biso   1.000  H
  C116     1.0000 0.10430  0.65720  0.43670  Biso   1.000  C
  H93      1.0000 0.05590  0.66070  0.40390  Biso   1.000  H
  C117     1.0000 0.06110  0.65110  0.48640  Biso   1.000  C
  C118     1.0000 0.12970  0.64460  0.53390  Biso   1.000  C
  H94      1.0000 0.09980  0.63970  0.56680  Biso   1.000  H
  C119     1.0000 0.24570  0.64510  0.53420  Biso   1.000  C
  C120     1.0000 0.31840  0.63880  0.58270  Biso   1.000  C
  H95      1.0000 0.29050  0.63330  0.61610  Biso   1.000  H
  C121     1.0000 0.42910  0.64060  0.58130  Biso   1.000  C
  H96      1.0000 0.47790  0.63640  0.61390  Biso   1.000  H
  C122     1.0000 0.94070  0.65150  0.48850  Biso   1.000  C
  O35      1.0000 0.90440  0.65999  0.53150  Biso   1.000  O
  O36      1.0000 0.88100  0.64480  0.44300  Biso   1.000  O
  C123     1.0000 0.11200  0.43670  0.36700  Biso   1.000  C
  O37      1.0000 0.19900  0.42010  0.35500  Biso   1.000  O
  O38      1.0000 0.07000  0.41350  0.39990  Biso   1.000  O
  C124     1.0000 0.86700  0.08260  0.12600  Biso   1.000  C
  O39      1.0000 0.91300  0.10510  0.09410  Biso   1.000  O
  O40      1.0000 0.78400  0.10160  0.14280  Biso   1.000  O
  Zn9      1.0000 0.41849  0.73733  0.79308  Biso   1.000  Zn
  Zn10     1.0000 0.62070  0.72904  0.74613  Biso   1.000  Zn
  Zn11     1.0000 0.21974  0.85699  0.93756  Biso   1.000  Zn
  Zn12     1.0000 0.31114  0.87036  0.07907  Biso   1.000  Zn
  N17      1.0000 0.28040  0.74752  0.83130  Biso   1.000  N
  N18      1.0000 0.19940  0.79613  0.89380  Biso   1.000  N
  N19      1.0000 0.08120  0.75850  0.82050  Biso   1.000  N
  N20      1.0000 0.17260  0.71749  0.89810  Biso   1.000  N
  C125     1.0000 0.29360  0.78810  0.86340  Biso   1.000  C
  H97      1.0000 0.36170  0.78640  0.88950  Biso   1.000  H
  H98      1.0000 0.30110  0.81290  0.83870  Biso   1.000  H
  C126     1.0000 0.17560  0.75150  0.79210  Biso   1.000  C
  H99      1.0000 0.16460  0.72470  0.77000  Biso   1.000  H
  H100     1.0000 0.18240  0.77620  0.76700  Biso   1.000  H
  C127     1.0000 0.26620  0.71060  0.86850  Biso   1.000  C
  H101     1.0000 0.33360  0.70730  0.89480  Biso   1.000  H
  H102     1.0000 0.25520  0.68350  0.84700  Biso   1.000  H
  C128     1.0000 0.09840  0.79870  0.85230  Biso   1.000  C
  H103     1.0000 0.10580  0.82340  0.82740  Biso   1.000  H
  H104     1.0000 0.03360  0.80430  0.87120  Biso   1.000  H
  C129     1.0000 0.07340  0.72250  0.85770  Biso   1.000  C
  H105     1.0000 0.00900  0.72700  0.87720  Biso   1.000  H
  H106     1.0000 0.06140  0.69530  0.83640  Biso   1.000  H
  C130     1.0000 0.18790  0.75800  0.92940  Biso   1.000  C
  H107     1.0000 0.12410  0.76260  0.94940  Biso   1.000  H
  H108     1.0000 0.25430  0.75550  0.95650  Biso   1.000  H
  N21      1.0000 0.75920  0.72235  0.70800  Biso   1.000  N
  N22      1.0000 0.83600  0.68338  0.63570  Biso   1.000  N
  N23      1.0000 0.86400  0.76180  0.64640  Biso   1.000  N
  N24      1.0000 0.95750  0.71200  0.71370  Biso   1.000  N
  C131     1.0000 0.74300  0.68630  0.66780  Biso   1.000  C
  H109     1.0000 0.67430  0.69120  0.64290  Biso   1.000  H
  H110     1.0000 0.73580  0.65850  0.68710  Biso   1.000  H
  C132     1.0000 0.86410  0.71420  0.74490  Biso   1.000  C
  H111     1.0000 0.85840  0.68660  0.76470  Biso   1.000  H
  H112     1.0000 0.87630  0.73790  0.77210  Biso   1.000  H
  C133     1.0000 0.77110  0.76370  0.67770  Biso   1.000  C
  H113     1.0000 0.78180  0.78810  0.70390  Biso   1.000  H
  H114     1.0000 0.70300  0.76920  0.65270  Biso   1.000  H
  C134     1.0000 0.84540  0.72610  0.60770  Biso   1.000  C
  H115     1.0000 0.77720  0.73160  0.58260  Biso   1.000  H
  H116     1.0000 0.90700  0.72470  0.58560  Biso   1.000  H
  C135     1.0000 0.96330  0.75270  0.68440  Biso   1.000  C
  H117     1.0000 0.97560  0.77680  0.71100  Biso   1.000  H
  H118     1.0000 0.02700  0.75170  0.66370  Biso   1.000  H
  C136     1.0000 0.93850  0.67650  0.67380  Biso   1.000  C
  H119     1.0000 0.00150  0.67460  0.65280  Biso   1.000  H
  H120     1.0000 0.93340  0.64860  0.69330  Biso   1.000  H
  O41      1.0000 0.47110  0.80027  0.79070  Biso   1.000  O
  O42      1.0000 0.63880  0.79294  0.76560  Biso   1.000  O
  C137     1.0000 0.56300  0.81440  0.78200  Biso   1.000  C
  C138     1.0000 0.58370  0.86180  0.79210  Biso   1.000  C
  C139     1.0000 0.50690  0.88700  0.81330  Biso   1.000  C
  H121     1.0000 0.43930  0.87420  0.81950  Biso   1.000  H
  C140     1.0000 0.52610  0.93110  0.82590  Biso   1.000  C
  C141     1.0000 0.44910  0.95670  0.84890  Biso   1.000  C
  H122     1.0000 0.38260  0.94390  0.85670  Biso   1.000  H
  C142     1.0000 0.46850  0.99910  0.85990  Biso   1.000  C
  H123     1.0000 0.41430  0.01620  0.87400  Biso   1.000  H
  C143     1.0000 0.56790  0.01840  0.85070  Biso   1.000  C
  C144     1.0000 0.64390  0.99470  0.82830  Biso   1.000  C
  H124     1.0000 0.71020  0.00800  0.82120  Biso   1.000  H
  C145     1.0000 0.62470  0.95000  0.81530  Biso   1.000  C
  C146     1.0000 0.70440  0.92370  0.79460  Biso   1.000  C
  H125     1.0000 0.77260  0.93600  0.78870  Biso   1.000  H
  C147     1.0000 0.68420  0.88080  0.78310  Biso   1.000  C
  H126     1.0000 0.73810  0.86370  0.76880  Biso   1.000  H
  C148     1.0000 0.58200  0.06390  0.87250  Biso   1.000  C
  O43      1.0000 0.67500  0.07900  0.87120  Biso   1.000  O
  O44      1.0000 0.50500  0.08490  0.88750  Biso   1.000  O
  O45      1.0000 0.36340  0.74343  0.71241  Biso   1.000  O
  O46      1.0000 0.51580  0.74700  0.67609  Biso   1.000  O
  C149     1.0000 0.41440  0.74770  0.67350  Biso   1.000  C
  C150     1.0000 0.34680  0.75350  0.61900  Biso   1.000  C
  C151     1.0000 0.23240  0.74700  0.61420  Biso   1.000  C
  H127     1.0000 0.19990  0.73910  0.64560  Biso   1.000  H
  C152     1.0000 0.16750  0.75160  0.56550  Biso   1.000  C
  H128     1.0000 0.09050  0.74720  0.56330  Biso   1.000  H
  C153     1.0000 0.21380  0.76290  0.51840  Biso   1.000  C
  C154     1.0000 0.14930  0.76670  0.46660  Biso   1.000  C
  H129     1.0000 0.07230  0.76210  0.46380  Biso   1.000  H
  C155     1.0000 0.19440  0.77680  0.42120  Biso   1.000  C
  C156     1.0000 0.30890  0.78600  0.42540  Biso   1.000  C
  H130     1.0000 0.34050  0.79440  0.39400  Biso   1.000  H
  C157     1.0000 0.37360  0.78270  0.47500  Biso   1.000  C
  H131     1.0000 0.44980  0.78870  0.47740  Biso   1.000  H
  C158     1.0000 0.32870  0.77060  0.52220  Biso   1.000  C
  C159     1.0000 0.39410  0.76520  0.57370  Biso   1.000  C
  H132     1.0000 0.47110  0.76980  0.57680  Biso   1.000  H
  C160     1.0000 0.12710  0.77710  0.36550  Biso   1.000  C
  O47      1.0000 0.17770  0.78467  0.32518  Biso   1.000  O
  O48      1.0000 0.02590  0.76917  0.36280  Biso   1.000  O
  O49      1.0000 0.40650  0.67209  0.78047  Biso   1.000  O
  O50      1.0000 0.55360  0.66937  0.73600  Biso   1.000  O
  C161     1.0000 0.46740  0.65350  0.75100  Biso   1.000  C
  C162     1.0000 0.43800  0.60820  0.73120  Biso   1.000  C
  C163     1.0000 0.33440  0.59030  0.73860  Biso   1.000  C
  H133     1.0000 0.28380  0.60670  0.75630  Biso   1.000  H
  C164     1.0000 0.30820  0.54920  0.72010  Biso   1.000  C
  H134     1.0000 0.23950  0.53710  0.72570  Biso   1.000  H
  C165     1.0000 0.37970  0.52470  0.69320  Biso   1.000  C
  C166     1.0000 0.35560  0.48270  0.67310  Biso   1.000  C
  H135     1.0000 0.28810  0.46980  0.67920  Biso   1.000  H
  C167     1.0000 0.42420  0.45960  0.64520  Biso   1.000  C
  C168     1.0000 0.52340  0.47860  0.63650  Biso   1.000  C
  H136     1.0000 0.57260  0.46290  0.61730  Biso   1.000  H
  C169     1.0000 0.55100  0.51920  0.65510  Biso   1.000  C
  H137     1.0000 0.61870  0.53160  0.64830  Biso   1.000  H
  C170     1.0000 0.48040  0.54320  0.68420  Biso   1.000  C
  C171     1.0000 0.50740  0.58530  0.70420  Biso   1.000  C
  H138     1.0000 0.57580  0.59770  0.69870  Biso   1.000  H
  C172     1.0000 0.39610  0.41630  0.61910  Biso   1.000  C
  O51      1.0000 0.47740  0.39580  0.60320  Biso   1.000  O
  O52      1.0000 0.30220  0.40410  0.61660  Biso   1.000  O
  O53      1.0000 0.12950  0.83404  0.99080  Biso   1.000  O
  O54      1.0000 0.15000  0.86485  0.07305  Biso   1.000  O
  C173     1.0000 0.09310  0.85020  0.03200  Biso   1.000  C
  C174     1.0000 0.97170  0.85140  0.03200  Biso   1.000  C
  C175     1.0000 0.90220  0.84580  0.98420  Biso   1.000  C
  H139     1.0000 0.93160  0.84090  0.95120  Biso   1.000  H
  C176     1.0000 0.78800  0.84750  0.98420  Biso   1.000  C
  C177     1.0000 0.71470  0.84190  0.93560  Biso   1.000  C
  H140     1.0000 0.74270  0.83760  0.90200  Biso   1.000  H
  C178     1.0000 0.60430  0.84280  0.93670  Biso   1.000  C
  H141     1.0000 0.55590  0.83930  0.90390  Biso   1.000  H
  C179     1.0000 0.56110  0.84890  0.98640  Biso   1.000  C
  C180     1.0000 0.62970  0.85540  0.03390  Biso   1.000  C
  H142     1.0000 0.59980  0.86030  0.06680  Biso   1.000  H
  C181     1.0000 0.74570  0.85490  0.03420  Biso   1.000  C
  C182     1.0000 0.81840  0.86120  0.08270  Biso   1.000  C
  H143     1.0000 0.79050  0.86670  0.11610  Biso   1.000  H
  C183     1.0000 0.92910  0.85940  0.08130  Biso   1.000  C
  H144     1.0000 0.97790  0.86360  0.11390  Biso   1.000  H
  C184     1.0000 0.44070  0.84850  0.98850  Biso   1.000  C
  O55      1.0000 0.40440  0.84001  0.03150  Biso   1.000  O
  O56      1.0000 0.38100  0.85520  0.94300  Biso   1.000  O
  C185     1.0000 0.61200  0.06330  0.86700  Biso   1.000  C
  O57      1.0000 0.69900  0.07990  0.85500  Biso   1.000  O
  O58      1.0000 0.57000  0.08650  0.89990  Biso   1.000  O
  C186     1.0000 0.36700  0.41740  0.62600  Biso   1.000  C
  O59      1.0000 0.41300  0.39490  0.59410  Biso   1.000  O
  O60      1.0000 0.28400  0.39840  0.64280  Biso   1.000  O
  Zn13     1.0000 0.08151  0.23733  0.70692  Biso   1.000  Zn
  Zn14     1.0000 0.87930  0.22904  0.75387  Biso   1.000  Zn
  Zn15     1.0000 0.28026  0.35699  0.56244  Biso   1.000  Zn
  Zn16     1.0000 0.18886  0.37036  0.42093  Biso   1.000  Zn
  N25      1.0000 0.21960  0.24752  0.66870  Biso   1.000  N
  N26      1.0000 0.30060  0.29613  0.60620  Biso   1.000  N
  N27      1.0000 0.41880  0.25850  0.67950  Biso   1.000  N
  N28      1.0000 0.32740  0.21749  0.60190  Biso   1.000  N
  C187     1.0000 0.20640  0.28810  0.63660  Biso   1.000  C
  H145     1.0000 0.13830  0.28640  0.61050  Biso   1.000  H
  H146     1.0000 0.19890  0.31290  0.66130  Biso   1.000  H
  C188     1.0000 0.32440  0.25150  0.70790  Biso   1.000  C
  H147     1.0000 0.33540  0.22470  0.73000  Biso   1.000  H
  H148     1.0000 0.31760  0.27620  0.73300  Biso   1.000  H
  C189     1.0000 0.23380  0.21060  0.63150  Biso   1.000  C
  H149     1.0000 0.16640  0.20730  0.60520  Biso   1.000  H
  H150     1.0000 0.24480  0.18350  0.65300  Biso   1.000  H
  C190     1.0000 0.40160  0.29870  0.64770  Biso   1.000  C
  H151     1.0000 0.39420  0.32340  0.67260  Biso   1.000  H
  H152     1.0000 0.46640  0.30430  0.62880  Biso   1.000  H
  C191     1.0000 0.42660  0.22250  0.64230  Biso   1.000  C
  H153     1.0000 0.49100  0.22700  0.62280  Biso   1.000  H
  H154     1.0000 0.43860  0.19530  0.66360  Biso   1.000  H
  C192     1.0000 0.31210  0.25800  0.57060  Biso   1.000  C
  H155     1.0000 0.37590  0.26260  0.55060  Biso   1.000  H
  H156     1.0000 0.24570  0.25550  0.54350  Biso   1.000  H
  N29      1.0000 0.74080  0.22235  0.79200  Biso   1.000  N
  N30      1.0000 0.66400  0.18338  0.86430  Biso   1.000  N
  N31      1.0000 0.63600  0.26180  0.85360  Biso   1.000  N
  N32      1.0000 0.54250  0.21200  0.78630  Biso   1.000  N
  C193     1.0000 0.75700  0.18630  0.83220  Biso   1.000  C
  H157     1.0000 0.82570  0.19120  0.85710  Biso   1.000  H
  H158     1.0000 0.76420  0.15850  0.81290  Biso   1.000  H
  C194     1.0000 0.63590  0.21420  0.75510  Biso   1.000  C
  H159     1.0000 0.64160  0.18660  0.73530  Biso   1.000  H
  H160     1.0000 0.62370  0.23790  0.72790  Biso   1.000  H
  C195     1.0000 0.72890  0.26370  0.82230  Biso   1.000  C
  H161     1.0000 0.71820  0.28810  0.79610  Biso   1.000  H
  H162     1.0000 0.79700  0.26920  0.84730  Biso   1.000  H
  C196     1.0000 0.65460  0.22610  0.89230  Biso   1.000  C
  H163     1.0000 0.72280  0.23160  0.91740  Biso   1.000  H
  H164     1.0000 0.59300  0.22470  0.91440  Biso   1.000  H
  C197     1.0000 0.53670  0.25270  0.81560  Biso   1.000  C
  H165     1.0000 0.52440  0.27680  0.78900  Biso   1.000  H
  H166     1.0000 0.47300  0.25170  0.83630  Biso   1.000  H
  C198     1.0000 0.56150  0.17650  0.82620  Biso   1.000  C
  H167     1.0000 0.49850  0.17460  0.84720  Biso   1.000  H
  H168     1.0000 0.56660  0.14860  0.80670  Biso   1.000  H
  O61      1.0000 0.02890  0.30027  0.70930  Biso   1.000  O
  O62      1.0000 0.86120  0.29294  0.73440  Biso   1.000  O
  C199     1.0000 0.93700  0.31440  0.71800  Biso   1.000  C
  C200     1.0000 0.91630  0.36180  0.70790  Biso   1.000  C
  C201     1.0000 0.99310  0.38700  0.68670  Biso   1.000  C
  H169     1.0000 0.06070  0.37420  0.68050  Biso   1.000  H
  C202     1.0000 0.97390  0.43110  0.67410  Biso   1.000  C
  C203     1.0000 0.05090  0.45670  0.65110  Biso   1.000  C
  H170     1.0000 0.11740  0.44390  0.64330  Biso   1.000  H
  C204     1.0000 0.03150  0.49910  0.64010  Biso   1.000  C
  H171     1.0000 0.08570  0.51620  0.62600  Biso   1.000  H
  C205     1.0000 0.93210  0.51840  0.64930  Biso   1.000  C
  C206     1.0000 0.85610  0.49470  0.67170  Biso   1.000  C
  H172     1.0000 0.78980  0.50800  0.67880  Biso   1.000  H
  C207     1.0000 0.87530  0.45000  0.68470  Biso   1.000  C
  C208     1.0000 0.79560  0.42370  0.70540  Biso   1.000  C
  H173     1.0000 0.72740  0.43600  0.71130  Biso   1.000  H
  C209     1.0000 0.81580  0.38080  0.71690  Biso   1.000  C
  H174     1.0000 0.76190  0.36370  0.73120  Biso   1.000  H
  C210     1.0000 0.91800  0.56390  0.62750  Biso   1.000  C
  O63      1.0000 0.82500  0.57900  0.62880  Biso   1.000  O
  O64      1.0000 0.99500  0.58490  0.61250  Biso   1.000  O
  O65      1.0000 0.13660  0.24343  0.78759  Biso   1.000  O
  O66      1.0000 0.98420  0.24700  0.82391  Biso   1.000  O
  C211     1.0000 0.08560  0.24770  0.82650  Biso   1.000  C
  C212     1.0000 0.15320  0.25350  0.88100  Biso   1.000  C
  C213     1.0000 0.26760  0.24700  0.88580  Biso   1.000  C
  H175     1.0000 0.30010  0.23910  0.85440  Biso   1.000  H
  C214     1.0000 0.33250  0.25160  0.93450  Biso   1.000  C
  H176     1.0000 0.40950  0.24720  0.93670  Biso   1.000  H
  C215     1.0000 0.28620  0.26290  0.98160  Biso   1.000  C
  C216     1.0000 0.35070  0.26670  0.03340  Biso   1.000  C
  H177     1.0000 0.42770  0.26210  0.03620  Biso   1.000  H
  C217     1.0000 0.30560  0.27680  0.07880  Biso   1.000  C
  C218     1.0000 0.19110  0.28600  0.07460  Biso   1.000  C
  H178     1.0000 0.15950  0.29440  0.10600  Biso   1.000  H
  C219     1.0000 0.12640  0.28270  0.02500  Biso   1.000  C
  H179     1.0000 0.05020  0.28870  0.02260  Biso   1.000  H
  C220     1.0000 0.17130  0.27060  0.97780  Biso   1.000  C
  C221     1.0000 0.10590  0.26520  0.92630  Biso   1.000  C
  H180     1.0000 0.02890  0.26980  0.92320  Biso   1.000  H
  C222     1.0000 0.37290  0.27710  0.13450  Biso   1.000  C
  O67      1.0000 0.32230  0.28467  0.17482  Biso   1.000  O
  O68      1.0000 0.47410  0.26917  0.13720  Biso   1.000  O
  O69      1.0000 0.09350  0.17209  0.71953  Biso   1.000  O
  O70      1.0000 0.94640  0.16937  0.76400  Biso   1.000  O
  C223     1.0000 0.03260  0.15350  0.74900  Biso   1.000  C
  C224     1.0000 0.06200  0.10820  0.76880  Biso   1.000  C
  C225     1.0000 0.16560  0.09030  0.76140  Biso   1.000  C
  H181     1.0000 0.21620  0.10670  0.74370  Biso   1.000  H
  C226     1.0000 0.19180  0.04920  0.77990  Biso   1.000  C
  H182     1.0000 0.26050  0.03710  0.77430  Biso   1.000  H
  C227     1.0000 0.12030  0.02470  0.80680  Biso   1.000  C
  C228     1.0000 0.14440  0.98270  0.82690  Biso   1.000  C
  H183     1.0000 0.21190  0.96980  0.82080  Biso   1.000  H
  C229     1.0000 0.07580  0.95960  0.85480  Biso   1.000  C
  C230     1.0000 0.97660  0.97860  0.86350  Biso   1.000  C
  H184     1.0000 0.92740  0.96290  0.88270  Biso   1.000  H
  C231     1.0000 0.94900  0.01920  0.84490  Biso   1.000  C
  H185     1.0000 0.88130  0.03160  0.85170  Biso   1.000  H
  C232     1.0000 0.01960  0.04320  0.81580  Biso   1.000  C
  C233     1.0000 0.99260  0.08530  0.79580  Biso   1.000  C
  H186     1.0000 0.92420  0.09770  0.80130  Biso   1.000  H
  C234     1.0000 0.10390  0.91630  0.88090  Biso   1.000  C
  O71      1.0000 0.02260  0.89580  0.89680  Biso   1.000  O
  O72      1.0000 0.19780  0.90410  0.88340  Biso   1.000  O
  O73      1.0000 0.37050  0.33404  0.50920  Biso   1.000  O
  O74      1.0000 0.35000  0.36485  0.42695  Biso   1.000  O
  C235     1.0000 0.40690  0.35020  0.46800  Biso   1.000  C
  C236     1.0000 0.52830  0.35140  0.46800  Biso   1.000  C
  C237     1.0000 0.59780  0.34580  0.51580  Biso   1.000  C
  H187     1.0000 0.56840  0.34090  0.54880  Biso   1.000  H
  C238     1.0000 0.71200  0.34750  0.51580  Biso   1.000  C
  C239     1.0000 0.78530  0.34190  0.56440  Biso   1.000  C
  H188     1.0000 0.75730  0.33760  0.59800  Biso   1.000  H
  C240     1.0000 0.89570  0.34280  0.56330  Biso   1.000  C
  H189     1.0000 0.94410  0.33930  0.59610  Biso   1.000  H
  C241     1.0000 0.93890  0.34890  0.51360  Biso   1.000  C
  C242     1.0000 0.87030  0.35540  0.46610  Biso   1.000  C
  H190     1.0000 0.90020  0.36030  0.43320  Biso   1.000  H
  C243     1.0000 0.75430  0.35490  0.46580  Biso   1.000  C
  C244     1.0000 0.68160  0.36120  0.41730  Biso   1.000  C
  H191     1.0000 0.70950  0.36670  0.38390  Biso   1.000  H
  C245     1.0000 0.57090  0.35940  0.41870  Biso   1.000  C
  H192     1.0000 0.52210  0.36360  0.38610  Biso   1.000  H
  C246     1.0000 0.05930  0.34850  0.51150  Biso   1.000  C
  O75      1.0000 0.09560  0.34001  0.46850  Biso   1.000  O
  O76      1.0000 0.11900  0.35520  0.55700  Biso   1.000  O
  C247     1.0000 0.88800  0.56330  0.63300  Biso   1.000  C
  O77      1.0000 0.80100  0.57990  0.64500  Biso   1.000  O
  O78      1.0000 0.93000  0.58650  0.60010  Biso   1.000  O
  C248     1.0000 0.13300  0.91740  0.87400  Biso   1.000  C
  O79      1.0000 0.08700  0.89490  0.90590  Biso   1.000  O
  O80      1.0000 0.21600  0.89840  0.85720  Biso   1.000  O
