data_image0
_cell_length_a       23.375
_cell_length_b       18.692
_cell_length_c       32.329
_cell_angle_alpha    90
_cell_angle_beta     117.405
_cell_angle_gamma    90

_symmetry_space_group_name_H-M    "P 1"
_symmetry_int_tables_number       1

loop_
  _symmetry_equiv_pos_as_xyz
  'x, y, z'

loop_
  _atom_site_label
  _atom_site_occupancy
  _atom_site_fract_x
  _atom_site_fract_y
  _atom_site_fract_z
  _atom_site_thermal_displace_type
  _atom_site_B_iso_or_equiv
  _atom_site_type_symbol
  Cu1      1.0000 0.30981  0.00017  0.27895  Biso   1.000  Cu
  Cu2      1.0000 0.19171  0.23407  0.98522  Biso   1.000  Cu
  Cu3      1.0000 0.30171  0.72804  0.98912  Biso   1.000  Cu
  Cu4      1.0000 0.19645  0.79826  0.97734  Biso   1.000  Cu
  Cu5      1.0000 0.29585  0.30342  0.99652  Biso   1.000  Cu
  Cu6      1.0000 0.20533  0.00061  0.19778  Biso   1.000  Cu
  O1       1.0000 0.25170  0.64660  0.99357  Biso   1.000  O
  O2       1.0000 0.16479  0.71140  0.98634  Biso   1.000  O
  O3       1.0000 0.26240  0.71500  0.92277  Biso   1.000  O
  O4       1.0000 0.17170  0.76990  0.91227  Biso   1.000  O
  O5       1.0000 0.23748  0.88557  0.97088  Biso   1.000  O
  O6       1.0000 0.32838  0.82800  0.98364  Biso   1.000  O
  O7       1.0000 0.24880  0.80790  0.04693  Biso   1.000  O
  O8       1.0000 0.33260  0.74490  0.05440  Biso   1.000  O
  O9       1.0000 0.24942  0.38670  0.99984  Biso   1.000  O
  O10      1.0000 0.16150  0.32910  0.99377  Biso   1.000  O
  O11      1.0000 0.26510  0.57680  0.79470  Biso   1.000  O
  O12      1.0000 0.17959  0.57220  0.72620  Biso   1.000  O
  O13      1.0000 0.82380  0.93380  0.77169  Biso   1.000  O
  O14      1.0000 0.73808  0.93060  0.70294  Biso   1.000  O
  O15      1.0000 0.83823  0.75940  0.58116  Biso   1.000  O
  O16      1.0000 0.74706  0.81330  0.57039  Biso   1.000  O
  O17      1.0000 0.32520  0.20750  0.99073  Biso   1.000  O
  O18      1.0000 0.23560  0.14750  0.97850  Biso   1.000  O
  O19      1.0000 0.25179  0.93120  0.17946  Biso   1.000  O
  O20      1.0000 0.34069  0.92700  0.24871  Biso   1.000  O
  O21      1.0000 0.67201  0.78320  0.43572  Biso   1.000  O
  O22      1.0000 0.76025  0.72100  0.44663  Biso   1.000  O
  O23      1.0000 0.75225  0.57730  0.31876  Biso   1.000  O
  O24      1.0000 0.66238  0.57973  0.24949  Biso   1.000  O
  O25      1.0000 0.49420  0.76120  0.22000  Biso   1.000  O
  O26      1.0000 0.02710  0.74600  0.73620  Biso   1.000  O
  C1       1.0000 0.30390  0.78250  0.07080  Biso   1.000  C
  C2       1.0000 0.33360  0.79590  0.12100  Biso   1.000  C
  C3       1.0000 0.30670  0.84350  0.14074  Biso   1.000  C
  H1       1.0000 0.26720  0.86520  0.12210  Biso   1.000  H
  C4       1.0000 0.33820  0.85810  0.18700  Biso   1.000  C
  C5       1.0000 0.30870  0.91300  0.20600  Biso   1.000  C
  C6       1.0000 0.39820  0.82840  0.21540  Biso   1.000  C
  H2       1.0000 0.41950  0.84050  0.24680  Biso   1.000  H
  C7       1.0000 0.42680  0.78100  0.19730  Biso   1.000  C
  C8       1.0000 0.39470  0.76600  0.14990  Biso   1.000  C
  H3       1.0000 0.41380  0.73570  0.13700  Biso   1.000  H
  C9       1.0000 0.58210  0.73990  0.29630  Biso   1.000  C
  C10      1.0000 0.60790  0.68690  0.27858  Biso   1.000  C
  H4       1.0000 0.58540  0.67210  0.24770  Biso   1.000  H
  C11      1.0000 0.66790  0.65690  0.30820  Biso   1.000  C
  C12      1.0000 0.69540  0.59860  0.29120  Biso   1.000  C
  C13      1.0000 0.70120  0.67570  0.35486  Biso   1.000  C
  H5       1.0000 0.74120  0.65570  0.37400  Biso   1.000  H
  C14      1.0000 0.67370  0.72460  0.37220  Biso   1.000  C
  C15      1.0000 0.70780  0.74440  0.42320  Biso   1.000  C
  C16      1.0000 0.61360  0.75540  0.34356  Biso   1.000  C
  H6       1.0000 0.59480  0.78630  0.35630  Biso   1.000  H
  C17      1.0000 0.29190  0.15240  0.98420  Biso   1.000  C
  C18      1.0000 0.32430  0.08490  0.98280  Biso   1.000  C
  C19      1.0000 0.38710  0.08610  0.98820  Biso   1.000  C
  H7       1.0000 0.40820  0.12920  0.99070  Biso   1.000  H
  C20      1.0000 0.41820  0.01980  0.98970  Biso   1.000  C
  C21      1.0000 0.38940  0.95880  0.98520  Biso   1.000  C
  H8       1.0000 0.41100  0.91680  0.98550  Biso   1.000  H
  C22      1.0000 0.32540  0.95490  0.97970  Biso   1.000  C
  C23      1.0000 0.29340  0.01910  0.97780  Biso   1.000  C
  H9       1.0000 0.25110  0.01790  0.97310  Biso   1.000  H
  C24      1.0000 0.29480  0.88400  0.97780  Biso   1.000  C
  C25      1.0000 0.16440  0.58380  0.99600  Biso   1.000  C
  C26      1.0000 0.19540  0.65230  0.99250  Biso   1.000  C
  C27      1.0000 0.19350  0.51870  0.99780  Biso   1.000  C
  H10      1.0000 0.23340  0.51760  0.99800  Biso   1.000  H
  C28      1.0000 0.16400  0.45510  0.99930  Biso   1.000  C
  C29      1.0000 0.19490  0.38490  0.99870  Biso   1.000  C
  C30      1.0000 0.10440  0.45680  0.99960  Biso   1.000  C
  H11      1.0000 0.08430  0.41500  0.00170  Biso   1.000  H
  C31      1.0000 0.07560  0.52520  0.99670  Biso   1.000  C
  C32      1.0000 0.10710  0.58490  0.99680  Biso   1.000  C
  H12      1.0000 0.08890  0.62880  0.99750  Biso   1.000  H
  C33      1.0000 0.01500  0.53000  0.99960  Biso   1.000  C
  C34      1.0000 0.48370  0.03120  0.99690  Biso   1.000  C
  C35      1.0000 0.20610  0.67230  0.83004  Biso   1.000  C
  H13      1.0000 0.24810  0.65820  0.84980  Biso   1.000  H
  C36      1.0000 0.17720  0.64860  0.78407  Biso   1.000  C
  C37      1.0000 0.20760  0.59540  0.76590  Biso   1.000  C
  C38      1.0000 0.11530  0.67160  0.75470  Biso   1.000  C
  H14      1.0000 0.09470  0.65590  0.72390  Biso   1.000  H
  C39      1.0000 0.08400  0.71800  0.77080  Biso   1.000  C
  C40      1.0000 0.11190  0.73750  0.81630  Biso   1.000  C
  H15      1.0000 0.08880  0.76570  0.82710  Biso   1.000  H
  C41      1.0000 0.92290  0.80050  0.72220  Biso   1.000  C
  C42      1.0000 0.89670  0.78500  0.67570  Biso   1.000  C
  H16      1.0000 0.91990  0.75910  0.66390  Biso   1.000  H
  C43      1.0000 0.83390  0.80910  0.64629  Biso   1.000  C
  C44      1.0000 0.80490  0.79150  0.59700  Biso   1.000  C
  C45      1.0000 0.80040  0.84610  0.66450  Biso   1.000  C
  H17      1.0000 0.75780  0.85860  0.64520  Biso   1.000  H
  C46      1.0000 0.82890  0.86540  0.71150  Biso   1.000  C
  C47      1.0000 0.79510  0.91320  0.73130  Biso   1.000  C
  C48      1.0000 0.89210  0.84390  0.74040  Biso   1.000  C
  H18      1.0000 0.91310  0.85840  0.77140  Biso   1.000  H
  C49      1.0000 0.52160  0.76920  0.26944  Biso   1.000  C
  H19      1.0000 0.52400  0.82000  0.27630  Biso   1.000  H
  H20      1.0000 0.49210  0.74810  0.27940  Biso   1.000  H
  C50      1.0000 0.98770  0.78080  0.75500  Biso   1.000  C
  H21      1.0000 0.98540  0.74880  0.77780  Biso   1.000  H
  H22      1.0000 0.01000  0.82370  0.77150  Biso   1.000  H
  C51      1.0000 0.20250  0.73840  0.89720  Biso   1.000  C
  C52      1.0000 0.17470  0.71620  0.84740  Biso   1.000  C
  O27      1.0000 0.48510  0.73740  0.22770  Biso   1.000  O
  O28      1.0000 0.01360  0.73100  0.73840  Biso   1.000  O
  Cu7      1.0000 0.69019  0.50017  0.22105  Biso   1.000  Cu
  Cu8      1.0000 0.80829  0.73407  0.51478  Biso   1.000  Cu
  Cu9      1.0000 0.69829  0.22804  0.51088  Biso   1.000  Cu
  Cu10     1.0000 0.80355  0.29826  0.52266  Biso   1.000  Cu
  Cu11     1.0000 0.70415  0.80342  0.50348  Biso   1.000  Cu
  Cu12     1.0000 0.79467  0.50061  0.30222  Biso   1.000  Cu
  O29      1.0000 0.74830  0.14660  0.50643  Biso   1.000  O
  O30      1.0000 0.83521  0.21140  0.51366  Biso   1.000  O
  O31      1.0000 0.73760  0.21500  0.57723  Biso   1.000  O
  O32      1.0000 0.82830  0.26990  0.58773  Biso   1.000  O
  O33      1.0000 0.76252  0.38557  0.52912  Biso   1.000  O
  O34      1.0000 0.67162  0.32800  0.51636  Biso   1.000  O
  O35      1.0000 0.75120  0.30790  0.45307  Biso   1.000  O
  O36      1.0000 0.66740  0.24490  0.44560  Biso   1.000  O
  O37      1.0000 0.75058  0.88670  0.50016  Biso   1.000  O
  O38      1.0000 0.83850  0.82910  0.50623  Biso   1.000  O
  O39      1.0000 0.73490  0.07680  0.70530  Biso   1.000  O
  O40      1.0000 0.82041  0.07220  0.77380  Biso   1.000  O
  O41      1.0000 0.17620  0.43380  0.72831  Biso   1.000  O
  O42      1.0000 0.26192  0.43060  0.79706  Biso   1.000  O
  O43      1.0000 0.16177  0.25940  0.91884  Biso   1.000  O
  O44      1.0000 0.25294  0.31330  0.92961  Biso   1.000  O
  O45      1.0000 0.67480  0.70750  0.50927  Biso   1.000  O
  O46      1.0000 0.76440  0.64750  0.52150  Biso   1.000  O
  O47      1.0000 0.74821  0.43120  0.32054  Biso   1.000  O
  O48      1.0000 0.65931  0.42700  0.25129  Biso   1.000  O
  O49      1.0000 0.32799  0.28320  0.06428  Biso   1.000  O
  O50      1.0000 0.23975  0.22100  0.05337  Biso   1.000  O
  O51      1.0000 0.24775  0.07730  0.18124  Biso   1.000  O
  O52      1.0000 0.33762  0.07973  0.25051  Biso   1.000  O
  O53      1.0000 0.50580  0.26120  0.28000  Biso   1.000  O
  O54      1.0000 0.97290  0.24600  0.76380  Biso   1.000  O
  C53      1.0000 0.69610  0.28250  0.42920  Biso   1.000  C
  C54      1.0000 0.66640  0.29590  0.37900  Biso   1.000  C
  C55      1.0000 0.69330  0.34350  0.35926  Biso   1.000  C
  H23      1.0000 0.73280  0.36520  0.37790  Biso   1.000  H
  C56      1.0000 0.66180  0.35810  0.31300  Biso   1.000  C
  C57      1.0000 0.69130  0.41300  0.29400  Biso   1.000  C
  C58      1.0000 0.60180  0.32840  0.28460  Biso   1.000  C
  H24      1.0000 0.58050  0.34050  0.25320  Biso   1.000  H
  C59      1.0000 0.57320  0.28100  0.30270  Biso   1.000  C
  C60      1.0000 0.60530  0.26600  0.35010  Biso   1.000  C
  H25      1.0000 0.58620  0.23570  0.36300  Biso   1.000  H
  C61      1.0000 0.41790  0.23990  0.20370  Biso   1.000  C
  C62      1.0000 0.39210  0.18690  0.22142  Biso   1.000  C
  H26      1.0000 0.41460  0.17210  0.25230  Biso   1.000  H
  C63      1.0000 0.33210  0.15690  0.19180  Biso   1.000  C
  C64      1.0000 0.30460  0.09860  0.20880  Biso   1.000  C
  C65      1.0000 0.29880  0.17570  0.14514  Biso   1.000  C
  H27      1.0000 0.25880  0.15570  0.12600  Biso   1.000  H
  C66      1.0000 0.32630  0.22460  0.12780  Biso   1.000  C
  C67      1.0000 0.29220  0.24440  0.07680  Biso   1.000  C
  C68      1.0000 0.38640  0.25540  0.15644  Biso   1.000  C
  H28      1.0000 0.40520  0.28630  0.14370  Biso   1.000  H
  C69      1.0000 0.70810  0.65240  0.51580  Biso   1.000  C
  C70      1.0000 0.67570  0.58490  0.51720  Biso   1.000  C
  C71      1.0000 0.61290  0.58610  0.51180  Biso   1.000  C
  H29      1.0000 0.59180  0.62920  0.50930  Biso   1.000  H
  C72      1.0000 0.58180  0.51980  0.51030  Biso   1.000  C
  C73      1.0000 0.61060  0.45880  0.51480  Biso   1.000  C
  H30      1.0000 0.58900  0.41680  0.51450  Biso   1.000  H
  C74      1.0000 0.67460  0.45490  0.52030  Biso   1.000  C
  C75      1.0000 0.70660  0.51910  0.52220  Biso   1.000  C
  H31      1.0000 0.74890  0.51790  0.52690  Biso   1.000  H
  C76      1.0000 0.70520  0.38400  0.52220  Biso   1.000  C
  C77      1.0000 0.83560  0.08380  0.50400  Biso   1.000  C
  C78      1.0000 0.80460  0.15230  0.50750  Biso   1.000  C
  C79      1.0000 0.80650  0.01870  0.50220  Biso   1.000  C
  H32      1.0000 0.76660  0.01760  0.50200  Biso   1.000  H
  C80      1.0000 0.83600  0.95510  0.50070  Biso   1.000  C
  C81      1.0000 0.80510  0.88490  0.50130  Biso   1.000  C
  C82      1.0000 0.89560  0.95680  0.50040  Biso   1.000  C
  H33      1.0000 0.91570  0.91500  0.49830  Biso   1.000  H
  C83      1.0000 0.92440  0.02520  0.50330  Biso   1.000  C
  C84      1.0000 0.89290  0.08490  0.50320  Biso   1.000  C
  H34      1.0000 0.91110  0.12880  0.50250  Biso   1.000  H
  C85      1.0000 0.98500  0.03000  0.50040  Biso   1.000  C
  C86      1.0000 0.51630  0.53120  0.50310  Biso   1.000  C
  C87      1.0000 0.79390  0.17230  0.66996  Biso   1.000  C
  H35      1.0000 0.75190  0.15820  0.65020  Biso   1.000  H
  C88      1.0000 0.82280  0.14860  0.71593  Biso   1.000  C
  C89      1.0000 0.79240  0.09540  0.73410  Biso   1.000  C
  C90      1.0000 0.88470  0.17160  0.74530  Biso   1.000  C
  H36      1.0000 0.90530  0.15590  0.77610  Biso   1.000  H
  C91      1.0000 0.91600  0.21800  0.72920  Biso   1.000  C
  C92      1.0000 0.88810  0.23750  0.68370  Biso   1.000  C
  H37      1.0000 0.91120  0.26570  0.67290  Biso   1.000  H
  C93      1.0000 0.07710  0.30050  0.77780  Biso   1.000  C
  C94      1.0000 0.10330  0.28500  0.82430  Biso   1.000  C
  H38      1.0000 0.08010  0.25910  0.83610  Biso   1.000  H
  C95      1.0000 0.16610  0.30910  0.85371  Biso   1.000  C
  C96      1.0000 0.19510  0.29150  0.90300  Biso   1.000  C
  C97      1.0000 0.19960  0.34610  0.83550  Biso   1.000  C
  H39      1.0000 0.24220  0.35860  0.85480  Biso   1.000  H
  C98      1.0000 0.17110  0.36540  0.78850  Biso   1.000  C
  C99      1.0000 0.20490  0.41320  0.76870  Biso   1.000  C
  C100     1.0000 0.10790  0.34390  0.75960  Biso   1.000  C
  H40      1.0000 0.08690  0.35840  0.72860  Biso   1.000  H
  C101     1.0000 0.47840  0.26920  0.23056  Biso   1.000  C
  H41      1.0000 0.47600  0.32000  0.22370  Biso   1.000  H
  H42      1.0000 0.50790  0.24810  0.22060  Biso   1.000  H
  C102     1.0000 0.01230  0.28080  0.74500  Biso   1.000  C
  H43      1.0000 0.01460  0.24880  0.72220  Biso   1.000  H
  H44      1.0000 0.99000  0.32370  0.72850  Biso   1.000  H
  C103     1.0000 0.79750  0.23840  0.60280  Biso   1.000  C
  C104     1.0000 0.82530  0.21620  0.65260  Biso   1.000  C
  O55      1.0000 0.51490  0.23740  0.27230  Biso   1.000  O
  O56      1.0000 0.98640  0.23100  0.76160  Biso   1.000  O
  Cu13     1.0000 0.69019  0.99983  0.72105  Biso   1.000  Cu
  Cu14     1.0000 0.80829  0.76593  0.01478  Biso   1.000  Cu
  Cu15     1.0000 0.69829  0.27196  0.01088  Biso   1.000  Cu
  Cu16     1.0000 0.80355  0.20174  0.02266  Biso   1.000  Cu
  Cu17     1.0000 0.70415  0.69658  0.00348  Biso   1.000  Cu
  Cu18     1.0000 0.79467  0.99939  0.80222  Biso   1.000  Cu
  O57      1.0000 0.74830  0.35340  0.00643  Biso   1.000  O
  O58      1.0000 0.83521  0.28860  0.01366  Biso   1.000  O
  O59      1.0000 0.73760  0.28500  0.07723  Biso   1.000  O
  O60      1.0000 0.82830  0.23010  0.08773  Biso   1.000  O
  O61      1.0000 0.76252  0.11443  0.02912  Biso   1.000  O
  O62      1.0000 0.67162  0.17200  0.01636  Biso   1.000  O
  O63      1.0000 0.75120  0.19210  0.95307  Biso   1.000  O
  O64      1.0000 0.66740  0.25510  0.94560  Biso   1.000  O
  O65      1.0000 0.75058  0.61330  0.00016  Biso   1.000  O
  O66      1.0000 0.83850  0.67090  0.00623  Biso   1.000  O
  O67      1.0000 0.73490  0.42320  0.20530  Biso   1.000  O
  O68      1.0000 0.82041  0.42780  0.27380  Biso   1.000  O
  O69      1.0000 0.17620  0.06620  0.22831  Biso   1.000  O
  O70      1.0000 0.26192  0.06940  0.29706  Biso   1.000  O
  O71      1.0000 0.16177  0.24060  0.41884  Biso   1.000  O
  O72      1.0000 0.25294  0.18670  0.42961  Biso   1.000  O
  O73      1.0000 0.67480  0.79250  0.00927  Biso   1.000  O
  O74      1.0000 0.76440  0.85250  0.02150  Biso   1.000  O
  O75      1.0000 0.74821  0.06880  0.82054  Biso   1.000  O
  O76      1.0000 0.65931  0.07300  0.75129  Biso   1.000  O
  O77      1.0000 0.32799  0.21680  0.56428  Biso   1.000  O
  O78      1.0000 0.23975  0.27900  0.55337  Biso   1.000  O
  O79      1.0000 0.24775  0.42270  0.68124  Biso   1.000  O
  O80      1.0000 0.33762  0.42027  0.75051  Biso   1.000  O
  O81      1.0000 0.50580  0.23880  0.78000  Biso   1.000  O
  O82      1.0000 0.97290  0.25400  0.26380  Biso   1.000  O
  C105     1.0000 0.69610  0.21750  0.92920  Biso   1.000  C
  C106     1.0000 0.66640  0.20410  0.87900  Biso   1.000  C
  C107     1.0000 0.69330  0.15650  0.85926  Biso   1.000  C
  H45      1.0000 0.73280  0.13480  0.87790  Biso   1.000  H
  C108     1.0000 0.66180  0.14190  0.81300  Biso   1.000  C
  C109     1.0000 0.69130  0.08700  0.79400  Biso   1.000  C
  C110     1.0000 0.60180  0.17160  0.78460  Biso   1.000  C
  H46      1.0000 0.58050  0.15950  0.75320  Biso   1.000  H
  C111     1.0000 0.57320  0.21900  0.80270  Biso   1.000  C
  C112     1.0000 0.60530  0.23400  0.85010  Biso   1.000  C
  H47      1.0000 0.58620  0.26430  0.86300  Biso   1.000  H
  C113     1.0000 0.41790  0.26010  0.70370  Biso   1.000  C
  C114     1.0000 0.39210  0.31310  0.72142  Biso   1.000  C
  H48      1.0000 0.41460  0.32790  0.75230  Biso   1.000  H
  C115     1.0000 0.33210  0.34310  0.69180  Biso   1.000  C
  C116     1.0000 0.30460  0.40140  0.70880  Biso   1.000  C
  C117     1.0000 0.29880  0.32430  0.64514  Biso   1.000  C
  H49      1.0000 0.25880  0.34430  0.62600  Biso   1.000  H
  C118     1.0000 0.32630  0.27540  0.62780  Biso   1.000  C
  C119     1.0000 0.29220  0.25560  0.57680  Biso   1.000  C
  C120     1.0000 0.38640  0.24460  0.65644  Biso   1.000  C
  H50      1.0000 0.40520  0.21370  0.64370  Biso   1.000  H
  C121     1.0000 0.70810  0.84760  0.01580  Biso   1.000  C
  C122     1.0000 0.67570  0.91510  0.01720  Biso   1.000  C
  C123     1.0000 0.61290  0.91390  0.01180  Biso   1.000  C
  H51      1.0000 0.59180  0.87080  0.00930  Biso   1.000  H
  C124     1.0000 0.58180  0.98020  0.01030  Biso   1.000  C
  C125     1.0000 0.61060  0.04120  0.01480  Biso   1.000  C
  H52      1.0000 0.58900  0.08320  0.01450  Biso   1.000  H
  C126     1.0000 0.67460  0.04510  0.02030  Biso   1.000  C
  C127     1.0000 0.70660  0.98090  0.02220  Biso   1.000  C
  H53      1.0000 0.74890  0.98210  0.02690  Biso   1.000  H
  C128     1.0000 0.70520  0.11600  0.02220  Biso   1.000  C
  C129     1.0000 0.83560  0.41620  0.00400  Biso   1.000  C
  C130     1.0000 0.80460  0.34770  0.00750  Biso   1.000  C
  C131     1.0000 0.80650  0.48130  0.00220  Biso   1.000  C
  H54      1.0000 0.76660  0.48240  0.00200  Biso   1.000  H
  C132     1.0000 0.83600  0.54490  0.00070  Biso   1.000  C
  C133     1.0000 0.80510  0.61510  0.00130  Biso   1.000  C
  C134     1.0000 0.89560  0.54320  0.00040  Biso   1.000  C
  H55      1.0000 0.91570  0.58500  0.99830  Biso   1.000  H
  C135     1.0000 0.92440  0.47480  0.00330  Biso   1.000  C
  C136     1.0000 0.89290  0.41510  0.00320  Biso   1.000  C
  H56      1.0000 0.91110  0.37120  0.00250  Biso   1.000  H
  C137     1.0000 0.98500  0.47000  0.00040  Biso   1.000  C
  C138     1.0000 0.51630  0.96880  0.00310  Biso   1.000  C
  C139     1.0000 0.79390  0.32770  0.16996  Biso   1.000  C
  H57      1.0000 0.75190  0.34180  0.15020  Biso   1.000  H
  C140     1.0000 0.82280  0.35140  0.21593  Biso   1.000  C
  C141     1.0000 0.79240  0.40460  0.23410  Biso   1.000  C
  C142     1.0000 0.88470  0.32840  0.24530  Biso   1.000  C
  H58      1.0000 0.90530  0.34410  0.27610  Biso   1.000  H
  C143     1.0000 0.91600  0.28200  0.22920  Biso   1.000  C
  C144     1.0000 0.88810  0.26250  0.18370  Biso   1.000  C
  H59      1.0000 0.91120  0.23430  0.17290  Biso   1.000  H
  C145     1.0000 0.07710  0.19950  0.27780  Biso   1.000  C
  C146     1.0000 0.10330  0.21500  0.32430  Biso   1.000  C
  H60      1.0000 0.08010  0.24090  0.33610  Biso   1.000  H
  C147     1.0000 0.16610  0.19090  0.35371  Biso   1.000  C
  C148     1.0000 0.19510  0.20850  0.40300  Biso   1.000  C
  C149     1.0000 0.19960  0.15390  0.33550  Biso   1.000  C
  H61      1.0000 0.24220  0.14140  0.35480  Biso   1.000  H
  C150     1.0000 0.17110  0.13460  0.28850  Biso   1.000  C
  C151     1.0000 0.20490  0.08680  0.26870  Biso   1.000  C
  C152     1.0000 0.10790  0.15610  0.25960  Biso   1.000  C
  H62      1.0000 0.08690  0.14160  0.22860  Biso   1.000  H
  C153     1.0000 0.47840  0.23080  0.73056  Biso   1.000  C
  H63      1.0000 0.47600  0.18000  0.72370  Biso   1.000  H
  H64      1.0000 0.50790  0.25190  0.72060  Biso   1.000  H
  C154     1.0000 0.01230  0.21920  0.24500  Biso   1.000  C
  H65      1.0000 0.01460  0.25120  0.22220  Biso   1.000  H
  H66      1.0000 0.99000  0.17630  0.22850  Biso   1.000  H
  C155     1.0000 0.79750  0.26160  0.10280  Biso   1.000  C
  C156     1.0000 0.82530  0.28380  0.15260  Biso   1.000  C
  O83      1.0000 0.51490  0.26260  0.77230  Biso   1.000  O
  O84      1.0000 0.98640  0.26900  0.26160  Biso   1.000  O
  Cu19     1.0000 0.30981  0.49983  0.77895  Biso   1.000  Cu
  Cu20     1.0000 0.19171  0.26593  0.48522  Biso   1.000  Cu
  Cu21     1.0000 0.30171  0.77196  0.48912  Biso   1.000  Cu
  Cu22     1.0000 0.19645  0.70174  0.47734  Biso   1.000  Cu
  Cu23     1.0000 0.29585  0.19658  0.49652  Biso   1.000  Cu
  Cu24     1.0000 0.20533  0.49939  0.69778  Biso   1.000  Cu
  O85      1.0000 0.25170  0.85340  0.49357  Biso   1.000  O
  O86      1.0000 0.16479  0.78860  0.48634  Biso   1.000  O
  O87      1.0000 0.26240  0.78500  0.42277  Biso   1.000  O
  O88      1.0000 0.17170  0.73010  0.41227  Biso   1.000  O
  O89      1.0000 0.23748  0.61443  0.47088  Biso   1.000  O
  O90      1.0000 0.32838  0.67200  0.48364  Biso   1.000  O
  O91      1.0000 0.24880  0.69210  0.54693  Biso   1.000  O
  O92      1.0000 0.33260  0.75510  0.55440  Biso   1.000  O
  O93      1.0000 0.24942  0.11330  0.49984  Biso   1.000  O
  O94      1.0000 0.16150  0.17090  0.49377  Biso   1.000  O
  O95      1.0000 0.26510  0.92320  0.29470  Biso   1.000  O
  O96      1.0000 0.17959  0.92780  0.22620  Biso   1.000  O
  O97      1.0000 0.82380  0.56620  0.27169  Biso   1.000  O
  O98      1.0000 0.73808  0.56940  0.20294  Biso   1.000  O
  O99      1.0000 0.83823  0.74060  0.08116  Biso   1.000  O
  O100     1.0000 0.74706  0.68670  0.07039  Biso   1.000  O
  O101     1.0000 0.32520  0.29250  0.49073  Biso   1.000  O
  O102     1.0000 0.23560  0.35250  0.47850  Biso   1.000  O
  O103     1.0000 0.25179  0.56880  0.67946  Biso   1.000  O
  O104     1.0000 0.34069  0.57300  0.74871  Biso   1.000  O
  O105     1.0000 0.67201  0.71680  0.93572  Biso   1.000  O
  O106     1.0000 0.76025  0.77900  0.94663  Biso   1.000  O
  O107     1.0000 0.75225  0.92270  0.81876  Biso   1.000  O
  O108     1.0000 0.66238  0.92027  0.74949  Biso   1.000  O
  O109     1.0000 0.49420  0.73880  0.72000  Biso   1.000  O
  O110     1.0000 0.02710  0.75400  0.23620  Biso   1.000  O
  C157     1.0000 0.30390  0.71750  0.57080  Biso   1.000  C
  C158     1.0000 0.33360  0.70410  0.62100  Biso   1.000  C
  C159     1.0000 0.30670  0.65650  0.64074  Biso   1.000  C
  H67      1.0000 0.26720  0.63480  0.62210  Biso   1.000  H
  C160     1.0000 0.33820  0.64190  0.68700  Biso   1.000  C
  C161     1.0000 0.30870  0.58700  0.70600  Biso   1.000  C
  C162     1.0000 0.39820  0.67160  0.71540  Biso   1.000  C
  H68      1.0000 0.41950  0.65950  0.74680  Biso   1.000  H
  C163     1.0000 0.42680  0.71900  0.69730  Biso   1.000  C
  C164     1.0000 0.39470  0.73400  0.64990  Biso   1.000  C
  H69      1.0000 0.41380  0.76430  0.63700  Biso   1.000  H
  C165     1.0000 0.58210  0.76010  0.79630  Biso   1.000  C
  C166     1.0000 0.60790  0.81310  0.77858  Biso   1.000  C
  H70      1.0000 0.58540  0.82790  0.74770  Biso   1.000  H
  C167     1.0000 0.66790  0.84310  0.80820  Biso   1.000  C
  C168     1.0000 0.69540  0.90140  0.79120  Biso   1.000  C
  C169     1.0000 0.70120  0.82430  0.85486  Biso   1.000  C
  H71      1.0000 0.74120  0.84430  0.87400  Biso   1.000  H
  C170     1.0000 0.67370  0.77540  0.87220  Biso   1.000  C
  C171     1.0000 0.70780  0.75560  0.92320  Biso   1.000  C
  C172     1.0000 0.61360  0.74460  0.84356  Biso   1.000  C
  H72      1.0000 0.59480  0.71370  0.85630  Biso   1.000  H
  C173     1.0000 0.29190  0.34760  0.48420  Biso   1.000  C
  C174     1.0000 0.32430  0.41510  0.48280  Biso   1.000  C
  C175     1.0000 0.38710  0.41390  0.48820  Biso   1.000  C
  H73      1.0000 0.40820  0.37080  0.49070  Biso   1.000  H
  C176     1.0000 0.41820  0.48020  0.48970  Biso   1.000  C
  C177     1.0000 0.38940  0.54120  0.48520  Biso   1.000  C
  H74      1.0000 0.41100  0.58320  0.48550  Biso   1.000  H
  C178     1.0000 0.32540  0.54510  0.47970  Biso   1.000  C
  C179     1.0000 0.29340  0.48090  0.47780  Biso   1.000  C
  H75      1.0000 0.25110  0.48210  0.47310  Biso   1.000  H
  C180     1.0000 0.29480  0.61600  0.47780  Biso   1.000  C
  C181     1.0000 0.16440  0.91620  0.49600  Biso   1.000  C
  C182     1.0000 0.19540  0.84770  0.49250  Biso   1.000  C
  C183     1.0000 0.19350  0.98130  0.49780  Biso   1.000  C
  H76      1.0000 0.23340  0.98240  0.49800  Biso   1.000  H
  C184     1.0000 0.16400  0.04490  0.49930  Biso   1.000  C
  C185     1.0000 0.19490  0.11510  0.49870  Biso   1.000  C
  C186     1.0000 0.10440  0.04320  0.49960  Biso   1.000  C
  H77      1.0000 0.08430  0.08500  0.50170  Biso   1.000  H
  C187     1.0000 0.07560  0.97480  0.49670  Biso   1.000  C
  C188     1.0000 0.10710  0.91510  0.49680  Biso   1.000  C
  H78      1.0000 0.08890  0.87120  0.49750  Biso   1.000  H
  C189     1.0000 0.01500  0.97000  0.49960  Biso   1.000  C
  C190     1.0000 0.48370  0.46880  0.49690  Biso   1.000  C
  C191     1.0000 0.20610  0.82770  0.33004  Biso   1.000  C
  H79      1.0000 0.24810  0.84180  0.34980  Biso   1.000  H
  C192     1.0000 0.17720  0.85140  0.28407  Biso   1.000  C
  C193     1.0000 0.20760  0.90460  0.26590  Biso   1.000  C
  C194     1.0000 0.11530  0.82840  0.25470  Biso   1.000  C
  H80      1.0000 0.09470  0.84410  0.22390  Biso   1.000  H
  C195     1.0000 0.08400  0.78200  0.27080  Biso   1.000  C
  C196     1.0000 0.11190  0.76250  0.31630  Biso   1.000  C
  H81      1.0000 0.08880  0.73430  0.32710  Biso   1.000  H
  C197     1.0000 0.92290  0.69950  0.22220  Biso   1.000  C
  C198     1.0000 0.89670  0.71500  0.17570  Biso   1.000  C
  H82      1.0000 0.91990  0.74090  0.16390  Biso   1.000  H
  C199     1.0000 0.83390  0.69090  0.14629  Biso   1.000  C
  C200     1.0000 0.80490  0.70850  0.09700  Biso   1.000  C
  C201     1.0000 0.80040  0.65390  0.16450  Biso   1.000  C
  H83      1.0000 0.75780  0.64140  0.14520  Biso   1.000  H
  C202     1.0000 0.82890  0.63460  0.21150  Biso   1.000  C
  C203     1.0000 0.79510  0.58680  0.23130  Biso   1.000  C
  C204     1.0000 0.89210  0.65610  0.24040  Biso   1.000  C
  H84      1.0000 0.91310  0.64160  0.27140  Biso   1.000  H
  C205     1.0000 0.52160  0.73080  0.76944  Biso   1.000  C
  H85      1.0000 0.52400  0.68000  0.77630  Biso   1.000  H
  H86      1.0000 0.49210  0.75190  0.77940  Biso   1.000  H
  C206     1.0000 0.98770  0.71920  0.25500  Biso   1.000  C
  H87      1.0000 0.98540  0.75120  0.27780  Biso   1.000  H
  H88      1.0000 0.01000  0.67630  0.27150  Biso   1.000  H
  C207     1.0000 0.20250  0.76160  0.39720  Biso   1.000  C
  C208     1.0000 0.17470  0.78380  0.34740  Biso   1.000  C
  O111     1.0000 0.48510  0.76260  0.72770  Biso   1.000  O
  O112     1.0000 0.01360  0.76900  0.23840  Biso   1.000  O
