data_image0
_cell_length_a       16.342
_cell_length_b       16.809
_cell_length_c       19.303
_cell_angle_alpha    90
_cell_angle_beta     104.78
_cell_angle_gamma    90

_symmetry_space_group_name_H-M    "P 1"
_symmetry_int_tables_number       1

loop_
  _symmetry_equiv_pos_as_xyz
  'x, y, z'

loop_
  _atom_site_label
  _atom_site_occupancy
  _atom_site_fract_x
  _atom_site_fract_y
  _atom_site_fract_z
  _atom_site_thermal_displace_type
  _atom_site_B_iso_or_equiv
  _atom_site_type_symbol
  Mn1      1.0000 0.86684  0.89212  0.05305  Biso   1.000  Mn
  Mn2      1.0000 0.58807  0.64935  0.94423  Biso   1.000  Mn
  Br1      1.0000 0.88626  0.21338  0.21333  Biso   1.000  Br
  Br2      1.0000 0.87217  0.45694  0.14689  Biso   1.000  Br
  Br3      1.0000 0.77801  0.90973  0.14514  Biso   1.000  Br
  Br4      1.0000 0.53915  0.77207  0.86251  Biso   1.000  Br
  O1       1.0000 0.93420  0.00650  0.06780  Biso   1.000  O
  O2       1.0000 0.04970  0.10170  0.02130  Biso   1.000  O
  O3       1.0000 0.60900  0.54380  0.01740  Biso   1.000  O
  O4       1.0000 0.53030  0.41800  0.06860  Biso   1.000  O
  O5       1.0000 0.97530  0.83640  0.13000  Biso   1.000  O
  O6       1.0000 0.61350  0.57060  0.86100  Biso   1.000  O
  N1       1.0000 0.11870  0.16630  0.19660  Biso   1.000  N
  N2       1.0000 0.72290  0.57010  0.19580  Biso   1.000  N
  N3       1.0000 0.82360  0.77700  0.00760  Biso   1.000  N
  N4       1.0000 0.76960  0.72960  0.99710  Biso   1.000  N
  N5       1.0000 0.72070  0.67790  0.98570  Biso   1.000  N
  C1       1.0000 0.97430  0.14430  0.11160  Biso   1.000  C
  C2       1.0000 0.93370  0.22040  0.12930  Biso   1.000  C
  H1       1.0000 0.88880  0.23560  0.08800  Biso   1.000  H
  H2       1.0000 0.97590  0.26240  0.13770  Biso   1.000  H
  C3       1.0000 0.90640  0.07770  0.09150  Biso   1.000  C
  H3       1.0000 0.88540  0.06640  0.13320  Biso   1.000  H
  H4       1.0000 0.85920  0.09770  0.05430  Biso   1.000  H
  C4       1.0000 0.00680  0.16580  0.04560  Biso   1.000  C
  H5       1.0000 0.95930  0.18220  0.00690  Biso   1.000  H
  H6       1.0000 0.04520  0.21070  0.05760  Biso   1.000  H
  C5       1.0000 0.04530  0.11080  0.17430  Biso   1.000  C
  H7       1.0000 0.02210  0.10060  0.21500  Biso   1.000  H
  H8       1.0000 0.06490  0.06050  0.15970  Biso   1.000  H
  C6       1.0000 0.18190  0.16160  0.16300  Biso   1.000  C
  H9       1.0000 0.18000  0.12290  0.12820  Biso   1.000  H
  C7       1.0000 0.25010  0.21490  0.18060  Biso   1.000  C
  H10      1.0000 0.29330  0.21320  0.15720  Biso   1.000  H
  C8       1.0000 0.25100  0.26990  0.23370  Biso   1.000  C
  H11      1.0000 0.29550  0.30600  0.24650  Biso   1.000  H
  C9       1.0000 0.18620  0.27220  0.26850  Biso   1.000  C
  H12      1.0000 0.18810  0.30880  0.30500  Biso   1.000  H
  C10      1.0000 0.12080  0.22130  0.24900  Biso   1.000  C
  H13      1.0000 0.07670  0.22360  0.27140  Biso   1.000  H
  C11      1.0000 0.68270  0.45080  0.11210  Biso   1.000  C
  C12      1.0000 0.76540  0.40120  0.13670  Biso   1.000  C
  H14      1.0000 0.76290  0.35830  0.10250  Biso   1.000  H
  H15      1.0000 0.76610  0.37700  0.18240  Biso   1.000  H
  C13      1.0000 0.68450  0.49870  0.04370  Biso   1.000  C
  H16      1.0000 0.73270  0.53440  0.05440  Biso   1.000  H
  H17      1.0000 0.69150  0.46220  0.00670  Biso   1.000  H
  C14      1.0000 0.61330  0.38670  0.09270  Biso   1.000  C
  H18      1.0000 0.62470  0.35290  0.05560  Biso   1.000  H
  H19      1.0000 0.61610  0.35380  0.13450  Biso   1.000  H
  C15      1.0000 0.66380  0.50130  0.17230  Biso   1.000  C
  H20      1.0000 0.60650  0.52170  0.15630  Biso   1.000  H
  H21      1.0000 0.66610  0.46730  0.21330  Biso   1.000  H
  C16      1.0000 0.78600  0.56380  0.25470  Biso   1.000  C
  H22      1.0000 0.79190  0.51700  0.28120  Biso   1.000  H
  C17      1.0000 0.84320  0.62530  0.27750  Biso   1.000  C
  H23      1.0000 0.88800  0.62010  0.31800  Biso   1.000  H
  C18      1.0000 0.83100  0.69530  0.23730  Biso   1.000  C
  H24      1.0000 0.86700  0.73840  0.25160  Biso   1.000  H
  C19      1.0000 0.76440  0.70030  0.17570  Biso   1.000  C
  H25      1.0000 0.75550  0.74610  0.14780  Biso   1.000  H
  C20      1.0000 0.71310  0.63610  0.15790  Biso   1.000  C
  H26      1.0000 0.66880  0.63890  0.11670  Biso   1.000  H
  C21      1.0000 0.99610  0.75220  0.14190  Biso   1.000  C
  H27      1.0000 0.04760  0.74680  0.17900  Biso   1.000  H
  H28      1.0000 0.00330  0.72890  0.09850  Biso   1.000  H
  H29      1.0000 0.95100  0.72560  0.15610  Biso   1.000  H
  C22      1.0000 0.56300  0.57810  0.78750  Biso   1.000  C
  H30      1.0000 0.58370  0.54190  0.75750  Biso   1.000  H
  H31      1.0000 0.56690  0.63160  0.77120  Biso   1.000  H
  H32      1.0000 0.50500  0.56590  0.78530  Biso   1.000  H
  Br5      1.0000 0.54070  0.72390  0.81730  Biso   1.000  Br
  C23      1.0000 0.98100  0.87400  0.20400  Biso   1.000  C
  H33      1.0000 0.02740  0.85090  0.23860  Biso   1.000  H
  H34      1.0000 0.92910  0.86350  0.21730  Biso   1.000  H
  H35      1.0000 0.98890  0.93010  0.20130  Biso   1.000  H
  C24      1.0000 0.68400  0.54760  0.84030  Biso   1.000  C
  H36      1.0000 0.66830  0.51360  0.79910  Biso   1.000  H
  H37      1.0000 0.72200  0.51930  0.87880  Biso   1.000  H
  H38      1.0000 0.71270  0.59380  0.82860  Biso   1.000  H
  Mn3      1.0000 0.63316  0.39212  0.44695  Biso   1.000  Mn
  Mn4      1.0000 0.91193  0.14935  0.55577  Biso   1.000  Mn
  Br6      1.0000 0.61374  0.71338  0.28667  Biso   1.000  Br
  Br7      1.0000 0.62783  0.95694  0.35311  Biso   1.000  Br
  Br8      1.0000 0.72199  0.40973  0.35486  Biso   1.000  Br
  Br9      1.0000 0.96085  0.27207  0.63749  Biso   1.000  Br
  O7       1.0000 0.56580  0.50650  0.43220  Biso   1.000  O
  O8       1.0000 0.45030  0.60170  0.47870  Biso   1.000  O
  O9       1.0000 0.89100  0.04380  0.48260  Biso   1.000  O
  O10      1.0000 0.96970  0.91800  0.43140  Biso   1.000  O
  O11      1.0000 0.52470  0.33640  0.37000  Biso   1.000  O
  O12      1.0000 0.88650  0.07060  0.63900  Biso   1.000  O
  N6       1.0000 0.38130  0.66630  0.30340  Biso   1.000  N
  N7       1.0000 0.77710  0.07010  0.30420  Biso   1.000  N
  N8       1.0000 0.67640  0.27700  0.49240  Biso   1.000  N
  N9       1.0000 0.73040  0.22960  0.50290  Biso   1.000  N
  N10      1.0000 0.77930  0.17790  0.51430  Biso   1.000  N
  C25      1.0000 0.52570  0.64430  0.38840  Biso   1.000  C
  C26      1.0000 0.56630  0.72040  0.37070  Biso   1.000  C
  H39      1.0000 0.61120  0.73560  0.41200  Biso   1.000  H
  H40      1.0000 0.52410  0.76240  0.36230  Biso   1.000  H
  C27      1.0000 0.59360  0.57770  0.40850  Biso   1.000  C
  H41      1.0000 0.61460  0.56640  0.36680  Biso   1.000  H
  H42      1.0000 0.64080  0.59770  0.44570  Biso   1.000  H
  C28      1.0000 0.49320  0.66580  0.45440  Biso   1.000  C
  H43      1.0000 0.54070  0.68220  0.49310  Biso   1.000  H
  H44      1.0000 0.45480  0.71070  0.44240  Biso   1.000  H
  C29      1.0000 0.45470  0.61080  0.32570  Biso   1.000  C
  H45      1.0000 0.47790  0.60060  0.28500  Biso   1.000  H
  H46      1.0000 0.43510  0.56050  0.34030  Biso   1.000  H
  C30      1.0000 0.31810  0.66160  0.33700  Biso   1.000  C
  H47      1.0000 0.32000  0.62290  0.37180  Biso   1.000  H
  C31      1.0000 0.24990  0.71490  0.31940  Biso   1.000  C
  H48      1.0000 0.20670  0.71320  0.34280  Biso   1.000  H
  C32      1.0000 0.24900  0.76990  0.26630  Biso   1.000  C
  H49      1.0000 0.20450  0.80600  0.25350  Biso   1.000  H
  C33      1.0000 0.31380  0.77220  0.23150  Biso   1.000  C
  H50      1.0000 0.31190  0.80880  0.19500  Biso   1.000  H
  C34      1.0000 0.37920  0.72130  0.25100  Biso   1.000  C
  H51      1.0000 0.42330  0.72360  0.22860  Biso   1.000  H
  C35      1.0000 0.81730  0.95080  0.38790  Biso   1.000  C
  C36      1.0000 0.73460  0.90120  0.36330  Biso   1.000  C
  H52      1.0000 0.73710  0.85830  0.39750  Biso   1.000  H
  H53      1.0000 0.73390  0.87700  0.31760  Biso   1.000  H
  C37      1.0000 0.81550  0.99870  0.45630  Biso   1.000  C
  H54      1.0000 0.76730  0.03440  0.44560  Biso   1.000  H
  H55      1.0000 0.80850  0.96220  0.49330  Biso   1.000  H
  C38      1.0000 0.88670  0.88670  0.40730  Biso   1.000  C
  H56      1.0000 0.87530  0.85290  0.44440  Biso   1.000  H
  H57      1.0000 0.88390  0.85380  0.36550  Biso   1.000  H
  C39      1.0000 0.83620  0.00130  0.32770  Biso   1.000  C
  H58      1.0000 0.89350  0.02170  0.34370  Biso   1.000  H
  H59      1.0000 0.83390  0.96730  0.28670  Biso   1.000  H
  C40      1.0000 0.71400  0.06380  0.24530  Biso   1.000  C
  H60      1.0000 0.70810  0.01700  0.21880  Biso   1.000  H
  C41      1.0000 0.65680  0.12530  0.22250  Biso   1.000  C
  H61      1.0000 0.61200  0.12010  0.18200  Biso   1.000  H
  C42      1.0000 0.66900  0.19530  0.26270  Biso   1.000  C
  H62      1.0000 0.63300  0.23840  0.24840  Biso   1.000  H
  C43      1.0000 0.73560  0.20030  0.32430  Biso   1.000  C
  H63      1.0000 0.74450  0.24610  0.35220  Biso   1.000  H
  C44      1.0000 0.78690  0.13610  0.34210  Biso   1.000  C
  H64      1.0000 0.83120  0.13890  0.38330  Biso   1.000  H
  C45      1.0000 0.50390  0.25220  0.35810  Biso   1.000  C
  H65      1.0000 0.45240  0.24680  0.32100  Biso   1.000  H
  H66      1.0000 0.49670  0.22890  0.40150  Biso   1.000  H
  H67      1.0000 0.54900  0.22560  0.34390  Biso   1.000  H
  C46      1.0000 0.93700  0.07810  0.71250  Biso   1.000  C
  H68      1.0000 0.91630  0.04190  0.74250  Biso   1.000  H
  H69      1.0000 0.93310  0.13160  0.72880  Biso   1.000  H
  H70      1.0000 0.99500  0.06590  0.71470  Biso   1.000  H
  Br10     1.0000 0.95930  0.22390  0.68270  Biso   1.000  Br
  C47      1.0000 0.51900  0.37400  0.29600  Biso   1.000  C
  H71      1.0000 0.47260  0.35090  0.26140  Biso   1.000  H
  H72      1.0000 0.57090  0.36350  0.28270  Biso   1.000  H
  H73      1.0000 0.51110  0.43010  0.29870  Biso   1.000  H
  C48      1.0000 0.81600  0.04760  0.65970  Biso   1.000  C
  H74      1.0000 0.83170  0.01360  0.70090  Biso   1.000  H
  H75      1.0000 0.77800  0.01930  0.62120  Biso   1.000  H
  H76      1.0000 0.78730  0.09380  0.67140  Biso   1.000  H
  Mn5      1.0000 0.13316  0.10788  0.94695  Biso   1.000  Mn
  Mn6      1.0000 0.41193  0.35065  0.05577  Biso   1.000  Mn
  Br11     1.0000 0.11374  0.78662  0.78667  Biso   1.000  Br
  Br12     1.0000 0.12783  0.54306  0.85311  Biso   1.000  Br
  Br13     1.0000 0.22199  0.09027  0.85486  Biso   1.000  Br
  Br14     1.0000 0.46085  0.22793  0.13749  Biso   1.000  Br
  O13      1.0000 0.06580  0.99350  0.93220  Biso   1.000  O
  O14      1.0000 0.95030  0.89830  0.97870  Biso   1.000  O
  O15      1.0000 0.39100  0.45620  0.98260  Biso   1.000  O
  O16      1.0000 0.46970  0.58200  0.93140  Biso   1.000  O
  O17      1.0000 0.02470  0.16360  0.87000  Biso   1.000  O
  O18      1.0000 0.38650  0.42940  0.13900  Biso   1.000  O
  N11      1.0000 0.88130  0.83370  0.80340  Biso   1.000  N
  N12      1.0000 0.27710  0.42990  0.80420  Biso   1.000  N
  N13      1.0000 0.17640  0.22300  0.99240  Biso   1.000  N
  N14      1.0000 0.23040  0.27040  0.00290  Biso   1.000  N
  N15      1.0000 0.27930  0.32210  0.01430  Biso   1.000  N
  C49      1.0000 0.02570  0.85570  0.88840  Biso   1.000  C
  C50      1.0000 0.06630  0.77960  0.87070  Biso   1.000  C
  H77      1.0000 0.11120  0.76440  0.91200  Biso   1.000  H
  H78      1.0000 0.02410  0.73760  0.86230  Biso   1.000  H
  C51      1.0000 0.09360  0.92230  0.90850  Biso   1.000  C
  H79      1.0000 0.11460  0.93360  0.86680  Biso   1.000  H
  H80      1.0000 0.14080  0.90230  0.94570  Biso   1.000  H
  C52      1.0000 0.99320  0.83420  0.95440  Biso   1.000  C
  H81      1.0000 0.04070  0.81780  0.99310  Biso   1.000  H
  H82      1.0000 0.95480  0.78930  0.94240  Biso   1.000  H
  C53      1.0000 0.95470  0.88920  0.82570  Biso   1.000  C
  H83      1.0000 0.97790  0.89940  0.78500  Biso   1.000  H
  H84      1.0000 0.93510  0.93950  0.84030  Biso   1.000  H
  C54      1.0000 0.81810  0.83840  0.83700  Biso   1.000  C
  H85      1.0000 0.82000  0.87710  0.87180  Biso   1.000  H
  C55      1.0000 0.74990  0.78510  0.81940  Biso   1.000  C
  H86      1.0000 0.70670  0.78680  0.84280  Biso   1.000  H
  C56      1.0000 0.74900  0.73010  0.76630  Biso   1.000  C
  H87      1.0000 0.70450  0.69400  0.75350  Biso   1.000  H
  C57      1.0000 0.81380  0.72780  0.73150  Biso   1.000  C
  H88      1.0000 0.81190  0.69120  0.69500  Biso   1.000  H
  C58      1.0000 0.87920  0.77870  0.75100  Biso   1.000  C
  H89      1.0000 0.92330  0.77640  0.72860  Biso   1.000  H
  C59      1.0000 0.31730  0.54920  0.88790  Biso   1.000  C
  C60      1.0000 0.23460  0.59880  0.86330  Biso   1.000  C
  H90      1.0000 0.23710  0.64170  0.89750  Biso   1.000  H
  H91      1.0000 0.23390  0.62300  0.81760  Biso   1.000  H
  C61      1.0000 0.31550  0.50130  0.95630  Biso   1.000  C
  H92      1.0000 0.26730  0.46560  0.94560  Biso   1.000  H
  H93      1.0000 0.30850  0.53780  0.99330  Biso   1.000  H
  C62      1.0000 0.38670  0.61330  0.90730  Biso   1.000  C
  H94      1.0000 0.37530  0.64710  0.94440  Biso   1.000  H
  H95      1.0000 0.38390  0.64620  0.86550  Biso   1.000  H
  C63      1.0000 0.33620  0.49870  0.82770  Biso   1.000  C
  H96      1.0000 0.39350  0.47830  0.84370  Biso   1.000  H
  H97      1.0000 0.33390  0.53270  0.78670  Biso   1.000  H
  C64      1.0000 0.21400  0.43620  0.74530  Biso   1.000  C
  H98      1.0000 0.20810  0.48300  0.71880  Biso   1.000  H
  C65      1.0000 0.15680  0.37470  0.72250  Biso   1.000  C
  H99      1.0000 0.11200  0.37990  0.68200  Biso   1.000  H
  C66      1.0000 0.16900  0.30470  0.76270  Biso   1.000  C
  H100     1.0000 0.13300  0.26160  0.74840  Biso   1.000  H
  C67      1.0000 0.23560  0.29970  0.82430  Biso   1.000  C
  H101     1.0000 0.24450  0.25390  0.85220  Biso   1.000  H
  C68      1.0000 0.28690  0.36390  0.84210  Biso   1.000  C
  H102     1.0000 0.33120  0.36110  0.88330  Biso   1.000  H
  C69      1.0000 0.00390  0.24780  0.85810  Biso   1.000  C
  H103     1.0000 0.95240  0.25320  0.82100  Biso   1.000  H
  H104     1.0000 0.99670  0.27110  0.90150  Biso   1.000  H
  H105     1.0000 0.04900  0.27440  0.84390  Biso   1.000  H
  C70      1.0000 0.43700  0.42190  0.21250  Biso   1.000  C
  H106     1.0000 0.41630  0.45810  0.24250  Biso   1.000  H
  H107     1.0000 0.43310  0.36840  0.22880  Biso   1.000  H
  H108     1.0000 0.49500  0.43410  0.21470  Biso   1.000  H
  Br15     1.0000 0.45930  0.27610  0.18270  Biso   1.000  Br
  C71      1.0000 0.01900  0.12600  0.79600  Biso   1.000  C
  H109     1.0000 0.97260  0.14910  0.76140  Biso   1.000  H
  H110     1.0000 0.07090  0.13650  0.78270  Biso   1.000  H
  H111     1.0000 0.01110  0.06990  0.79870  Biso   1.000  H
  C72      1.0000 0.31600  0.45240  0.15970  Biso   1.000  C
  H112     1.0000 0.33170  0.48640  0.20090  Biso   1.000  H
  H113     1.0000 0.27800  0.48070  0.12120  Biso   1.000  H
  H114     1.0000 0.28730  0.40620  0.17140  Biso   1.000  H
  Mn7      1.0000 0.36684  0.60788  0.55305  Biso   1.000  Mn
  Mn8      1.0000 0.08807  0.85065  0.44423  Biso   1.000  Mn
  Br16     1.0000 0.38626  0.28662  0.71333  Biso   1.000  Br
  Br17     1.0000 0.37217  0.04306  0.64689  Biso   1.000  Br
  Br18     1.0000 0.27801  0.59027  0.64514  Biso   1.000  Br
  Br19     1.0000 0.03915  0.72793  0.36251  Biso   1.000  Br
  O19      1.0000 0.43420  0.49350  0.56780  Biso   1.000  O
  O20      1.0000 0.54970  0.39830  0.52130  Biso   1.000  O
  O21      1.0000 0.10900  0.95620  0.51740  Biso   1.000  O
  O22      1.0000 0.03030  0.08200  0.56860  Biso   1.000  O
  O23      1.0000 0.47530  0.66360  0.63000  Biso   1.000  O
  O24      1.0000 0.11350  0.92940  0.36100  Biso   1.000  O
  N16      1.0000 0.61870  0.33370  0.69660  Biso   1.000  N
  N17      1.0000 0.22290  0.92990  0.69580  Biso   1.000  N
  N18      1.0000 0.32360  0.72300  0.50760  Biso   1.000  N
  N19      1.0000 0.26960  0.77040  0.49710  Biso   1.000  N
  N20      1.0000 0.22070  0.82210  0.48570  Biso   1.000  N
  C73      1.0000 0.47430  0.35570  0.61160  Biso   1.000  C
  C74      1.0000 0.43370  0.27960  0.62930  Biso   1.000  C
  H115     1.0000 0.38880  0.26440  0.58800  Biso   1.000  H
  H116     1.0000 0.47590  0.23760  0.63770  Biso   1.000  H
  C75      1.0000 0.40640  0.42230  0.59150  Biso   1.000  C
  H117     1.0000 0.38540  0.43360  0.63320  Biso   1.000  H
  H118     1.0000 0.35920  0.40230  0.55430  Biso   1.000  H
  C76      1.0000 0.50680  0.33420  0.54560  Biso   1.000  C
  H119     1.0000 0.45930  0.31780  0.50690  Biso   1.000  H
  H120     1.0000 0.54520  0.28930  0.55760  Biso   1.000  H
  C77      1.0000 0.54530  0.38920  0.67430  Biso   1.000  C
  H121     1.0000 0.52210  0.39940  0.71500  Biso   1.000  H
  H122     1.0000 0.56490  0.43950  0.65970  Biso   1.000  H
  C78      1.0000 0.68190  0.33840  0.66300  Biso   1.000  C
  H123     1.0000 0.68000  0.37710  0.62820  Biso   1.000  H
  C79      1.0000 0.75010  0.28510  0.68060  Biso   1.000  C
  H124     1.0000 0.79330  0.28680  0.65720  Biso   1.000  H
  C80      1.0000 0.75100  0.23010  0.73370  Biso   1.000  C
  H125     1.0000 0.79550  0.19400  0.74650  Biso   1.000  H
  C81      1.0000 0.68620  0.22780  0.76850  Biso   1.000  C
  H126     1.0000 0.68810  0.19120  0.80500  Biso   1.000  H
  C82      1.0000 0.62080  0.27870  0.74900  Biso   1.000  C
  H127     1.0000 0.57670  0.27640  0.77140  Biso   1.000  H
  C83      1.0000 0.18270  0.04920  0.61210  Biso   1.000  C
  C84      1.0000 0.26540  0.09880  0.63670  Biso   1.000  C
  H128     1.0000 0.26290  0.14170  0.60250  Biso   1.000  H
  H129     1.0000 0.26610  0.12300  0.68240  Biso   1.000  H
  C85      1.0000 0.18450  0.00130  0.54370  Biso   1.000  C
  H130     1.0000 0.23270  0.96560  0.55440  Biso   1.000  H
  H131     1.0000 0.19150  0.03780  0.50670  Biso   1.000  H
  C86      1.0000 0.11330  0.11330  0.59270  Biso   1.000  C
  H132     1.0000 0.12470  0.14710  0.55560  Biso   1.000  H
  H133     1.0000 0.11610  0.14620  0.63450  Biso   1.000  H
  C87      1.0000 0.16380  0.99870  0.67230  Biso   1.000  C
  H134     1.0000 0.10650  0.97830  0.65630  Biso   1.000  H
  H135     1.0000 0.16610  0.03270  0.71330  Biso   1.000  H
  C88      1.0000 0.28600  0.93620  0.75470  Biso   1.000  C
  H136     1.0000 0.29190  0.98300  0.78120  Biso   1.000  H
  C89      1.0000 0.34320  0.87470  0.77750  Biso   1.000  C
  H137     1.0000 0.38800  0.87990  0.81800  Biso   1.000  H
  C90      1.0000 0.33100  0.80470  0.73730  Biso   1.000  C
  H138     1.0000 0.36700  0.76160  0.75160  Biso   1.000  H
  C91      1.0000 0.26440  0.79970  0.67570  Biso   1.000  C
  H139     1.0000 0.25550  0.75390  0.64780  Biso   1.000  H
  C92      1.0000 0.21310  0.86390  0.65790  Biso   1.000  C
  H140     1.0000 0.16880  0.86110  0.61670  Biso   1.000  H
  C93      1.0000 0.49610  0.74780  0.64190  Biso   1.000  C
  H141     1.0000 0.54760  0.75320  0.67900  Biso   1.000  H
  H142     1.0000 0.50330  0.77110  0.59850  Biso   1.000  H
  H143     1.0000 0.45100  0.77440  0.65610  Biso   1.000  H
  C94      1.0000 0.06300  0.92190  0.28750  Biso   1.000  C
  H144     1.0000 0.08370  0.95810  0.25750  Biso   1.000  H
  H145     1.0000 0.06690  0.86840  0.27120  Biso   1.000  H
  H146     1.0000 0.00500  0.93410  0.28530  Biso   1.000  H
  Br20     1.0000 0.04070  0.77610  0.31730  Biso   1.000  Br
  C95      1.0000 0.48100  0.62600  0.70400  Biso   1.000  C
  H147     1.0000 0.52740  0.64910  0.73860  Biso   1.000  H
  H148     1.0000 0.42910  0.63650  0.71730  Biso   1.000  H
  H149     1.0000 0.48890  0.56990  0.70130  Biso   1.000  H
  C96      1.0000 0.18400  0.95240  0.34030  Biso   1.000  C
  H150     1.0000 0.16830  0.98640  0.29910  Biso   1.000  H
  H151     1.0000 0.22200  0.98070  0.37880  Biso   1.000  H
  H152     1.0000 0.21270  0.90620  0.32860  Biso   1.000  H
  Mn9      1.0000 0.00000  0.00000  0.00000  Biso   1.000  Mn
  Mn10     1.0000 0.50000  0.50000  0.50000  Biso   1.000  Mn
  Mn11     1.0000 0.50000  0.50000  0.00000  Biso   1.000  Mn
  Mn12     1.0000 0.00000  0.00000  0.50000  Biso   1.000  Mn
