data_image0
_cell_length_a       23.9651
_cell_length_b       29.2842
_cell_length_c       17.3545
_cell_angle_alpha    90
_cell_angle_beta     96.301
_cell_angle_gamma    90

_symmetry_space_group_name_H-M    "P 1"
_symmetry_int_tables_number       1

loop_
  _symmetry_equiv_pos_as_xyz
  'x, y, z'

loop_
  _atom_site_label
  _atom_site_occupancy
  _atom_site_fract_x
  _atom_site_fract_y
  _atom_site_fract_z
  _atom_site_thermal_displace_type
  _atom_site_B_iso_or_equiv
  _atom_site_type_symbol
  Zr1      1.0000 0.16605  0.20733  0.53357  Biso   1.000  Zr
  Zr2      1.0000 0.29804  0.23111  0.62936  Biso   1.000  Zr
  Zr3      1.0000 0.21407  0.32190  0.55258  Biso   1.000  Zr
  O1       1.0000 0.29260  0.29220  0.56590  Biso   1.000  O
  O2       1.0000 0.13900  0.33557  0.60340  Biso   1.000  O
  O3       1.0000 0.23930  0.33962  0.67750  Biso   1.000  O
  O4       1.0000 0.29090  0.27799  0.72560  Biso   1.000  O
  O5       1.0000 0.24940  0.32380  0.43790  Biso   1.000  O
  O6       1.0000 0.20700  0.25760  0.61990  Biso   1.000  O
  O7       1.0000 0.15460  0.27550  0.47060  Biso   1.000  O
  O8       1.0000 0.33260  0.32484  0.35030  Biso   1.000  O
  O9       1.0000 0.24550  0.30821  0.28680  Biso   1.000  O
  O10      1.0000 0.84610  0.66731  0.64720  Biso   1.000  O
  O11      1.0000 0.26010  0.61340  0.05070  Biso   1.000  O
  O12      1.0000 0.83870  0.63239  0.53030  Biso   1.000  O
  O13      1.0000 0.34010  0.63250  0.99010  Biso   1.000  O
  O14      1.0000 0.58840  0.30420  0.96270  Biso   1.000  O
  C1       1.0000 0.30090  0.41180  0.87780  Biso   1.000  C
  C2       1.0000 0.28700  0.34250  0.80310  Biso   1.000  C
  C3       1.0000 0.29470  0.32610  0.29310  Biso   1.000  C
  C4       1.0000 0.36020  0.41020  0.01130  Biso   1.000  C
  C5       1.0000 0.31030  0.34980  0.22160  Biso   1.000  C
  C6       1.0000 0.26960  0.31840  0.72790  Biso   1.000  C
  C7       1.0000 0.34760  0.46160  0.01650  Biso   1.000  C
  C8       1.0000 0.34120  0.38910  0.08560  Biso   1.000  C
  C9       1.0000 0.30470  0.60440  0.02090  Biso   1.000  C
  C10      1.0000 0.32010  0.55500  0.02050  Biso   1.000  C
  C11      1.0000 0.27910  0.38910  0.80980  Biso   1.000  C
  C12      1.0000 0.32910  0.38740  0.93890  Biso   1.000  C
  C13      1.0000 0.31350  0.31780  0.86550  Biso   1.000  C
  C14      1.0000 0.33450  0.34020  0.93200  Biso   1.000  C
  C15      1.0000 0.42200  0.39980  0.00120  Biso   1.000  C
  C16      1.0000 0.29200  0.36460  0.08450  Biso   1.000  C
  C17      1.0000 0.37170  0.39760  0.15660  Biso   1.000  C
  C18      1.0000 0.29410  0.47520  0.02710  Biso   1.000  C
  C19      1.0000 0.27980  0.52230  0.02940  Biso   1.000  C
  C20      1.0000 0.35710  0.37790  0.22350  Biso   1.000  C
  C21      1.0000 0.27550  0.34610  0.15200  Biso   1.000  C
  C22      1.0000 0.44190  0.41500  0.93380  Biso   1.000  C
  C23      1.0000 0.37320  0.54080  0.00890  Biso   1.000  C
  C24      1.0000 0.38630  0.49410  0.00610  Biso   1.000  C
  C25      1.0000 0.51820  0.36410  0.95660  Biso   1.000  C
  C26      1.0000 0.44970  0.36520  0.04130  Biso   1.000  C
  C27      1.0000 0.49890  0.34900  0.01950  Biso   1.000  C
  C28      1.0000 0.56850  0.33830  0.92570  Biso   1.000  C
  C29      1.0000 0.49030  0.39840  0.90790  Biso   1.000  C
  C30      1.0000 0.95680  0.52670  0.70720  Biso   1.000  C
  C31      1.0000 0.02560  0.46040  0.69500  Biso   1.000  C
  C32      1.0000 0.00890  0.39670  0.60640  Biso   1.000  C
  C33      1.0000 0.10320  0.41560  0.66080  Biso   1.000  C
  C34      1.0000 0.06700  0.38720  0.61490  Biso   1.000  C
  C35      1.0000 0.91630  0.56720  0.59230  Biso   1.000  C
  C36      1.0000 0.98910  0.43310  0.64600  Biso   1.000  C
  C37      1.0000 0.95100  0.53260  0.62840  Biso   1.000  C
  C38      1.0000 0.92690  0.55530  0.75290  Biso   1.000  C
  C39      1.0000 0.08290  0.45230  0.70090  Biso   1.000  C
  C40      1.0000 0.88880  0.59610  0.63870  Biso   1.000  C
  C41      1.0000 0.85420  0.63460  0.60210  Biso   1.000  C
  C42      1.0000 0.89370  0.59040  0.71910  Biso   1.000  C
  C43      1.0000 0.08870  0.34610  0.57900  Biso   1.000  C
  O15      1.0000 0.05650  0.32220  0.53380  Biso   1.000  O
  O16      1.0000 0.58840  0.35140  0.86160  Biso   1.000  O
  O17      1.0000 0.17210  0.27170  0.48680  Biso   1.000  O
  O18      1.0000 0.30880  0.30140  0.58580  Biso   1.000  O
  O19      1.0000 0.25040  0.30490  0.45480  Biso   1.000  O
  O20      1.0000 0.21870  0.25530  0.59250  Biso   1.000  O
  Zr4      1.0000 0.66605  0.70733  0.53357  Biso   1.000  Zr
  Zr5      1.0000 0.79804  0.73111  0.62936  Biso   1.000  Zr
  Zr6      1.0000 0.71407  0.82190  0.55258  Biso   1.000  Zr
  O21      1.0000 0.79260  0.79220  0.56590  Biso   1.000  O
  O22      1.0000 0.63900  0.83557  0.60340  Biso   1.000  O
  O23      1.0000 0.73930  0.83962  0.67750  Biso   1.000  O
  O24      1.0000 0.79090  0.77799  0.72560  Biso   1.000  O
  O25      1.0000 0.74940  0.82380  0.43790  Biso   1.000  O
  O26      1.0000 0.70700  0.75760  0.61990  Biso   1.000  O
  O27      1.0000 0.65460  0.77550  0.47060  Biso   1.000  O
  O28      1.0000 0.83260  0.82484  0.35030  Biso   1.000  O
  O29      1.0000 0.74550  0.80821  0.28680  Biso   1.000  O
  O30      1.0000 0.34610  0.16731  0.64720  Biso   1.000  O
  O31      1.0000 0.76010  0.11340  0.05070  Biso   1.000  O
  O32      1.0000 0.33870  0.13239  0.53030  Biso   1.000  O
  O33      1.0000 0.84010  0.13250  0.99010  Biso   1.000  O
  O34      1.0000 0.08840  0.80420  0.96270  Biso   1.000  O
  C44      1.0000 0.80090  0.91180  0.87780  Biso   1.000  C
  C45      1.0000 0.78700  0.84250  0.80310  Biso   1.000  C
  C46      1.0000 0.79470  0.82610  0.29310  Biso   1.000  C
  C47      1.0000 0.86020  0.91020  0.01130  Biso   1.000  C
  C48      1.0000 0.81030  0.84980  0.22160  Biso   1.000  C
  C49      1.0000 0.76960  0.81840  0.72790  Biso   1.000  C
  C50      1.0000 0.84760  0.96160  0.01650  Biso   1.000  C
  C51      1.0000 0.84120  0.88910  0.08560  Biso   1.000  C
  C52      1.0000 0.80470  0.10440  0.02090  Biso   1.000  C
  C53      1.0000 0.82010  0.05500  0.02050  Biso   1.000  C
  C54      1.0000 0.77910  0.88910  0.80980  Biso   1.000  C
  C55      1.0000 0.82910  0.88740  0.93890  Biso   1.000  C
  C56      1.0000 0.81350  0.81780  0.86550  Biso   1.000  C
  C57      1.0000 0.83450  0.84020  0.93200  Biso   1.000  C
  C58      1.0000 0.92200  0.89980  0.00120  Biso   1.000  C
  C59      1.0000 0.79200  0.86460  0.08450  Biso   1.000  C
  C60      1.0000 0.87170  0.89760  0.15660  Biso   1.000  C
  C61      1.0000 0.79410  0.97520  0.02710  Biso   1.000  C
  C62      1.0000 0.77980  0.02230  0.02940  Biso   1.000  C
  C63      1.0000 0.85710  0.87790  0.22350  Biso   1.000  C
  C64      1.0000 0.77550  0.84610  0.15200  Biso   1.000  C
  C65      1.0000 0.94190  0.91500  0.93380  Biso   1.000  C
  C66      1.0000 0.87320  0.04080  0.00890  Biso   1.000  C
  C67      1.0000 0.88630  0.99410  0.00610  Biso   1.000  C
  C68      1.0000 0.01820  0.86410  0.95660  Biso   1.000  C
  C69      1.0000 0.94970  0.86520  0.04130  Biso   1.000  C
  C70      1.0000 0.99890  0.84900  0.01950  Biso   1.000  C
  C71      1.0000 0.06850  0.83830  0.92570  Biso   1.000  C
  C72      1.0000 0.99030  0.89840  0.90790  Biso   1.000  C
  C73      1.0000 0.45680  0.02670  0.70720  Biso   1.000  C
  C74      1.0000 0.52560  0.96040  0.69500  Biso   1.000  C
  C75      1.0000 0.50890  0.89670  0.60640  Biso   1.000  C
  C76      1.0000 0.60320  0.91560  0.66080  Biso   1.000  C
  C77      1.0000 0.56700  0.88720  0.61490  Biso   1.000  C
  C78      1.0000 0.41630  0.06720  0.59230  Biso   1.000  C
  C79      1.0000 0.48910  0.93310  0.64600  Biso   1.000  C
  C80      1.0000 0.45100  0.03260  0.62840  Biso   1.000  C
  C81      1.0000 0.42690  0.05530  0.75290  Biso   1.000  C
  C82      1.0000 0.58290  0.95230  0.70090  Biso   1.000  C
  C83      1.0000 0.38880  0.09610  0.63870  Biso   1.000  C
  C84      1.0000 0.35420  0.13460  0.60210  Biso   1.000  C
  C85      1.0000 0.39370  0.09040  0.71910  Biso   1.000  C
  C86      1.0000 0.58870  0.84610  0.57900  Biso   1.000  C
  O35      1.0000 0.55650  0.82220  0.53380  Biso   1.000  O
  O36      1.0000 0.08840  0.85140  0.86160  Biso   1.000  O
  O37      1.0000 0.67210  0.77170  0.48680  Biso   1.000  O
  O38      1.0000 0.80880  0.80140  0.58580  Biso   1.000  O
  O39      1.0000 0.75040  0.80490  0.45480  Biso   1.000  O
  O40      1.0000 0.71870  0.75530  0.59250  Biso   1.000  O
  Zr7      1.0000 0.83395  0.20733  0.96643  Biso   1.000  Zr
  Zr8      1.0000 0.70196  0.23111  0.87064  Biso   1.000  Zr
  Zr9      1.0000 0.78593  0.32190  0.94742  Biso   1.000  Zr
  O41      1.0000 0.70740  0.29220  0.93410  Biso   1.000  O
  O42      1.0000 0.86100  0.33557  0.89660  Biso   1.000  O
  O43      1.0000 0.76070  0.33962  0.82250  Biso   1.000  O
  O44      1.0000 0.70910  0.27799  0.77440  Biso   1.000  O
  O45      1.0000 0.75060  0.32380  0.06210  Biso   1.000  O
  O46      1.0000 0.79300  0.25760  0.88010  Biso   1.000  O
  O47      1.0000 0.84540  0.27550  0.02940  Biso   1.000  O
  O48      1.0000 0.66740  0.32484  0.14970  Biso   1.000  O
  O49      1.0000 0.75450  0.30821  0.21320  Biso   1.000  O
  O50      1.0000 0.15390  0.66731  0.85280  Biso   1.000  O
  O51      1.0000 0.73990  0.61340  0.44930  Biso   1.000  O
  O52      1.0000 0.16130  0.63239  0.96970  Biso   1.000  O
  O53      1.0000 0.65990  0.63250  0.50990  Biso   1.000  O
  O54      1.0000 0.41160  0.30420  0.53730  Biso   1.000  O
  C87      1.0000 0.69910  0.41180  0.62220  Biso   1.000  C
  C88      1.0000 0.71300  0.34250  0.69690  Biso   1.000  C
  C89      1.0000 0.70530  0.32610  0.20690  Biso   1.000  C
  C90      1.0000 0.63980  0.41020  0.48870  Biso   1.000  C
  C91      1.0000 0.68970  0.34980  0.27840  Biso   1.000  C
  C92      1.0000 0.73040  0.31840  0.77210  Biso   1.000  C
  C93      1.0000 0.65240  0.46160  0.48350  Biso   1.000  C
  C94      1.0000 0.65880  0.38910  0.41440  Biso   1.000  C
  C95      1.0000 0.69530  0.60440  0.47910  Biso   1.000  C
  C96      1.0000 0.67990  0.55500  0.47950  Biso   1.000  C
  C97      1.0000 0.72090  0.38910  0.69020  Biso   1.000  C
  C98      1.0000 0.67090  0.38740  0.56110  Biso   1.000  C
  C99      1.0000 0.68650  0.31780  0.63450  Biso   1.000  C
  C100     1.0000 0.66550  0.34020  0.56800  Biso   1.000  C
  C101     1.0000 0.57800  0.39980  0.49880  Biso   1.000  C
  C102     1.0000 0.70800  0.36460  0.41550  Biso   1.000  C
  C103     1.0000 0.62830  0.39760  0.34340  Biso   1.000  C
  C104     1.0000 0.70590  0.47520  0.47290  Biso   1.000  C
  C105     1.0000 0.72020  0.52230  0.47060  Biso   1.000  C
  C106     1.0000 0.64290  0.37790  0.27650  Biso   1.000  C
  C107     1.0000 0.72450  0.34610  0.34800  Biso   1.000  C
  C108     1.0000 0.55810  0.41500  0.56620  Biso   1.000  C
  C109     1.0000 0.62680  0.54080  0.49110  Biso   1.000  C
  C110     1.0000 0.61370  0.49410  0.49390  Biso   1.000  C
  C111     1.0000 0.48180  0.36410  0.54340  Biso   1.000  C
  C112     1.0000 0.55030  0.36520  0.45870  Biso   1.000  C
  C113     1.0000 0.50110  0.34900  0.48050  Biso   1.000  C
  C114     1.0000 0.43150  0.33830  0.57430  Biso   1.000  C
  C115     1.0000 0.50970  0.39840  0.59210  Biso   1.000  C
  C116     1.0000 0.04320  0.52670  0.79280  Biso   1.000  C
  C117     1.0000 0.97440  0.46040  0.80500  Biso   1.000  C
  C118     1.0000 0.99110  0.39670  0.89360  Biso   1.000  C
  C119     1.0000 0.89680  0.41560  0.83920  Biso   1.000  C
  C120     1.0000 0.93300  0.38720  0.88510  Biso   1.000  C
  C121     1.0000 0.08370  0.56720  0.90770  Biso   1.000  C
  C122     1.0000 0.01090  0.43310  0.85400  Biso   1.000  C
  C123     1.0000 0.04900  0.53260  0.87160  Biso   1.000  C
  C124     1.0000 0.07310  0.55530  0.74710  Biso   1.000  C
  C125     1.0000 0.91710  0.45230  0.79910  Biso   1.000  C
  C126     1.0000 0.11120  0.59610  0.86130  Biso   1.000  C
  C127     1.0000 0.14580  0.63460  0.89790  Biso   1.000  C
  C128     1.0000 0.10630  0.59040  0.78090  Biso   1.000  C
  C129     1.0000 0.91130  0.34610  0.92100  Biso   1.000  C
  O55      1.0000 0.94350  0.32220  0.96620  Biso   1.000  O
  O56      1.0000 0.41160  0.35140  0.63840  Biso   1.000  O
  O57      1.0000 0.82790  0.27170  0.01320  Biso   1.000  O
  O58      1.0000 0.69120  0.30140  0.91420  Biso   1.000  O
  O59      1.0000 0.74960  0.30490  0.04520  Biso   1.000  O
  O60      1.0000 0.78130  0.25530  0.90750  Biso   1.000  O
  Zr10     1.0000 0.33395  0.70733  0.96643  Biso   1.000  Zr
  Zr11     1.0000 0.20196  0.73111  0.87064  Biso   1.000  Zr
  Zr12     1.0000 0.28593  0.82190  0.94742  Biso   1.000  Zr
  O61      1.0000 0.20740  0.79220  0.93410  Biso   1.000  O
  O62      1.0000 0.36100  0.83557  0.89660  Biso   1.000  O
  O63      1.0000 0.26070  0.83962  0.82250  Biso   1.000  O
  O64      1.0000 0.20910  0.77799  0.77440  Biso   1.000  O
  O65      1.0000 0.25060  0.82380  0.06210  Biso   1.000  O
  O66      1.0000 0.29300  0.75760  0.88010  Biso   1.000  O
  O67      1.0000 0.34540  0.77550  0.02940  Biso   1.000  O
  O68      1.0000 0.16740  0.82484  0.14970  Biso   1.000  O
  O69      1.0000 0.25450  0.80821  0.21320  Biso   1.000  O
  O70      1.0000 0.65390  0.16731  0.85280  Biso   1.000  O
  O71      1.0000 0.23990  0.11340  0.44930  Biso   1.000  O
  O72      1.0000 0.66130  0.13239  0.96970  Biso   1.000  O
  O73      1.0000 0.15990  0.13250  0.50990  Biso   1.000  O
  O74      1.0000 0.91160  0.80420  0.53730  Biso   1.000  O
  C130     1.0000 0.19910  0.91180  0.62220  Biso   1.000  C
  C131     1.0000 0.21300  0.84250  0.69690  Biso   1.000  C
  C132     1.0000 0.20530  0.82610  0.20690  Biso   1.000  C
  C133     1.0000 0.13980  0.91020  0.48870  Biso   1.000  C
  C134     1.0000 0.18970  0.84980  0.27840  Biso   1.000  C
  C135     1.0000 0.23040  0.81840  0.77210  Biso   1.000  C
  C136     1.0000 0.15240  0.96160  0.48350  Biso   1.000  C
  C137     1.0000 0.15880  0.88910  0.41440  Biso   1.000  C
  C138     1.0000 0.19530  0.10440  0.47910  Biso   1.000  C
  C139     1.0000 0.17990  0.05500  0.47950  Biso   1.000  C
  C140     1.0000 0.22090  0.88910  0.69020  Biso   1.000  C
  C141     1.0000 0.17090  0.88740  0.56110  Biso   1.000  C
  C142     1.0000 0.18650  0.81780  0.63450  Biso   1.000  C
  C143     1.0000 0.16550  0.84020  0.56800  Biso   1.000  C
  C144     1.0000 0.07800  0.89980  0.49880  Biso   1.000  C
  C145     1.0000 0.20800  0.86460  0.41550  Biso   1.000  C
  C146     1.0000 0.12830  0.89760  0.34340  Biso   1.000  C
  C147     1.0000 0.20590  0.97520  0.47290  Biso   1.000  C
  C148     1.0000 0.22020  0.02230  0.47060  Biso   1.000  C
  C149     1.0000 0.14290  0.87790  0.27650  Biso   1.000  C
  C150     1.0000 0.22450  0.84610  0.34800  Biso   1.000  C
  C151     1.0000 0.05810  0.91500  0.56620  Biso   1.000  C
  C152     1.0000 0.12680  0.04080  0.49110  Biso   1.000  C
  C153     1.0000 0.11370  0.99410  0.49390  Biso   1.000  C
  C154     1.0000 0.98180  0.86410  0.54340  Biso   1.000  C
  C155     1.0000 0.05030  0.86520  0.45870  Biso   1.000  C
  C156     1.0000 0.00110  0.84900  0.48050  Biso   1.000  C
  C157     1.0000 0.93150  0.83830  0.57430  Biso   1.000  C
  C158     1.0000 0.00970  0.89840  0.59210  Biso   1.000  C
  C159     1.0000 0.54320  0.02670  0.79280  Biso   1.000  C
  C160     1.0000 0.47440  0.96040  0.80500  Biso   1.000  C
  C161     1.0000 0.49110  0.89670  0.89360  Biso   1.000  C
  C162     1.0000 0.39680  0.91560  0.83920  Biso   1.000  C
  C163     1.0000 0.43300  0.88720  0.88510  Biso   1.000  C
  C164     1.0000 0.58370  0.06720  0.90770  Biso   1.000  C
  C165     1.0000 0.51090  0.93310  0.85400  Biso   1.000  C
  C166     1.0000 0.54900  0.03260  0.87160  Biso   1.000  C
  C167     1.0000 0.57310  0.05530  0.74710  Biso   1.000  C
  C168     1.0000 0.41710  0.95230  0.79910  Biso   1.000  C
  C169     1.0000 0.61120  0.09610  0.86130  Biso   1.000  C
  C170     1.0000 0.64580  0.13460  0.89790  Biso   1.000  C
  C171     1.0000 0.60630  0.09040  0.78090  Biso   1.000  C
  C172     1.0000 0.41130  0.84610  0.92100  Biso   1.000  C
  O75      1.0000 0.44350  0.82220  0.96620  Biso   1.000  O
  O76      1.0000 0.91160  0.85140  0.63840  Biso   1.000  O
  O77      1.0000 0.32790  0.77170  0.01320  Biso   1.000  O
  O78      1.0000 0.19120  0.80140  0.91420  Biso   1.000  O
  O79      1.0000 0.24960  0.80490  0.04520  Biso   1.000  O
  O80      1.0000 0.28130  0.75530  0.90750  Biso   1.000  O
  Zr13     1.0000 0.83395  0.79267  0.46643  Biso   1.000  Zr
  Zr14     1.0000 0.70196  0.76889  0.37064  Biso   1.000  Zr
  Zr15     1.0000 0.78593  0.67810  0.44742  Biso   1.000  Zr
  O81      1.0000 0.70740  0.70780  0.43410  Biso   1.000  O
  O82      1.0000 0.86100  0.66443  0.39660  Biso   1.000  O
  O83      1.0000 0.76070  0.66038  0.32250  Biso   1.000  O
  O84      1.0000 0.70910  0.72201  0.27440  Biso   1.000  O
  O85      1.0000 0.75060  0.67620  0.56210  Biso   1.000  O
  O86      1.0000 0.79300  0.74240  0.38010  Biso   1.000  O
  O87      1.0000 0.84540  0.72450  0.52940  Biso   1.000  O
  O88      1.0000 0.66740  0.67516  0.64970  Biso   1.000  O
  O89      1.0000 0.75450  0.69179  0.71320  Biso   1.000  O
  O90      1.0000 0.15390  0.33269  0.35280  Biso   1.000  O
  O91      1.0000 0.73990  0.38660  0.94930  Biso   1.000  O
  O92      1.0000 0.16130  0.36761  0.46970  Biso   1.000  O
  O93      1.0000 0.65990  0.36750  0.00990  Biso   1.000  O
  O94      1.0000 0.41160  0.69580  0.03730  Biso   1.000  O
  C173     1.0000 0.69910  0.58820  0.12220  Biso   1.000  C
  C174     1.0000 0.71300  0.65750  0.19690  Biso   1.000  C
  C175     1.0000 0.70530  0.67390  0.70690  Biso   1.000  C
  C176     1.0000 0.63980  0.58980  0.98870  Biso   1.000  C
  C177     1.0000 0.68970  0.65020  0.77840  Biso   1.000  C
  C178     1.0000 0.73040  0.68160  0.27210  Biso   1.000  C
  C179     1.0000 0.65240  0.53840  0.98350  Biso   1.000  C
  C180     1.0000 0.65880  0.61090  0.91440  Biso   1.000  C
  C181     1.0000 0.69530  0.39560  0.97910  Biso   1.000  C
  C182     1.0000 0.67990  0.44500  0.97950  Biso   1.000  C
  C183     1.0000 0.72090  0.61090  0.19020  Biso   1.000  C
  C184     1.0000 0.67090  0.61260  0.06110  Biso   1.000  C
  C185     1.0000 0.68650  0.68220  0.13450  Biso   1.000  C
  C186     1.0000 0.66550  0.65980  0.06800  Biso   1.000  C
  C187     1.0000 0.57800  0.60020  0.99880  Biso   1.000  C
  C188     1.0000 0.70800  0.63540  0.91550  Biso   1.000  C
  C189     1.0000 0.62830  0.60240  0.84340  Biso   1.000  C
  C190     1.0000 0.70590  0.52480  0.97290  Biso   1.000  C
  C191     1.0000 0.72020  0.47770  0.97060  Biso   1.000  C
  C192     1.0000 0.64290  0.62210  0.77650  Biso   1.000  C
  C193     1.0000 0.72450  0.65390  0.84800  Biso   1.000  C
  C194     1.0000 0.55810  0.58500  0.06620  Biso   1.000  C
  C195     1.0000 0.62680  0.45920  0.99110  Biso   1.000  C
  C196     1.0000 0.61370  0.50590  0.99390  Biso   1.000  C
  C197     1.0000 0.48180  0.63590  0.04340  Biso   1.000  C
  C198     1.0000 0.55030  0.63480  0.95870  Biso   1.000  C
  C199     1.0000 0.50110  0.65100  0.98050  Biso   1.000  C
  C200     1.0000 0.43150  0.66170  0.07430  Biso   1.000  C
  C201     1.0000 0.50970  0.60160  0.09210  Biso   1.000  C
  C202     1.0000 0.04320  0.47330  0.29280  Biso   1.000  C
  C203     1.0000 0.97440  0.53960  0.30500  Biso   1.000  C
  C204     1.0000 0.99110  0.60330  0.39360  Biso   1.000  C
  C205     1.0000 0.89680  0.58440  0.33920  Biso   1.000  C
  C206     1.0000 0.93300  0.61280  0.38510  Biso   1.000  C
  C207     1.0000 0.08370  0.43280  0.40770  Biso   1.000  C
  C208     1.0000 0.01090  0.56690  0.35400  Biso   1.000  C
  C209     1.0000 0.04900  0.46740  0.37160  Biso   1.000  C
  C210     1.0000 0.07310  0.44470  0.24710  Biso   1.000  C
  C211     1.0000 0.91710  0.54770  0.29910  Biso   1.000  C
  C212     1.0000 0.11120  0.40390  0.36130  Biso   1.000  C
  C213     1.0000 0.14580  0.36540  0.39790  Biso   1.000  C
  C214     1.0000 0.10630  0.40960  0.28090  Biso   1.000  C
  C215     1.0000 0.91130  0.65390  0.42100  Biso   1.000  C
  O95      1.0000 0.94350  0.67780  0.46620  Biso   1.000  O
  O96      1.0000 0.41160  0.64860  0.13840  Biso   1.000  O
  O97      1.0000 0.82790  0.72830  0.51320  Biso   1.000  O
  O98      1.0000 0.69120  0.69860  0.41420  Biso   1.000  O
  O99      1.0000 0.74960  0.69510  0.54520  Biso   1.000  O
  O100     1.0000 0.78130  0.74470  0.40750  Biso   1.000  O
  Zr16     1.0000 0.33395  0.29267  0.46643  Biso   1.000  Zr
  Zr17     1.0000 0.20196  0.26889  0.37064  Biso   1.000  Zr
  Zr18     1.0000 0.28593  0.17810  0.44742  Biso   1.000  Zr
  O101     1.0000 0.20740  0.20780  0.43410  Biso   1.000  O
  O102     1.0000 0.36100  0.16443  0.39660  Biso   1.000  O
  O103     1.0000 0.26070  0.16038  0.32250  Biso   1.000  O
  O104     1.0000 0.20910  0.22201  0.27440  Biso   1.000  O
  O105     1.0000 0.25060  0.17620  0.56210  Biso   1.000  O
  O106     1.0000 0.29300  0.24240  0.38010  Biso   1.000  O
  O107     1.0000 0.34540  0.22450  0.52940  Biso   1.000  O
  O108     1.0000 0.16740  0.17516  0.64970  Biso   1.000  O
  O109     1.0000 0.25450  0.19179  0.71320  Biso   1.000  O
  O110     1.0000 0.65390  0.83269  0.35280  Biso   1.000  O
  O111     1.0000 0.23990  0.88660  0.94930  Biso   1.000  O
  O112     1.0000 0.66130  0.86761  0.46970  Biso   1.000  O
  O113     1.0000 0.15990  0.86750  0.00990  Biso   1.000  O
  O114     1.0000 0.91160  0.19580  0.03730  Biso   1.000  O
  C216     1.0000 0.19910  0.08820  0.12220  Biso   1.000  C
  C217     1.0000 0.21300  0.15750  0.19690  Biso   1.000  C
  C218     1.0000 0.20530  0.17390  0.70690  Biso   1.000  C
  C219     1.0000 0.13980  0.08980  0.98870  Biso   1.000  C
  C220     1.0000 0.18970  0.15020  0.77840  Biso   1.000  C
  C221     1.0000 0.23040  0.18160  0.27210  Biso   1.000  C
  C222     1.0000 0.15240  0.03840  0.98350  Biso   1.000  C
  C223     1.0000 0.15880  0.11090  0.91440  Biso   1.000  C
  C224     1.0000 0.19530  0.89560  0.97910  Biso   1.000  C
  C225     1.0000 0.17990  0.94500  0.97950  Biso   1.000  C
  C226     1.0000 0.22090  0.11090  0.19020  Biso   1.000  C
  C227     1.0000 0.17090  0.11260  0.06110  Biso   1.000  C
  C228     1.0000 0.18650  0.18220  0.13450  Biso   1.000  C
  C229     1.0000 0.16550  0.15980  0.06800  Biso   1.000  C
  C230     1.0000 0.07800  0.10020  0.99880  Biso   1.000  C
  C231     1.0000 0.20800  0.13540  0.91550  Biso   1.000  C
  C232     1.0000 0.12830  0.10240  0.84340  Biso   1.000  C
  C233     1.0000 0.20590  0.02480  0.97290  Biso   1.000  C
  C234     1.0000 0.22020  0.97770  0.97060  Biso   1.000  C
  C235     1.0000 0.14290  0.12210  0.77650  Biso   1.000  C
  C236     1.0000 0.22450  0.15390  0.84800  Biso   1.000  C
  C237     1.0000 0.05810  0.08500  0.06620  Biso   1.000  C
  C238     1.0000 0.12680  0.95920  0.99110  Biso   1.000  C
  C239     1.0000 0.11370  0.00590  0.99390  Biso   1.000  C
  C240     1.0000 0.98180  0.13590  0.04340  Biso   1.000  C
  C241     1.0000 0.05030  0.13480  0.95870  Biso   1.000  C
  C242     1.0000 0.00110  0.15100  0.98050  Biso   1.000  C
  C243     1.0000 0.93150  0.16170  0.07430  Biso   1.000  C
  C244     1.0000 0.00970  0.10160  0.09210  Biso   1.000  C
  C245     1.0000 0.54320  0.97330  0.29280  Biso   1.000  C
  C246     1.0000 0.47440  0.03960  0.30500  Biso   1.000  C
  C247     1.0000 0.49110  0.10330  0.39360  Biso   1.000  C
  C248     1.0000 0.39680  0.08440  0.33920  Biso   1.000  C
  C249     1.0000 0.43300  0.11280  0.38510  Biso   1.000  C
  C250     1.0000 0.58370  0.93280  0.40770  Biso   1.000  C
  C251     1.0000 0.51090  0.06690  0.35400  Biso   1.000  C
  C252     1.0000 0.54900  0.96740  0.37160  Biso   1.000  C
  C253     1.0000 0.57310  0.94470  0.24710  Biso   1.000  C
  C254     1.0000 0.41710  0.04770  0.29910  Biso   1.000  C
  C255     1.0000 0.61120  0.90390  0.36130  Biso   1.000  C
  C256     1.0000 0.64580  0.86540  0.39790  Biso   1.000  C
  C257     1.0000 0.60630  0.90960  0.28090  Biso   1.000  C
  C258     1.0000 0.41130  0.15390  0.42100  Biso   1.000  C
  O115     1.0000 0.44350  0.17780  0.46620  Biso   1.000  O
  O116     1.0000 0.91160  0.14860  0.13840  Biso   1.000  O
  O117     1.0000 0.32790  0.22830  0.51320  Biso   1.000  O
  O118     1.0000 0.19120  0.19860  0.41420  Biso   1.000  O
  O119     1.0000 0.24960  0.19510  0.54520  Biso   1.000  O
  O120     1.0000 0.28130  0.24470  0.40750  Biso   1.000  O
  Zr19     1.0000 0.16605  0.79267  0.03357  Biso   1.000  Zr
  Zr20     1.0000 0.29804  0.76889  0.12936  Biso   1.000  Zr
  Zr21     1.0000 0.21407  0.67810  0.05258  Biso   1.000  Zr
  O121     1.0000 0.29260  0.70780  0.06590  Biso   1.000  O
  O122     1.0000 0.13900  0.66443  0.10340  Biso   1.000  O
  O123     1.0000 0.23930  0.66038  0.17750  Biso   1.000  O
  O124     1.0000 0.29090  0.72201  0.22560  Biso   1.000  O
  O125     1.0000 0.24940  0.67620  0.93790  Biso   1.000  O
  O126     1.0000 0.20700  0.74240  0.11990  Biso   1.000  O
  O127     1.0000 0.15460  0.72450  0.97060  Biso   1.000  O
  O128     1.0000 0.33260  0.67516  0.85030  Biso   1.000  O
  O129     1.0000 0.24550  0.69179  0.78680  Biso   1.000  O
  O130     1.0000 0.84610  0.33269  0.14720  Biso   1.000  O
  O131     1.0000 0.26010  0.38660  0.55070  Biso   1.000  O
  O132     1.0000 0.83870  0.36761  0.03030  Biso   1.000  O
  O133     1.0000 0.34010  0.36750  0.49010  Biso   1.000  O
  O134     1.0000 0.58840  0.69580  0.46270  Biso   1.000  O
  C259     1.0000 0.30090  0.58820  0.37780  Biso   1.000  C
  C260     1.0000 0.28700  0.65750  0.30310  Biso   1.000  C
  C261     1.0000 0.29470  0.67390  0.79310  Biso   1.000  C
  C262     1.0000 0.36020  0.58980  0.51130  Biso   1.000  C
  C263     1.0000 0.31030  0.65020  0.72160  Biso   1.000  C
  C264     1.0000 0.26960  0.68160  0.22790  Biso   1.000  C
  C265     1.0000 0.34760  0.53840  0.51650  Biso   1.000  C
  C266     1.0000 0.34120  0.61090  0.58560  Biso   1.000  C
  C267     1.0000 0.30470  0.39560  0.52090  Biso   1.000  C
  C268     1.0000 0.32010  0.44500  0.52050  Biso   1.000  C
  C269     1.0000 0.27910  0.61090  0.30980  Biso   1.000  C
  C270     1.0000 0.32910  0.61260  0.43890  Biso   1.000  C
  C271     1.0000 0.31350  0.68220  0.36550  Biso   1.000  C
  C272     1.0000 0.33450  0.65980  0.43200  Biso   1.000  C
  C273     1.0000 0.42200  0.60020  0.50120  Biso   1.000  C
  C274     1.0000 0.29200  0.63540  0.58450  Biso   1.000  C
  C275     1.0000 0.37170  0.60240  0.65660  Biso   1.000  C
  C276     1.0000 0.29410  0.52480  0.52710  Biso   1.000  C
  C277     1.0000 0.27980  0.47770  0.52940  Biso   1.000  C
  C278     1.0000 0.35710  0.62210  0.72350  Biso   1.000  C
  C279     1.0000 0.27550  0.65390  0.65200  Biso   1.000  C
  C280     1.0000 0.44190  0.58500  0.43380  Biso   1.000  C
  C281     1.0000 0.37320  0.45920  0.50890  Biso   1.000  C
  C282     1.0000 0.38630  0.50590  0.50610  Biso   1.000  C
  C283     1.0000 0.51820  0.63590  0.45660  Biso   1.000  C
  C284     1.0000 0.44970  0.63480  0.54130  Biso   1.000  C
  C285     1.0000 0.49890  0.65100  0.51950  Biso   1.000  C
  C286     1.0000 0.56850  0.66170  0.42570  Biso   1.000  C
  C287     1.0000 0.49030  0.60160  0.40790  Biso   1.000  C
  C288     1.0000 0.95680  0.47330  0.20720  Biso   1.000  C
  C289     1.0000 0.02560  0.53960  0.19500  Biso   1.000  C
  C290     1.0000 0.00890  0.60330  0.10640  Biso   1.000  C
  C291     1.0000 0.10320  0.58440  0.16080  Biso   1.000  C
  C292     1.0000 0.06700  0.61280  0.11490  Biso   1.000  C
  C293     1.0000 0.91630  0.43280  0.09230  Biso   1.000  C
  C294     1.0000 0.98910  0.56690  0.14600  Biso   1.000  C
  C295     1.0000 0.95100  0.46740  0.12840  Biso   1.000  C
  C296     1.0000 0.92690  0.44470  0.25290  Biso   1.000  C
  C297     1.0000 0.08290  0.54770  0.20090  Biso   1.000  C
  C298     1.0000 0.88880  0.40390  0.13870  Biso   1.000  C
  C299     1.0000 0.85420  0.36540  0.10210  Biso   1.000  C
  C300     1.0000 0.89370  0.40960  0.21910  Biso   1.000  C
  C301     1.0000 0.08870  0.65390  0.07900  Biso   1.000  C
  O135     1.0000 0.05650  0.67780  0.03380  Biso   1.000  O
  O136     1.0000 0.58840  0.64860  0.36160  Biso   1.000  O
  O137     1.0000 0.17210  0.72830  0.98680  Biso   1.000  O
  O138     1.0000 0.30880  0.69860  0.08580  Biso   1.000  O
  O139     1.0000 0.25040  0.69510  0.95480  Biso   1.000  O
  O140     1.0000 0.21870  0.74470  0.09250  Biso   1.000  O
  Zr22     1.0000 0.66605  0.29267  0.03357  Biso   1.000  Zr
  Zr23     1.0000 0.79804  0.26889  0.12936  Biso   1.000  Zr
  Zr24     1.0000 0.71407  0.17810  0.05258  Biso   1.000  Zr
  O141     1.0000 0.79260  0.20780  0.06590  Biso   1.000  O
  O142     1.0000 0.63900  0.16443  0.10340  Biso   1.000  O
  O143     1.0000 0.73930  0.16038  0.17750  Biso   1.000  O
  O144     1.0000 0.79090  0.22201  0.22560  Biso   1.000  O
  O145     1.0000 0.74940  0.17620  0.93790  Biso   1.000  O
  O146     1.0000 0.70700  0.24240  0.11990  Biso   1.000  O
  O147     1.0000 0.65460  0.22450  0.97060  Biso   1.000  O
  O148     1.0000 0.83260  0.17516  0.85030  Biso   1.000  O
  O149     1.0000 0.74550  0.19179  0.78680  Biso   1.000  O
  O150     1.0000 0.34610  0.83269  0.14720  Biso   1.000  O
  O151     1.0000 0.76010  0.88660  0.55070  Biso   1.000  O
  O152     1.0000 0.33870  0.86761  0.03030  Biso   1.000  O
  O153     1.0000 0.84010  0.86750  0.49010  Biso   1.000  O
  O154     1.0000 0.08840  0.19580  0.46270  Biso   1.000  O
  C302     1.0000 0.80090  0.08820  0.37780  Biso   1.000  C
  C303     1.0000 0.78700  0.15750  0.30310  Biso   1.000  C
  C304     1.0000 0.79470  0.17390  0.79310  Biso   1.000  C
  C305     1.0000 0.86020  0.08980  0.51130  Biso   1.000  C
  C306     1.0000 0.81030  0.15020  0.72160  Biso   1.000  C
  C307     1.0000 0.76960  0.18160  0.22790  Biso   1.000  C
  C308     1.0000 0.84760  0.03840  0.51650  Biso   1.000  C
  C309     1.0000 0.84120  0.11090  0.58560  Biso   1.000  C
  C310     1.0000 0.80470  0.89560  0.52090  Biso   1.000  C
  C311     1.0000 0.82010  0.94500  0.52050  Biso   1.000  C
  C312     1.0000 0.77910  0.11090  0.30980  Biso   1.000  C
  C313     1.0000 0.82910  0.11260  0.43890  Biso   1.000  C
  C314     1.0000 0.81350  0.18220  0.36550  Biso   1.000  C
  C315     1.0000 0.83450  0.15980  0.43200  Biso   1.000  C
  C316     1.0000 0.92200  0.10020  0.50120  Biso   1.000  C
  C317     1.0000 0.79200  0.13540  0.58450  Biso   1.000  C
  C318     1.0000 0.87170  0.10240  0.65660  Biso   1.000  C
  C319     1.0000 0.79410  0.02480  0.52710  Biso   1.000  C
  C320     1.0000 0.77980  0.97770  0.52940  Biso   1.000  C
  C321     1.0000 0.85710  0.12210  0.72350  Biso   1.000  C
  C322     1.0000 0.77550  0.15390  0.65200  Biso   1.000  C
  C323     1.0000 0.94190  0.08500  0.43380  Biso   1.000  C
  C324     1.0000 0.87320  0.95920  0.50890  Biso   1.000  C
  C325     1.0000 0.88630  0.00590  0.50610  Biso   1.000  C
  C326     1.0000 0.01820  0.13590  0.45660  Biso   1.000  C
  C327     1.0000 0.94970  0.13480  0.54130  Biso   1.000  C
  C328     1.0000 0.99890  0.15100  0.51950  Biso   1.000  C
  C329     1.0000 0.06850  0.16170  0.42570  Biso   1.000  C
  C330     1.0000 0.99030  0.10160  0.40790  Biso   1.000  C
  C331     1.0000 0.45680  0.97330  0.20720  Biso   1.000  C
  C332     1.0000 0.52560  0.03960  0.19500  Biso   1.000  C
  C333     1.0000 0.50890  0.10330  0.10640  Biso   1.000  C
  C334     1.0000 0.60320  0.08440  0.16080  Biso   1.000  C
  C335     1.0000 0.56700  0.11280  0.11490  Biso   1.000  C
  C336     1.0000 0.41630  0.93280  0.09230  Biso   1.000  C
  C337     1.0000 0.48910  0.06690  0.14600  Biso   1.000  C
  C338     1.0000 0.45100  0.96740  0.12840  Biso   1.000  C
  C339     1.0000 0.42690  0.94470  0.25290  Biso   1.000  C
  C340     1.0000 0.58290  0.04770  0.20090  Biso   1.000  C
  C341     1.0000 0.38880  0.90390  0.13870  Biso   1.000  C
  C342     1.0000 0.35420  0.86540  0.10210  Biso   1.000  C
  C343     1.0000 0.39370  0.90960  0.21910  Biso   1.000  C
  C344     1.0000 0.58870  0.15390  0.07900  Biso   1.000  C
  O155     1.0000 0.55650  0.17780  0.03380  Biso   1.000  O
  O156     1.0000 0.08840  0.14860  0.36160  Biso   1.000  O
  O157     1.0000 0.67210  0.22830  0.98680  Biso   1.000  O
  O158     1.0000 0.80880  0.19860  0.08580  Biso   1.000  O
  O159     1.0000 0.75040  0.19510  0.95480  Biso   1.000  O
  O160     1.0000 0.71870  0.24470  0.09250  Biso   1.000  O
  C345     1.0000 0.00000  0.49410  0.75000  Biso   1.000  C
  C346     1.0000 0.50000  0.99410  0.75000  Biso   1.000  C
  C347     1.0000 0.00000  0.50590  0.25000  Biso   1.000  C
  C348     1.0000 0.50000  0.00590  0.25000  Biso   1.000  C
