data_image0
_cell_length_a       17.8736
_cell_length_b       17.8736
_cell_length_c       17.8736
_cell_angle_alpha    90
_cell_angle_beta     90
_cell_angle_gamma    90

_symmetry_space_group_name_H-M    "P 1"
_symmetry_int_tables_number       1

loop_
  _symmetry_equiv_pos_as_xyz
  'x, y, z'

loop_
  _atom_site_label
  _atom_site_occupancy
  _atom_site_fract_x
  _atom_site_fract_y
  _atom_site_fract_z
  _atom_site_thermal_displace_type
  _atom_site_B_iso_or_equiv
  _atom_site_type_symbol
  Zr1      1.0000 0.36080  0.51120  0.00880  Biso   1.000  Zr
  O1       1.0000 0.30950  0.62440  0.02970  Biso   1.000  O
  O2       1.0000 0.29190  0.40610  0.00720  Biso   1.000  O
  C1       1.0000 0.33680  0.68420  0.02250  Biso   1.000  C
  C2       1.0000 0.30650  0.34230  0.00130  Biso   1.000  C
  C3       1.0000 0.24280  0.28690  0.00270  Biso   1.000  C
  H1       1.0000 0.19020  0.30430  0.99800  Biso   1.000  H
  O3       1.0000 0.40710  0.70560  0.02090  Biso   1.000  O
  O4       1.0000 0.37290  0.31400  0.99630  Biso   1.000  O
  C4       1.0000 0.28840  0.75410  0.02640  Biso   1.000  C
  H2       1.0000 0.31600  0.79480  0.02410  Biso   1.000  H
  O5       1.0000 0.43620  0.57710  0.09040  Biso   1.000  O
  H3       1.0000 0.41110  0.60840  0.12390  Biso   1.000  H
  O6       1.0000 0.44990  0.55610  0.06620  Biso   1.000  O
  Zr2      1.0000 0.13920  0.98880  0.00880  Biso   1.000  Zr
  O7       1.0000 0.19050  0.87560  0.02970  Biso   1.000  O
  O8       1.0000 0.20810  0.09390  0.00720  Biso   1.000  O
  C5       1.0000 0.16320  0.81580  0.02250  Biso   1.000  C
  C6       1.0000 0.19350  0.15770  0.00130  Biso   1.000  C
  C7       1.0000 0.25720  0.21310  0.00270  Biso   1.000  C
  H4       1.0000 0.30980  0.19570  0.99800  Biso   1.000  H
  O9       1.0000 0.09290  0.79440  0.02090  Biso   1.000  O
  O10      1.0000 0.12710  0.18600  0.99630  Biso   1.000  O
  C8       1.0000 0.21160  0.74590  0.02640  Biso   1.000  C
  H5       1.0000 0.18400  0.70520  0.02410  Biso   1.000  H
  O11      1.0000 0.06380  0.92290  0.09040  Biso   1.000  O
  H6       1.0000 0.08890  0.89160  0.12390  Biso   1.000  H
  O12      1.0000 0.05010  0.94390  0.06620  Biso   1.000  O
  Zr3      1.0000 0.13920  0.51120  0.49120  Biso   1.000  Zr
  O13      1.0000 0.19050  0.62440  0.47030  Biso   1.000  O
  O14      1.0000 0.20810  0.40610  0.49280  Biso   1.000  O
  C9       1.0000 0.16320  0.68420  0.47750  Biso   1.000  C
  C10      1.0000 0.19350  0.34230  0.49870  Biso   1.000  C
  C11      1.0000 0.25720  0.28690  0.49730  Biso   1.000  C
  H7       1.0000 0.30980  0.30430  0.50200  Biso   1.000  H
  O15      1.0000 0.09290  0.70560  0.47910  Biso   1.000  O
  O16      1.0000 0.12710  0.31400  0.50370  Biso   1.000  O
  C12      1.0000 0.21160  0.75410  0.47360  Biso   1.000  C
  H8       1.0000 0.18400  0.79480  0.47590  Biso   1.000  H
  O17      1.0000 0.06380  0.57710  0.40960  Biso   1.000  O
  H9       1.0000 0.08890  0.60840  0.37610  Biso   1.000  H
  O18      1.0000 0.05010  0.55610  0.43380  Biso   1.000  O
  Zr4      1.0000 0.36080  0.98880  0.49120  Biso   1.000  Zr
  O19      1.0000 0.30950  0.87560  0.47030  Biso   1.000  O
  O20      1.0000 0.29190  0.09390  0.49280  Biso   1.000  O
  C13      1.0000 0.33680  0.81580  0.47750  Biso   1.000  C
  C14      1.0000 0.30650  0.15770  0.49870  Biso   1.000  C
  C15      1.0000 0.24280  0.21310  0.49730  Biso   1.000  C
  H10      1.0000 0.19020  0.19570  0.50200  Biso   1.000  H
  O21      1.0000 0.40710  0.79440  0.47910  Biso   1.000  O
  O22      1.0000 0.37290  0.18600  0.50370  Biso   1.000  O
  C16      1.0000 0.28840  0.74590  0.47360  Biso   1.000  C
  H11      1.0000 0.31600  0.70520  0.47590  Biso   1.000  H
  O23      1.0000 0.43620  0.92290  0.40960  Biso   1.000  O
  H12      1.0000 0.41110  0.89160  0.37610  Biso   1.000  H
  O24      1.0000 0.44990  0.94390  0.43380  Biso   1.000  O
  Zr5      1.0000 0.00880  0.36080  0.51120  Biso   1.000  Zr
  O25      1.0000 0.02970  0.30950  0.62440  Biso   1.000  O
  O26      1.0000 0.00720  0.29190  0.40610  Biso   1.000  O
  C17      1.0000 0.02250  0.33680  0.68420  Biso   1.000  C
  C18      1.0000 0.00130  0.30650  0.34230  Biso   1.000  C
  C19      1.0000 0.00270  0.24280  0.28690  Biso   1.000  C
  H13      1.0000 0.99800  0.19020  0.30430  Biso   1.000  H
  O27      1.0000 0.02090  0.40710  0.70560  Biso   1.000  O
  O28      1.0000 0.99630  0.37290  0.31400  Biso   1.000  O
  C20      1.0000 0.02640  0.28840  0.75410  Biso   1.000  C
  H14      1.0000 0.02410  0.31600  0.79480  Biso   1.000  H
  O29      1.0000 0.09040  0.43620  0.57710  Biso   1.000  O
  H15      1.0000 0.12390  0.41110  0.60840  Biso   1.000  H
  O30      1.0000 0.06620  0.44990  0.55610  Biso   1.000  O
  Zr6      1.0000 0.00880  0.13920  0.98880  Biso   1.000  Zr
  O31      1.0000 0.02970  0.19050  0.87560  Biso   1.000  O
  O32      1.0000 0.00720  0.20810  0.09390  Biso   1.000  O
  C21      1.0000 0.02250  0.16320  0.81580  Biso   1.000  C
  C22      1.0000 0.00130  0.19350  0.15770  Biso   1.000  C
  C23      1.0000 0.00270  0.25720  0.21310  Biso   1.000  C
  H16      1.0000 0.99800  0.30980  0.19570  Biso   1.000  H
  O33      1.0000 0.02090  0.09290  0.79440  Biso   1.000  O
  O34      1.0000 0.99630  0.12710  0.18600  Biso   1.000  O
  C24      1.0000 0.02640  0.21160  0.74590  Biso   1.000  C
  H17      1.0000 0.02410  0.18400  0.70520  Biso   1.000  H
  O35      1.0000 0.09040  0.06380  0.92290  Biso   1.000  O
  H18      1.0000 0.12390  0.08890  0.89160  Biso   1.000  H
  O36      1.0000 0.06620  0.05010  0.94390  Biso   1.000  O
  Zr7      1.0000 0.49120  0.13920  0.51120  Biso   1.000  Zr
  O37      1.0000 0.47030  0.19050  0.62440  Biso   1.000  O
  O38      1.0000 0.49280  0.20810  0.40610  Biso   1.000  O
  C25      1.0000 0.47750  0.16320  0.68420  Biso   1.000  C
  C26      1.0000 0.49870  0.19350  0.34230  Biso   1.000  C
  C27      1.0000 0.49730  0.25720  0.28690  Biso   1.000  C
  H19      1.0000 0.50200  0.30980  0.30430  Biso   1.000  H
  O39      1.0000 0.47910  0.09290  0.70560  Biso   1.000  O
  O40      1.0000 0.50370  0.12710  0.31400  Biso   1.000  O
  C28      1.0000 0.47360  0.21160  0.75410  Biso   1.000  C
  H20      1.0000 0.47590  0.18400  0.79480  Biso   1.000  H
  O41      1.0000 0.40960  0.06380  0.57710  Biso   1.000  O
  H21      1.0000 0.37610  0.08890  0.60840  Biso   1.000  H
  O42      1.0000 0.43380  0.05010  0.55610  Biso   1.000  O
  Zr8      1.0000 0.49120  0.36080  0.98880  Biso   1.000  Zr
  O43      1.0000 0.47030  0.30950  0.87560  Biso   1.000  O
  O44      1.0000 0.49280  0.29190  0.09390  Biso   1.000  O
  C29      1.0000 0.47750  0.33680  0.81580  Biso   1.000  C
  C30      1.0000 0.49870  0.30650  0.15770  Biso   1.000  C
  C31      1.0000 0.49730  0.24280  0.21310  Biso   1.000  C
  H22      1.0000 0.50200  0.19020  0.19570  Biso   1.000  H
  O45      1.0000 0.47910  0.40710  0.79440  Biso   1.000  O
  O46      1.0000 0.50370  0.37290  0.18600  Biso   1.000  O
  C32      1.0000 0.47360  0.28840  0.74590  Biso   1.000  C
  H23      1.0000 0.47590  0.31600  0.70520  Biso   1.000  H
  O47      1.0000 0.40960  0.43620  0.92290  Biso   1.000  O
  H24      1.0000 0.37610  0.41110  0.89160  Biso   1.000  H
  O48      1.0000 0.43380  0.44990  0.94390  Biso   1.000  O
  Zr9      1.0000 0.51120  0.00880  0.36080  Biso   1.000  Zr
  O49      1.0000 0.62440  0.02970  0.30950  Biso   1.000  O
  O50      1.0000 0.40610  0.00720  0.29190  Biso   1.000  O
  C33      1.0000 0.68420  0.02250  0.33680  Biso   1.000  C
  C34      1.0000 0.34230  0.00130  0.30650  Biso   1.000  C
  C35      1.0000 0.28690  0.00270  0.24280  Biso   1.000  C
  H25      1.0000 0.30430  0.99800  0.19020  Biso   1.000  H
  O51      1.0000 0.70560  0.02090  0.40710  Biso   1.000  O
  O52      1.0000 0.31400  0.99630  0.37290  Biso   1.000  O
  C36      1.0000 0.75410  0.02640  0.28840  Biso   1.000  C
  H26      1.0000 0.79480  0.02410  0.31600  Biso   1.000  H
  O53      1.0000 0.57710  0.09040  0.43620  Biso   1.000  O
  H27      1.0000 0.60840  0.12390  0.41110  Biso   1.000  H
  O54      1.0000 0.55610  0.06620  0.44990  Biso   1.000  O
  Zr10     1.0000 0.98880  0.00880  0.13920  Biso   1.000  Zr
  O55      1.0000 0.87560  0.02970  0.19050  Biso   1.000  O
  O56      1.0000 0.09390  0.00720  0.20810  Biso   1.000  O
  C37      1.0000 0.81580  0.02250  0.16320  Biso   1.000  C
  C38      1.0000 0.15770  0.00130  0.19350  Biso   1.000  C
  C39      1.0000 0.21310  0.00270  0.25720  Biso   1.000  C
  H28      1.0000 0.19570  0.99800  0.30980  Biso   1.000  H
  O57      1.0000 0.79440  0.02090  0.09290  Biso   1.000  O
  O58      1.0000 0.18600  0.99630  0.12710  Biso   1.000  O
  C40      1.0000 0.74590  0.02640  0.21160  Biso   1.000  C
  H29      1.0000 0.70520  0.02410  0.18400  Biso   1.000  H
  O59      1.0000 0.92290  0.09040  0.06380  Biso   1.000  O
  H30      1.0000 0.89160  0.12390  0.08890  Biso   1.000  H
  O60      1.0000 0.94390  0.06620  0.05010  Biso   1.000  O
  Zr11     1.0000 0.51120  0.49120  0.13920  Biso   1.000  Zr
  O61      1.0000 0.62440  0.47030  0.19050  Biso   1.000  O
  O62      1.0000 0.40610  0.49280  0.20810  Biso   1.000  O
  C41      1.0000 0.68420  0.47750  0.16320  Biso   1.000  C
  C42      1.0000 0.34230  0.49870  0.19350  Biso   1.000  C
  C43      1.0000 0.28690  0.49730  0.25720  Biso   1.000  C
  H31      1.0000 0.30430  0.50200  0.30980  Biso   1.000  H
  O63      1.0000 0.70560  0.47910  0.09290  Biso   1.000  O
  O64      1.0000 0.31400  0.50370  0.12710  Biso   1.000  O
  C44      1.0000 0.75410  0.47360  0.21160  Biso   1.000  C
  H32      1.0000 0.79480  0.47590  0.18400  Biso   1.000  H
  O65      1.0000 0.57710  0.40960  0.06380  Biso   1.000  O
  H33      1.0000 0.60840  0.37610  0.08890  Biso   1.000  H
  O66      1.0000 0.55610  0.43380  0.05010  Biso   1.000  O
  Zr12     1.0000 0.98880  0.49120  0.36080  Biso   1.000  Zr
  O67      1.0000 0.87560  0.47030  0.30950  Biso   1.000  O
  O68      1.0000 0.09390  0.49280  0.29190  Biso   1.000  O
  C45      1.0000 0.81580  0.47750  0.33680  Biso   1.000  C
  C46      1.0000 0.15770  0.49870  0.30650  Biso   1.000  C
  C47      1.0000 0.21310  0.49730  0.24280  Biso   1.000  C
  H34      1.0000 0.19570  0.50200  0.19020  Biso   1.000  H
  O69      1.0000 0.79440  0.47910  0.40710  Biso   1.000  O
  O70      1.0000 0.18600  0.50370  0.37290  Biso   1.000  O
  C48      1.0000 0.74590  0.47360  0.28840  Biso   1.000  C
  H35      1.0000 0.70520  0.47590  0.31600  Biso   1.000  H
  O71      1.0000 0.92290  0.40960  0.43620  Biso   1.000  O
  H36      1.0000 0.89160  0.37610  0.41110  Biso   1.000  H
  O72      1.0000 0.94390  0.43380  0.44990  Biso   1.000  O
  Zr13     1.0000 0.63920  0.48880  0.99120  Biso   1.000  Zr
  O73      1.0000 0.69050  0.37560  0.97030  Biso   1.000  O
  O74      1.0000 0.70810  0.59390  0.99280  Biso   1.000  O
  C49      1.0000 0.66320  0.31580  0.97750  Biso   1.000  C
  C50      1.0000 0.69350  0.65770  0.99870  Biso   1.000  C
  C51      1.0000 0.75720  0.71310  0.99730  Biso   1.000  C
  H37      1.0000 0.80980  0.69570  0.00200  Biso   1.000  H
  O75      1.0000 0.59290  0.29440  0.97910  Biso   1.000  O
  O76      1.0000 0.62710  0.68600  0.00370  Biso   1.000  O
  C52      1.0000 0.71160  0.24590  0.97360  Biso   1.000  C
  H38      1.0000 0.68400  0.20520  0.97590  Biso   1.000  H
  O77      1.0000 0.56380  0.42290  0.90960  Biso   1.000  O
  H39      1.0000 0.58890  0.39160  0.87610  Biso   1.000  H
  O78      1.0000 0.55010  0.44390  0.93380  Biso   1.000  O
  Zr14     1.0000 0.86080  0.01120  0.99120  Biso   1.000  Zr
  O79      1.0000 0.80950  0.12440  0.97030  Biso   1.000  O
  O80      1.0000 0.79190  0.90610  0.99280  Biso   1.000  O
  C53      1.0000 0.83680  0.18420  0.97750  Biso   1.000  C
  C54      1.0000 0.80650  0.84230  0.99870  Biso   1.000  C
  C55      1.0000 0.74280  0.78690  0.99730  Biso   1.000  C
  H40      1.0000 0.69020  0.80430  0.00200  Biso   1.000  H
  O81      1.0000 0.90710  0.20560  0.97910  Biso   1.000  O
  O82      1.0000 0.87290  0.81400  0.00370  Biso   1.000  O
  C56      1.0000 0.78840  0.25410  0.97360  Biso   1.000  C
  H41      1.0000 0.81600  0.29480  0.97590  Biso   1.000  H
  O83      1.0000 0.93620  0.07710  0.90960  Biso   1.000  O
  H42      1.0000 0.91110  0.10840  0.87610  Biso   1.000  H
  O84      1.0000 0.94990  0.05610  0.93380  Biso   1.000  O
  Zr15     1.0000 0.86080  0.48880  0.50880  Biso   1.000  Zr
  O85      1.0000 0.80950  0.37560  0.52970  Biso   1.000  O
  O86      1.0000 0.79190  0.59390  0.50720  Biso   1.000  O
  C57      1.0000 0.83680  0.31580  0.52250  Biso   1.000  C
  C58      1.0000 0.80650  0.65770  0.50130  Biso   1.000  C
  C59      1.0000 0.74280  0.71310  0.50270  Biso   1.000  C
  H43      1.0000 0.69020  0.69570  0.49800  Biso   1.000  H
  O87      1.0000 0.90710  0.29440  0.52090  Biso   1.000  O
  O88      1.0000 0.87290  0.68600  0.49630  Biso   1.000  O
  C60      1.0000 0.78840  0.24590  0.52640  Biso   1.000  C
  H44      1.0000 0.81600  0.20520  0.52410  Biso   1.000  H
  O89      1.0000 0.93620  0.42290  0.59040  Biso   1.000  O
  H45      1.0000 0.91110  0.39160  0.62390  Biso   1.000  H
  O90      1.0000 0.94990  0.44390  0.56620  Biso   1.000  O
  Zr16     1.0000 0.63920  0.01120  0.50880  Biso   1.000  Zr
  O91      1.0000 0.69050  0.12440  0.52970  Biso   1.000  O
  O92      1.0000 0.70810  0.90610  0.50720  Biso   1.000  O
  C61      1.0000 0.66320  0.18420  0.52250  Biso   1.000  C
  C62      1.0000 0.69350  0.84230  0.50130  Biso   1.000  C
  C63      1.0000 0.75720  0.78690  0.50270  Biso   1.000  C
  H46      1.0000 0.80980  0.80430  0.49800  Biso   1.000  H
  O93      1.0000 0.59290  0.20560  0.52090  Biso   1.000  O
  O94      1.0000 0.62710  0.81400  0.49630  Biso   1.000  O
  C64      1.0000 0.71160  0.25410  0.52640  Biso   1.000  C
  H47      1.0000 0.68400  0.29480  0.52410  Biso   1.000  H
  O95      1.0000 0.56380  0.07710  0.59040  Biso   1.000  O
  H48      1.0000 0.58890  0.10840  0.62390  Biso   1.000  H
  O96      1.0000 0.55010  0.05610  0.56620  Biso   1.000  O
  Zr17     1.0000 0.99120  0.63920  0.48880  Biso   1.000  Zr
  O97      1.0000 0.97030  0.69050  0.37560  Biso   1.000  O
  O98      1.0000 0.99280  0.70810  0.59390  Biso   1.000  O
  C65      1.0000 0.97750  0.66320  0.31580  Biso   1.000  C
  C66      1.0000 0.99870  0.69350  0.65770  Biso   1.000  C
  C67      1.0000 0.99730  0.75720  0.71310  Biso   1.000  C
  H49      1.0000 0.00200  0.80980  0.69570  Biso   1.000  H
  O99      1.0000 0.97910  0.59290  0.29440  Biso   1.000  O
  O100     1.0000 0.00370  0.62710  0.68600  Biso   1.000  O
  C68      1.0000 0.97360  0.71160  0.24590  Biso   1.000  C
  H50      1.0000 0.97590  0.68400  0.20520  Biso   1.000  H
  O101     1.0000 0.90960  0.56380  0.42290  Biso   1.000  O
  H51      1.0000 0.87610  0.58890  0.39160  Biso   1.000  H
  O102     1.0000 0.93380  0.55010  0.44390  Biso   1.000  O
  Zr18     1.0000 0.99120  0.86080  0.01120  Biso   1.000  Zr
  O103     1.0000 0.97030  0.80950  0.12440  Biso   1.000  O
  O104     1.0000 0.99280  0.79190  0.90610  Biso   1.000  O
  C69      1.0000 0.97750  0.83680  0.18420  Biso   1.000  C
  C70      1.0000 0.99870  0.80650  0.84230  Biso   1.000  C
  C71      1.0000 0.99730  0.74280  0.78690  Biso   1.000  C
  H52      1.0000 0.00200  0.69020  0.80430  Biso   1.000  H
  O105     1.0000 0.97910  0.90710  0.20560  Biso   1.000  O
  O106     1.0000 0.00370  0.87290  0.81400  Biso   1.000  O
  C72      1.0000 0.97360  0.78840  0.25410  Biso   1.000  C
  H53      1.0000 0.97590  0.81600  0.29480  Biso   1.000  H
  O107     1.0000 0.90960  0.93620  0.07710  Biso   1.000  O
  H54      1.0000 0.87610  0.91110  0.10840  Biso   1.000  H
  O108     1.0000 0.93380  0.94990  0.05610  Biso   1.000  O
  Zr19     1.0000 0.50880  0.86080  0.48880  Biso   1.000  Zr
  O109     1.0000 0.52970  0.80950  0.37560  Biso   1.000  O
  O110     1.0000 0.50720  0.79190  0.59390  Biso   1.000  O
  C73      1.0000 0.52250  0.83680  0.31580  Biso   1.000  C
  C74      1.0000 0.50130  0.80650  0.65770  Biso   1.000  C
  C75      1.0000 0.50270  0.74280  0.71310  Biso   1.000  C
  H55      1.0000 0.49800  0.69020  0.69570  Biso   1.000  H
  O111     1.0000 0.52090  0.90710  0.29440  Biso   1.000  O
  O112     1.0000 0.49630  0.87290  0.68600  Biso   1.000  O
  C76      1.0000 0.52640  0.78840  0.24590  Biso   1.000  C
  H56      1.0000 0.52410  0.81600  0.20520  Biso   1.000  H
  O113     1.0000 0.59040  0.93620  0.42290  Biso   1.000  O
  H57      1.0000 0.62390  0.91110  0.39160  Biso   1.000  H
  O114     1.0000 0.56620  0.94990  0.44390  Biso   1.000  O
  Zr20     1.0000 0.50880  0.63920  0.01120  Biso   1.000  Zr
  O115     1.0000 0.52970  0.69050  0.12440  Biso   1.000  O
  O116     1.0000 0.50720  0.70810  0.90610  Biso   1.000  O
  C77      1.0000 0.52250  0.66320  0.18420  Biso   1.000  C
  C78      1.0000 0.50130  0.69350  0.84230  Biso   1.000  C
  C79      1.0000 0.50270  0.75720  0.78690  Biso   1.000  C
  H58      1.0000 0.49800  0.80980  0.80430  Biso   1.000  H
  O117     1.0000 0.52090  0.59290  0.20560  Biso   1.000  O
  O118     1.0000 0.49630  0.62710  0.81400  Biso   1.000  O
  C80      1.0000 0.52640  0.71160  0.25410  Biso   1.000  C
  H59      1.0000 0.52410  0.68400  0.29480  Biso   1.000  H
  O119     1.0000 0.59040  0.56380  0.07710  Biso   1.000  O
  H60      1.0000 0.62390  0.58890  0.10840  Biso   1.000  H
  O120     1.0000 0.56620  0.55010  0.05610  Biso   1.000  O
  Zr21     1.0000 0.48880  0.99120  0.63920  Biso   1.000  Zr
  O121     1.0000 0.37560  0.97030  0.69050  Biso   1.000  O
  O122     1.0000 0.59390  0.99280  0.70810  Biso   1.000  O
  C81      1.0000 0.31580  0.97750  0.66320  Biso   1.000  C
  C82      1.0000 0.65770  0.99870  0.69350  Biso   1.000  C
  C83      1.0000 0.71310  0.99730  0.75720  Biso   1.000  C
  H61      1.0000 0.69570  0.00200  0.80980  Biso   1.000  H
  O123     1.0000 0.29440  0.97910  0.59290  Biso   1.000  O
  O124     1.0000 0.68600  0.00370  0.62710  Biso   1.000  O
  C84      1.0000 0.24590  0.97360  0.71160  Biso   1.000  C
  H62      1.0000 0.20520  0.97590  0.68400  Biso   1.000  H
  O125     1.0000 0.42290  0.90960  0.56380  Biso   1.000  O
  H63      1.0000 0.39160  0.87610  0.58890  Biso   1.000  H
  O126     1.0000 0.44390  0.93380  0.55010  Biso   1.000  O
  Zr22     1.0000 0.01120  0.99120  0.86080  Biso   1.000  Zr
  O127     1.0000 0.12440  0.97030  0.80950  Biso   1.000  O
  O128     1.0000 0.90610  0.99280  0.79190  Biso   1.000  O
  C85      1.0000 0.18420  0.97750  0.83680  Biso   1.000  C
  C86      1.0000 0.84230  0.99870  0.80650  Biso   1.000  C
  C87      1.0000 0.78690  0.99730  0.74280  Biso   1.000  C
  H64      1.0000 0.80430  0.00200  0.69020  Biso   1.000  H
  O129     1.0000 0.20560  0.97910  0.90710  Biso   1.000  O
  O130     1.0000 0.81400  0.00370  0.87290  Biso   1.000  O
  C88      1.0000 0.25410  0.97360  0.78840  Biso   1.000  C
  H65      1.0000 0.29480  0.97590  0.81600  Biso   1.000  H
  O131     1.0000 0.07710  0.90960  0.93620  Biso   1.000  O
  H66      1.0000 0.10840  0.87610  0.91110  Biso   1.000  H
  O132     1.0000 0.05610  0.93380  0.94990  Biso   1.000  O
  Zr23     1.0000 0.48880  0.50880  0.86080  Biso   1.000  Zr
  O133     1.0000 0.37560  0.52970  0.80950  Biso   1.000  O
  O134     1.0000 0.59390  0.50720  0.79190  Biso   1.000  O
  C89      1.0000 0.31580  0.52250  0.83680  Biso   1.000  C
  C90      1.0000 0.65770  0.50130  0.80650  Biso   1.000  C
  C91      1.0000 0.71310  0.50270  0.74280  Biso   1.000  C
  H67      1.0000 0.69570  0.49800  0.69020  Biso   1.000  H
  O135     1.0000 0.29440  0.52090  0.90710  Biso   1.000  O
  O136     1.0000 0.68600  0.49630  0.87290  Biso   1.000  O
  C92      1.0000 0.24590  0.52640  0.78840  Biso   1.000  C
  H68      1.0000 0.20520  0.52410  0.81600  Biso   1.000  H
  O137     1.0000 0.42290  0.59040  0.93620  Biso   1.000  O
  H69      1.0000 0.39160  0.62390  0.91110  Biso   1.000  H
  O138     1.0000 0.44390  0.56620  0.94990  Biso   1.000  O
  Zr24     1.0000 0.01120  0.50880  0.63920  Biso   1.000  Zr
  O139     1.0000 0.12440  0.52970  0.69050  Biso   1.000  O
  O140     1.0000 0.90610  0.50720  0.70810  Biso   1.000  O
  C93      1.0000 0.18420  0.52250  0.66320  Biso   1.000  C
  C94      1.0000 0.84230  0.50130  0.69350  Biso   1.000  C
  C95      1.0000 0.78690  0.50270  0.75720  Biso   1.000  C
  H70      1.0000 0.80430  0.49800  0.80980  Biso   1.000  H
  O141     1.0000 0.20560  0.52090  0.59290  Biso   1.000  O
  O142     1.0000 0.81400  0.49630  0.62710  Biso   1.000  O
  C96      1.0000 0.25410  0.52640  0.71160  Biso   1.000  C
  H71      1.0000 0.29480  0.52410  0.68400  Biso   1.000  H
  O143     1.0000 0.07710  0.59040  0.56380  Biso   1.000  O
  H72      1.0000 0.10840  0.62390  0.58890  Biso   1.000  H
  O144     1.0000 0.05610  0.56620  0.55010  Biso   1.000  O
  O145     1.0000 0.43820  0.43820  0.06180  Biso   1.000  O
  H73      1.0000 0.39300  0.39300  0.10700  Biso   1.000  H
  O146     1.0000 0.42600  0.42600  0.07400  Biso   1.000  O
  O147     1.0000 0.06180  0.06180  0.06180  Biso   1.000  O
  H74      1.0000 0.10700  0.10700  0.10700  Biso   1.000  H
  O148     1.0000 0.07400  0.07400  0.07400  Biso   1.000  O
  O149     1.0000 0.06180  0.43820  0.43820  Biso   1.000  O
  H75      1.0000 0.10700  0.39300  0.39300  Biso   1.000  H
  O150     1.0000 0.07400  0.42600  0.42600  Biso   1.000  O
  O151     1.0000 0.43820  0.06180  0.43820  Biso   1.000  O
  H76      1.0000 0.39300  0.10700  0.39300  Biso   1.000  H
  O152     1.0000 0.42600  0.07400  0.42600  Biso   1.000  O
  O153     1.0000 0.56180  0.56180  0.93820  Biso   1.000  O
  H77      1.0000 0.60700  0.60700  0.89300  Biso   1.000  H
  O154     1.0000 0.57400  0.57400  0.92600  Biso   1.000  O
  O155     1.0000 0.93820  0.93820  0.93820  Biso   1.000  O
  H78      1.0000 0.89300  0.89300  0.89300  Biso   1.000  H
  O156     1.0000 0.92600  0.92600  0.92600  Biso   1.000  O
  O157     1.0000 0.93820  0.56180  0.56180  Biso   1.000  O
  H79      1.0000 0.89300  0.60700  0.60700  Biso   1.000  H
  O158     1.0000 0.92600  0.57400  0.57400  Biso   1.000  O
  O159     1.0000 0.56180  0.93820  0.56180  Biso   1.000  O
  H80      1.0000 0.60700  0.89300  0.60700  Biso   1.000  H
  O160     1.0000 0.57400  0.92600  0.57400  Biso   1.000  O
