data_image0
_cell_length_a       19.1595
_cell_length_b       15.1428
_cell_length_c       6.618
_cell_angle_alpha    90
_cell_angle_beta     90
_cell_angle_gamma    90

_symmetry_space_group_name_H-M    "P 1"
_symmetry_int_tables_number       1

loop_
  _symmetry_equiv_pos_as_xyz
  'x, y, z'

loop_
  _atom_site_label
  _atom_site_occupancy
  _atom_site_fract_x
  _atom_site_fract_y
  _atom_site_fract_z
  _atom_site_thermal_displace_type
  _atom_site_B_iso_or_equiv
  _atom_site_type_symbol
  P1       1.0000 0.05990  0.38750  0.92170  Biso   1.000  P
  O1       1.0000 0.31940  0.51790  0.81080  Biso   1.000  O
  O2       1.0000 0.10730  0.60460  0.68430  Biso   1.000  O
  O3       1.0000 0.27510  0.77040  0.81320  Biso   1.000  O
  O4       1.0000 0.06600  0.38370  0.68090  Biso   1.000  O
  H1       1.0000 0.04100  0.42300  0.58310  Biso   1.000  H
  P2       1.0000 0.94010  0.61250  0.92170  Biso   1.000  P
  O5       1.0000 0.68060  0.48210  0.81080  Biso   1.000  O
  O6       1.0000 0.89270  0.39540  0.68430  Biso   1.000  O
  O7       1.0000 0.72490  0.22960  0.81320  Biso   1.000  O
  O8       1.0000 0.93400  0.61630  0.68090  Biso   1.000  O
  H2       1.0000 0.95900  0.57700  0.58310  Biso   1.000  H
  P3       1.0000 0.44010  0.88750  0.57830  Biso   1.000  P
  O9       1.0000 0.18060  0.01790  0.68920  Biso   1.000  O
  O10      1.0000 0.39270  0.10460  0.81570  Biso   1.000  O
  O11      1.0000 0.22490  0.27040  0.68680  Biso   1.000  O
  O12      1.0000 0.43400  0.88370  0.81910  Biso   1.000  O
  H3       1.0000 0.45900  0.92300  0.91690  Biso   1.000  H
  P4       1.0000 0.55990  0.11250  0.57830  Biso   1.000  P
  O13      1.0000 0.81940  0.98210  0.68920  Biso   1.000  O
  O14      1.0000 0.60730  0.89540  0.81570  Biso   1.000  O
  O15      1.0000 0.77510  0.72960  0.68680  Biso   1.000  O
  O16      1.0000 0.56600  0.11630  0.81910  Biso   1.000  O
  H4       1.0000 0.54100  0.07700  0.91690  Biso   1.000  H
  P5       1.0000 0.94010  0.61250  0.07830  Biso   1.000  P
  O17      1.0000 0.68060  0.48210  0.18920  Biso   1.000  O
  O18      1.0000 0.89270  0.39540  0.31570  Biso   1.000  O
  O19      1.0000 0.72490  0.22960  0.18680  Biso   1.000  O
  O20      1.0000 0.93400  0.61630  0.31910  Biso   1.000  O
  H5       1.0000 0.95900  0.57700  0.41690  Biso   1.000  H
  P6       1.0000 0.05990  0.38750  0.07830  Biso   1.000  P
  O21      1.0000 0.31940  0.51790  0.18920  Biso   1.000  O
  O22      1.0000 0.10730  0.60460  0.31570  Biso   1.000  O
  O23      1.0000 0.27510  0.77040  0.18680  Biso   1.000  O
  O24      1.0000 0.06600  0.38370  0.31910  Biso   1.000  O
  H6       1.0000 0.04100  0.42300  0.41690  Biso   1.000  H
  P7       1.0000 0.55990  0.11250  0.42170  Biso   1.000  P
  O25      1.0000 0.81940  0.98210  0.31080  Biso   1.000  O
  O26      1.0000 0.60730  0.89540  0.18430  Biso   1.000  O
  O27      1.0000 0.77510  0.72960  0.31320  Biso   1.000  O
  O28      1.0000 0.56600  0.11630  0.18090  Biso   1.000  O
  H7       1.0000 0.54100  0.07700  0.08310  Biso   1.000  H
  P8       1.0000 0.44010  0.88750  0.42170  Biso   1.000  P
  O29      1.0000 0.18060  0.01790  0.31080  Biso   1.000  O
  O30      1.0000 0.39270  0.10460  0.18430  Biso   1.000  O
  O31      1.0000 0.22490  0.27040  0.31320  Biso   1.000  O
  O32      1.0000 0.43400  0.88370  0.18090  Biso   1.000  O
  H8       1.0000 0.45900  0.92300  0.08310  Biso   1.000  H
  Zr1      1.0000 0.11320  0.60463  0.00000  Biso   1.000  Zr
  Zr2      1.0000 0.22056  0.27578  0.00000  Biso   1.000  Zr
  P9       1.0000 0.27730  0.49920  0.00000  Biso   1.000  P
  P10      1.0000 0.22670  0.78360  0.00000  Biso   1.000  P
  O33      1.0000 0.20930  0.55160  0.00000  Biso   1.000  O
  O34      1.0000 0.07770  0.47940  0.00000  Biso   1.000  O
  O35      1.0000 0.15840  0.71800  0.00000  Biso   1.000  O
  O36      1.0000 0.26170  0.40180  0.00000  Biso   1.000  O
  O37      1.0000 0.11480  0.32520  0.00000  Biso   1.000  O
  O38      1.0000 0.98780  0.35150  0.00000  Biso   1.000  O
  O39      1.0000 0.20370  0.88090  0.00000  Biso   1.000  O
  Zr3      1.0000 0.88680  0.39537  0.00000  Biso   1.000  Zr
  Zr4      1.0000 0.77944  0.72422  0.00000  Biso   1.000  Zr
  P11      1.0000 0.72270  0.50080  0.00000  Biso   1.000  P
  P12      1.0000 0.77330  0.21640  0.00000  Biso   1.000  P
  O40      1.0000 0.79070  0.44840  0.00000  Biso   1.000  O
  O41      1.0000 0.92230  0.52060  0.00000  Biso   1.000  O
  O42      1.0000 0.84160  0.28200  0.00000  Biso   1.000  O
  O43      1.0000 0.73830  0.59820  0.00000  Biso   1.000  O
  O44      1.0000 0.88520  0.67480  0.00000  Biso   1.000  O
  O45      1.0000 0.01220  0.64850  0.00000  Biso   1.000  O
  O46      1.0000 0.79630  0.11910  0.00000  Biso   1.000  O
  Zr5      1.0000 0.38680  0.10463  0.50000  Biso   1.000  Zr
  Zr6      1.0000 0.27944  0.77578  0.50000  Biso   1.000  Zr
  P13      1.0000 0.22270  0.99920  0.50000  Biso   1.000  P
  P14      1.0000 0.27330  0.28360  0.50000  Biso   1.000  P
  O47      1.0000 0.29070  0.05160  0.50000  Biso   1.000  O
  O48      1.0000 0.42230  0.97940  0.50000  Biso   1.000  O
  O49      1.0000 0.34160  0.21800  0.50000  Biso   1.000  O
  O50      1.0000 0.23830  0.90180  0.50000  Biso   1.000  O
  O51      1.0000 0.38520  0.82520  0.50000  Biso   1.000  O
  O52      1.0000 0.51220  0.85150  0.50000  Biso   1.000  O
  O53      1.0000 0.29630  0.38090  0.50000  Biso   1.000  O
  Zr7      1.0000 0.61320  0.89537  0.50000  Biso   1.000  Zr
  Zr8      1.0000 0.72056  0.22422  0.50000  Biso   1.000  Zr
  P15      1.0000 0.77730  0.00080  0.50000  Biso   1.000  P
  P16      1.0000 0.72670  0.71640  0.50000  Biso   1.000  P
  O54      1.0000 0.70930  0.94840  0.50000  Biso   1.000  O
  O55      1.0000 0.57770  0.02060  0.50000  Biso   1.000  O
  O56      1.0000 0.65840  0.78200  0.50000  Biso   1.000  O
  O57      1.0000 0.76170  0.09820  0.50000  Biso   1.000  O
  O58      1.0000 0.61480  0.17480  0.50000  Biso   1.000  O
  O59      1.0000 0.48780  0.14850  0.50000  Biso   1.000  O
  O60      1.0000 0.70370  0.61910  0.50000  Biso   1.000  O
  Zr9      1.0000 0.31685  0.51094  0.50000  Biso   1.000  Zr
  P17      1.0000 0.15320  0.61420  0.50000  Biso   1.000  P
  F1       1.0000 0.33090  0.65020  0.50000  Biso   1.000  F
  O61      1.0000 0.18830  0.70730  0.50000  Biso   1.000  O
  O62      1.0000 0.21070  0.54840  0.50000  Biso   1.000  O
  F2       1.0000 0.41840  0.51050  0.50000  Biso   1.000  F
  Zr10     1.0000 0.68315  0.48906  0.50000  Biso   1.000  Zr
  P18      1.0000 0.84680  0.38580  0.50000  Biso   1.000  P
  F3       1.0000 0.66910  0.34980  0.50000  Biso   1.000  F
  O63      1.0000 0.81170  0.29270  0.50000  Biso   1.000  O
  O64      1.0000 0.78930  0.45160  0.50000  Biso   1.000  O
  F4       1.0000 0.58160  0.48950  0.50000  Biso   1.000  F
  Zr11     1.0000 0.18315  0.01094  0.00000  Biso   1.000  Zr
  P19      1.0000 0.34680  0.11420  0.00000  Biso   1.000  P
  F5       1.0000 0.16910  0.15020  0.00000  Biso   1.000  F
  O65      1.0000 0.31170  0.20730  0.00000  Biso   1.000  O
  O66      1.0000 0.28930  0.04840  0.00000  Biso   1.000  O
  F6       1.0000 0.08160  0.01050  0.00000  Biso   1.000  F
  Zr12     1.0000 0.81685  0.98906  0.00000  Biso   1.000  Zr
  P20      1.0000 0.65320  0.88580  0.00000  Biso   1.000  P
  F7       1.0000 0.83090  0.84980  0.00000  Biso   1.000  F
  O67      1.0000 0.68830  0.79270  0.00000  Biso   1.000  O
  O68      1.0000 0.71070  0.95160  0.00000  Biso   1.000  O
  F8       1.0000 0.91840  0.98950  0.00000  Biso   1.000  F
