data_image0
_cell_length_a       6.3541
_cell_length_b       10.46
_cell_length_c       14.769
_cell_angle_alpha    90
_cell_angle_beta     90.412
_cell_angle_gamma    90

_symmetry_space_group_name_H-M    "P 1"
_symmetry_int_tables_number       1

loop_
  _symmetry_equiv_pos_as_xyz
  'x, y, z'

loop_
  _atom_site_label
  _atom_site_occupancy
  _atom_site_fract_x
  _atom_site_fract_y
  _atom_site_fract_z
  _atom_site_thermal_displace_type
  _atom_site_B_iso_or_equiv
  _atom_site_type_symbol
  V1       1.0000 0.25485  0.10990  0.89048  Biso   1.000  V
  P1       1.0000 0.16930  0.32589  0.72581  Biso   1.000  P
  P2       1.0000 0.23390  0.96720  0.08278  Biso   1.000  P
  O1       1.0000 0.27650  0.22120  0.77830  Biso   1.000  O
  O2       1.0000 0.23710  0.96000  0.97890  Biso   1.000  O
  O3       1.0000 0.28860  0.44980  0.71770  Biso   1.000  O
  O4       1.0000 0.44230  0.93250  0.12570  Biso   1.000  O
  O5       1.0000 0.06020  0.88990  0.12460  Biso   1.000  O
  O6       1.0000 0.12030  0.27240  0.62820  Biso   1.000  O
  H1       1.0000 0.11700  0.30900  0.58300  Biso   1.000  H
  P3       1.0000 0.25000  0.89830  0.07650  Biso   1.000  P
  V2       1.0000 0.24515  0.60990  0.60952  Biso   1.000  V
  P4       1.0000 0.33070  0.82589  0.77419  Biso   1.000  P
  P5       1.0000 0.26610  0.46720  0.41722  Biso   1.000  P
  O7       1.0000 0.22350  0.72120  0.72170  Biso   1.000  O
  O8       1.0000 0.26290  0.46000  0.52110  Biso   1.000  O
  O9       1.0000 0.21140  0.94980  0.78230  Biso   1.000  O
  O10      1.0000 0.05770  0.43250  0.37430  Biso   1.000  O
  O11      1.0000 0.43980  0.38990  0.37540  Biso   1.000  O
  O12      1.0000 0.37970  0.77240  0.87180  Biso   1.000  O
  H2       1.0000 0.38300  0.80900  0.91700  Biso   1.000  H
  P6       1.0000 0.25000  0.39830  0.42350  Biso   1.000  P
  V3       1.0000 0.74515  0.89010  0.10952  Biso   1.000  V
  P7       1.0000 0.83070  0.67411  0.27419  Biso   1.000  P
  P8       1.0000 0.76610  0.03280  0.91722  Biso   1.000  P
  O13      1.0000 0.72350  0.77880  0.22170  Biso   1.000  O
  O14      1.0000 0.76290  0.04000  0.02110  Biso   1.000  O
  O15      1.0000 0.71140  0.55020  0.28230  Biso   1.000  O
  O16      1.0000 0.55770  0.06750  0.87430  Biso   1.000  O
  O17      1.0000 0.93980  0.11010  0.87540  Biso   1.000  O
  O18      1.0000 0.87970  0.72760  0.37180  Biso   1.000  O
  H3       1.0000 0.88300  0.69100  0.41700  Biso   1.000  H
  P9       1.0000 0.75000  0.10170  0.92350  Biso   1.000  P
  V4       1.0000 0.75485  0.39010  0.39048  Biso   1.000  V
  P10      1.0000 0.66930  0.17411  0.22581  Biso   1.000  P
  P11      1.0000 0.73390  0.53280  0.58278  Biso   1.000  P
  O19      1.0000 0.77650  0.27880  0.27830  Biso   1.000  O
  O20      1.0000 0.73710  0.54000  0.47890  Biso   1.000  O
  O21      1.0000 0.78860  0.05020  0.21770  Biso   1.000  O
  O22      1.0000 0.94230  0.56750  0.62570  Biso   1.000  O
  O23      1.0000 0.56020  0.61010  0.62460  Biso   1.000  O
  O24      1.0000 0.62030  0.22760  0.12820  Biso   1.000  O
  H4       1.0000 0.61700  0.19100  0.08300  Biso   1.000  H
  P12      1.0000 0.75000  0.60170  0.57650  Biso   1.000  P
