data_image0
_cell_length_a       9.086
_cell_length_b       9.086
_cell_length_c       19.164
_cell_angle_alpha    90
_cell_angle_beta     90
_cell_angle_gamma    120

_symmetry_space_group_name_H-M    "P 1"
_symmetry_int_tables_number       1

loop_
  _symmetry_equiv_pos_as_xyz
  'x, y, z'

loop_
  _atom_site_label
  _atom_site_occupancy
  _atom_site_fract_x
  _atom_site_fract_y
  _atom_site_fract_z
  _atom_site_thermal_displace_type
  _atom_site_B_iso_or_equiv
  _atom_site_type_symbol
  C1       1.0000 0.62120  0.77140  0.41020  Biso   1.000  C
  H1       1.0000 0.60720  0.68700  0.37900  Biso   1.000  H
  C2       1.0000 0.65410  0.93690  0.39230  Biso   1.000  C
  H2       1.0000 0.66560  0.97980  0.34740  Biso   1.000  H
  C3       1.0000 0.66660  0.02530  0.45520  Biso   1.000  C
  H3       1.0000 0.68760  0.13620  0.45860  Biso   1.000  H
  C4       1.0000 0.64130  0.91440  0.51190  Biso   1.000  C
  H4       1.0000 0.64290  0.94010  0.55900  Biso   1.000  H
  C5       1.0000 0.61330  0.75760  0.48410  Biso   1.000  C
  H5       1.0000 0.59320  0.66250  0.50980  Biso   1.000  H
  C6       1.0000 0.61920  0.84300  0.40440  Biso   1.000  C
  H6       1.0000 0.60440  0.91290  0.37320  Biso   1.000  H
  C7       1.0000 0.64440  0.70550  0.38660  Biso   1.000  C
  H7       1.0000 0.64900  0.66950  0.34160  Biso   1.000  H
  C8       1.0000 0.66130  0.63260  0.44950  Biso   1.000  C
  H8       1.0000 0.67890  0.54040  0.45290  Biso   1.000  H
  C9       1.0000 0.64650  0.72500  0.50620  Biso   1.000  C
  H9       1.0000 0.65280  0.70410  0.55330  Biso   1.000  H
  C10      1.0000 0.62050  0.85510  0.47830  Biso   1.000  C
  H10      1.0000 0.60680  0.93430  0.50400  Biso   1.000  H
  O1       1.0000 0.99430  0.99380  0.27050  Biso   1.000  O
  O2       1.0000 0.00820  0.00040  0.60590  Biso   1.000  O
  C11      1.0000 0.95990  0.01340  0.24410  Biso   1.000  C
  C12      1.0000 0.02990  0.13560  0.16030  Biso   1.000  C
  C13      1.0000 0.91550  0.02160  0.16210  Biso   1.000  C
  C14      1.0000 0.04780  0.13840  0.22880  Biso   1.000  C
  C15      1.0000 0.22860  0.84980  0.41020  Biso   1.000  C
  H11      1.0000 0.31300  0.92020  0.37900  Biso   1.000  H
  C16      1.0000 0.06310  0.71720  0.39230  Biso   1.000  C
  H12      1.0000 0.02020  0.68580  0.34740  Biso   1.000  H
  C17      1.0000 0.97470  0.64130  0.45520  Biso   1.000  C
  H13      1.0000 0.86380  0.55140  0.45860  Biso   1.000  H
  C18      1.0000 0.08560  0.72690  0.51190  Biso   1.000  C
  H14      1.0000 0.05990  0.70280  0.55900  Biso   1.000  H
  C19      1.0000 0.24240  0.85570  0.48410  Biso   1.000  C
  H15      1.0000 0.33750  0.93070  0.50980  Biso   1.000  H
  C20      1.0000 0.15700  0.77620  0.40440  Biso   1.000  C
  H16      1.0000 0.08710  0.69150  0.37320  Biso   1.000  H
  C21      1.0000 0.29450  0.93890  0.38660  Biso   1.000  C
  H17      1.0000 0.33050  0.97950  0.34160  Biso   1.000  H
  C22      1.0000 0.36740  0.02870  0.44950  Biso   1.000  C
  H18      1.0000 0.45960  0.13850  0.45290  Biso   1.000  H
  C23      1.0000 0.27500  0.92150  0.50620  Biso   1.000  C
  H19      1.0000 0.29590  0.94870  0.55330  Biso   1.000  H
  C24      1.0000 0.14490  0.76540  0.47830  Biso   1.000  C
  H20      1.0000 0.06570  0.67250  0.50400  Biso   1.000  H
  O3       1.0000 0.00620  0.00050  0.27050  Biso   1.000  O
  O4       1.0000 0.99960  0.00780  0.60590  Biso   1.000  O
  C25      1.0000 0.98660  0.94650  0.24410  Biso   1.000  C
  C26      1.0000 0.86440  0.89430  0.16030  Biso   1.000  C
  C27      1.0000 0.97840  0.89390  0.16210  Biso   1.000  C
  C28      1.0000 0.86160  0.90940  0.22880  Biso   1.000  C
  C29      1.0000 0.15020  0.37880  0.41020  Biso   1.000  C
  H21      1.0000 0.07980  0.39280  0.37900  Biso   1.000  H
  C30      1.0000 0.28280  0.34590  0.39230  Biso   1.000  C
  H22      1.0000 0.31420  0.33440  0.34740  Biso   1.000  H
  C31      1.0000 0.35870  0.33340  0.45520  Biso   1.000  C
  H23      1.0000 0.44860  0.31240  0.45860  Biso   1.000  H
  C32      1.0000 0.27310  0.35870  0.51190  Biso   1.000  C
  H24      1.0000 0.29720  0.35710  0.55900  Biso   1.000  H
  C33      1.0000 0.14430  0.38670  0.48410  Biso   1.000  C
  H25      1.0000 0.06930  0.40680  0.50980  Biso   1.000  H
  C34      1.0000 0.22380  0.38080  0.40440  Biso   1.000  C
  H26      1.0000 0.30850  0.39560  0.37320  Biso   1.000  H
  C35      1.0000 0.06110  0.35560  0.38660  Biso   1.000  C
  H27      1.0000 0.02050  0.35100  0.34160  Biso   1.000  H
  C36      1.0000 0.97130  0.33870  0.44950  Biso   1.000  C
  H28      1.0000 0.86150  0.32110  0.45290  Biso   1.000  H
  C37      1.0000 0.07850  0.35350  0.50620  Biso   1.000  C
  H29      1.0000 0.05130  0.34720  0.55330  Biso   1.000  H
  C38      1.0000 0.23460  0.37950  0.47830  Biso   1.000  C
  H30      1.0000 0.32750  0.39320  0.50400  Biso   1.000  H
  O5       1.0000 0.99950  0.00570  0.27050  Biso   1.000  O
  O6       1.0000 0.99220  0.99180  0.60590  Biso   1.000  O
  C39      1.0000 0.05350  0.04010  0.24410  Biso   1.000  C
  C40      1.0000 0.10570  0.97010  0.16030  Biso   1.000  C
  C41      1.0000 0.10610  0.08450  0.16210  Biso   1.000  C
  C42      1.0000 0.09060  0.95220  0.22880  Biso   1.000  C
  C43      1.0000 0.37880  0.22860  0.91020  Biso   1.000  C
  H31      1.0000 0.39280  0.31300  0.87900  Biso   1.000  H
  C44      1.0000 0.34590  0.06310  0.89230  Biso   1.000  C
  H32      1.0000 0.33440  0.02020  0.84740  Biso   1.000  H
  C45      1.0000 0.33340  0.97470  0.95520  Biso   1.000  C
  H33      1.0000 0.31240  0.86380  0.95860  Biso   1.000  H
  C46      1.0000 0.35870  0.08560  0.01190  Biso   1.000  C
  H34      1.0000 0.35710  0.05990  0.05900  Biso   1.000  H
  C47      1.0000 0.38670  0.24240  0.98410  Biso   1.000  C
  H35      1.0000 0.40680  0.33750  0.00980  Biso   1.000  H
  C48      1.0000 0.38080  0.15700  0.90440  Biso   1.000  C
  H36      1.0000 0.39560  0.08710  0.87320  Biso   1.000  H
  C49      1.0000 0.35560  0.29450  0.88660  Biso   1.000  C
  H37      1.0000 0.35100  0.33050  0.84160  Biso   1.000  H
  C50      1.0000 0.33870  0.36740  0.94950  Biso   1.000  C
  H38      1.0000 0.32110  0.45960  0.95290  Biso   1.000  H
  C51      1.0000 0.35350  0.27500  0.00620  Biso   1.000  C
  H39      1.0000 0.34720  0.29590  0.05330  Biso   1.000  H
  C52      1.0000 0.37950  0.14490  0.97830  Biso   1.000  C
  H40      1.0000 0.39320  0.06570  0.00400  Biso   1.000  H
  O7       1.0000 0.00570  0.00620  0.77050  Biso   1.000  O
  O8       1.0000 0.99180  0.99960  0.10590  Biso   1.000  O
  C53      1.0000 0.04010  0.98660  0.74410  Biso   1.000  C
  C54      1.0000 0.97010  0.86440  0.66030  Biso   1.000  C
  C55      1.0000 0.08450  0.97840  0.66210  Biso   1.000  C
  C56      1.0000 0.95220  0.86160  0.72880  Biso   1.000  C
  C57      1.0000 0.77140  0.15020  0.91020  Biso   1.000  C
  H41      1.0000 0.68700  0.07980  0.87900  Biso   1.000  H
  C58      1.0000 0.93690  0.28280  0.89230  Biso   1.000  C
  H42      1.0000 0.97980  0.31420  0.84740  Biso   1.000  H
  C59      1.0000 0.02530  0.35870  0.95520  Biso   1.000  C
  H43      1.0000 0.13620  0.44860  0.95860  Biso   1.000  H
  C60      1.0000 0.91440  0.27310  0.01190  Biso   1.000  C
  H44      1.0000 0.94010  0.29720  0.05900  Biso   1.000  H
  C61      1.0000 0.75760  0.14430  0.98410  Biso   1.000  C
  H45      1.0000 0.66250  0.06930  0.00980  Biso   1.000  H
  C62      1.0000 0.84300  0.22380  0.90440  Biso   1.000  C
  H46      1.0000 0.91290  0.30850  0.87320  Biso   1.000  H
  C63      1.0000 0.70550  0.06110  0.88660  Biso   1.000  C
  H47      1.0000 0.66950  0.02050  0.84160  Biso   1.000  H
  C64      1.0000 0.63260  0.97130  0.94950  Biso   1.000  C
  H48      1.0000 0.54040  0.86150  0.95290  Biso   1.000  H
  C65      1.0000 0.72500  0.07850  0.00620  Biso   1.000  C
  H49      1.0000 0.70410  0.05130  0.05330  Biso   1.000  H
  C66      1.0000 0.85510  0.23460  0.97830  Biso   1.000  C
  H50      1.0000 0.93430  0.32750  0.00400  Biso   1.000  H
  O9       1.0000 0.99380  0.99950  0.77050  Biso   1.000  O
  O10      1.0000 0.00040  0.99220  0.10590  Biso   1.000  O
  C67      1.0000 0.01340  0.05350  0.74410  Biso   1.000  C
  C68      1.0000 0.13560  0.10570  0.66030  Biso   1.000  C
  C69      1.0000 0.02160  0.10610  0.66210  Biso   1.000  C
  C70      1.0000 0.13840  0.09060  0.72880  Biso   1.000  C
  C71      1.0000 0.84980  0.62120  0.91020  Biso   1.000  C
  H51      1.0000 0.92020  0.60720  0.87900  Biso   1.000  H
  C72      1.0000 0.71720  0.65410  0.89230  Biso   1.000  C
  H52      1.0000 0.68580  0.66560  0.84740  Biso   1.000  H
  C73      1.0000 0.64130  0.66660  0.95520  Biso   1.000  C
  H53      1.0000 0.55140  0.68760  0.95860  Biso   1.000  H
  C74      1.0000 0.72690  0.64130  0.01190  Biso   1.000  C
  H54      1.0000 0.70280  0.64290  0.05900  Biso   1.000  H
  C75      1.0000 0.85570  0.61330  0.98410  Biso   1.000  C
  H55      1.0000 0.93070  0.59320  0.00980  Biso   1.000  H
  C76      1.0000 0.77620  0.61920  0.90440  Biso   1.000  C
  H56      1.0000 0.69150  0.60440  0.87320  Biso   1.000  H
  C77      1.0000 0.93890  0.64440  0.88660  Biso   1.000  C
  H57      1.0000 0.97950  0.64900  0.84160  Biso   1.000  H
  C78      1.0000 0.02870  0.66130  0.94950  Biso   1.000  C
  H58      1.0000 0.13850  0.67890  0.95290  Biso   1.000  H
  C79      1.0000 0.92150  0.64650  0.00620  Biso   1.000  C
  H59      1.0000 0.94870  0.65280  0.05330  Biso   1.000  H
  C80      1.0000 0.76540  0.62050  0.97830  Biso   1.000  C
  H60      1.0000 0.67250  0.60680  0.00400  Biso   1.000  H
  O11      1.0000 0.00050  0.99430  0.77050  Biso   1.000  O
  O12      1.0000 0.00780  0.00820  0.10590  Biso   1.000  O
  C81      1.0000 0.94650  0.95990  0.74410  Biso   1.000  C
  C82      1.0000 0.89430  0.02990  0.66030  Biso   1.000  C
  C83      1.0000 0.89390  0.91550  0.66210  Biso   1.000  C
  C84      1.0000 0.90940  0.04780  0.72880  Biso   1.000  C
  Mn1      1.0000 0.33333  0.66667  0.44584  Biso   1.000  Mn
  Mn2      1.0000 0.66667  0.33333  0.94584  Biso   1.000  Mn
  K1       1.0000 0.00000  0.00000  0.42470  Biso   1.000  K
  K2       1.0000 0.00000  0.00000  0.47490  Biso   1.000  K
  K3       1.0000 0.00000  0.00000  0.92470  Biso   1.000  K
  K4       1.0000 0.00000  0.00000  0.97490  Biso   1.000  K
