data_image0
_cell_length_a       13.7239
_cell_length_b       15.0724
_cell_length_c       15.86
_cell_angle_alpha    90
_cell_angle_beta     94.504
_cell_angle_gamma    90

_symmetry_space_group_name_H-M    "P 1"
_symmetry_int_tables_number       1

loop_
  _symmetry_equiv_pos_as_xyz
  'x, y, z'

loop_
  _atom_site_label
  _atom_site_occupancy
  _atom_site_fract_x
  _atom_site_fract_y
  _atom_site_fract_z
  _atom_site_thermal_displace_type
  _atom_site_B_iso_or_equiv
  _atom_site_type_symbol
  Co1      1.0000 0.73753  0.90927  0.49630  Biso   1.000  Co
  Fe1      1.0000 0.78013  0.65963  0.25053  Biso   1.000  Fe
  Fe2      1.0000 0.74559  0.67736  0.76848  Biso   1.000  Fe
  O1       1.0000 0.60270  0.74464  0.56962  Biso   1.000  O
  O2       1.0000 0.75465  0.77989  0.54075  Biso   1.000  O
  O3       1.0000 0.77916  0.44975  0.87954  Biso   1.000  O
  O4       1.0000 0.92133  0.52485  0.88659  Biso   1.000  O
  O5       1.0000 0.91840  0.58902  0.06543  Biso   1.000  O
  O6       1.0000 0.76511  0.53969  0.04179  Biso   1.000  O
  O7       1.0000 0.75464  0.86788  0.37081  Biso   1.000  O
  O8       1.0000 0.59920  0.83997  0.32306  Biso   1.000  O
  O9       1.0000 0.91554  0.38927  0.02504  Biso   1.000  O
  H1       1.0000 0.91800  0.37200  0.07900  Biso   1.000  H
  H2       1.0000 0.92500  0.34700  0.99550  Biso   1.000  H
  C1       1.0000 0.83875  0.50395  0.85352  Biso   1.000  C
  C2       1.0000 0.80736  0.55297  0.77226  Biso   1.000  C
  C3       1.0000 0.70930  0.54693  0.73943  Biso   1.000  C
  H3       1.0000 0.66730  0.50410  0.76150  Biso   1.000  H
  C4       1.0000 0.67320  0.60419  0.67381  Biso   1.000  C
  H4       1.0000 0.60650  0.60070  0.65300  Biso   1.000  H
  C5       1.0000 0.73500  0.66617  0.63910  Biso   1.000  C
  C6       1.0000 0.83340  0.66850  0.66926  Biso   1.000  C
  H5       1.0000 0.87660  0.70810  0.64440  Biso   1.000  H
  C7       1.0000 0.86960  0.61290  0.73600  Biso   1.000  C
  H6       1.0000 0.93650  0.61610  0.75640  Biso   1.000  H
  C8       1.0000 0.69370  0.73590  0.57754  Biso   1.000  C
  C9       1.0000 0.82849  0.59226  0.07156  Biso   1.000  C
  C10      1.0000 0.79146  0.66820  0.12207  Biso   1.000  C
  C11      1.0000 0.85610  0.72957  0.16405  Biso   1.000  C
  H7       1.0000 0.92250  0.73120  0.15110  Biso   1.000  H
  C12      1.0000 0.82350  0.78820  0.22462  Biso   1.000  C
  H8       1.0000 0.86790  0.82860  0.25300  Biso   1.000  H
  C13      1.0000 0.72407  0.78689  0.24324  Biso   1.000  C
  C14      1.0000 0.65820  0.72964  0.19847  Biso   1.000  C
  H9       1.0000 0.59100  0.73060  0.20890  Biso   1.000  H
  C15      1.0000 0.69160  0.67036  0.13777  Biso   1.000  C
  H10      1.0000 0.64660  0.63180  0.10750  Biso   1.000  H
  C16      1.0000 0.68900  0.83610  0.31912  Biso   1.000  C
  C17      1.0000 0.85490  0.54510  0.27980  Biso   1.000  C
  H11      1.0000 0.89590  0.51460  0.24390  Biso   1.000  H
  C18      1.0000 0.75580  0.53100  0.28340  Biso   1.000  C
  H12      1.0000 0.71720  0.48980  0.25010  Biso   1.000  H
  C19      1.0000 0.72220  0.58770  0.34420  Biso   1.000  C
  H13      1.0000 0.65690  0.59110  0.36000  Biso   1.000  H
  C20      1.0000 0.80060  0.63860  0.37790  Biso   1.000  C
  H14      1.0000 0.79780  0.68320  0.42010  Biso   1.000  H
  C21      1.0000 0.88540  0.61240  0.33850  Biso   1.000  C
  H15      1.0000 0.94960  0.63530  0.34920  Biso   1.000  H
  C22      1.0000 0.68280  0.68800  0.88580  Biso   1.000  C
  H16      1.0000 0.67750  0.64160  0.92580  Biso   1.000  H
  C23      1.0000 0.60910  0.71460  0.82300  Biso   1.000  C
  H17      1.0000 0.54590  0.68910  0.81360  Biso   1.000  H
  C24      1.0000 0.64670  0.78580  0.77670  Biso   1.000  C
  H18      1.0000 0.61290  0.81650  0.73090  Biso   1.000  H
  C25      1.0000 0.74350  0.80330  0.81090  Biso   1.000  C
  H19      1.0000 0.78590  0.84760  0.79210  Biso   1.000  H
  C26      1.0000 0.76580  0.74280  0.87840  Biso   1.000  C
  H20      1.0000 0.82580  0.73960  0.91250  Biso   1.000  H
  C27      1.0000 0.66140  0.75490  0.82680  Biso   1.000  C
  C28      1.0000 0.72630  0.81040  0.78530  Biso   1.000  C
  C29      1.0000 0.82250  0.79460  0.82180  Biso   1.000  C
  C30      1.0000 0.81720  0.72930  0.88580  Biso   1.000  C
  C31      1.0000 0.71760  0.70480  0.88890  Biso   1.000  C
  H21      1.0000 0.59260  0.75190  0.81500  Biso   1.000  H
  H22      1.0000 0.70840  0.85100  0.74090  Biso   1.000  H
  H23      1.0000 0.88040  0.82270  0.80610  Biso   1.000  H
  H24      1.0000 0.87080  0.70610  0.92050  Biso   1.000  H
  H25      1.0000 0.69290  0.66240  0.92610  Biso   1.000  H
  Co2      1.0000 0.76247  0.40927  0.00370  Biso   1.000  Co
  Fe3      1.0000 0.71987  0.15963  0.24947  Biso   1.000  Fe
  Fe4      1.0000 0.75441  0.17736  0.73152  Biso   1.000  Fe
  O10      1.0000 0.89730  0.24464  0.93038  Biso   1.000  O
  O11      1.0000 0.74535  0.27989  0.95925  Biso   1.000  O
  O12      1.0000 0.72084  0.94975  0.62046  Biso   1.000  O
  O13      1.0000 0.57867  0.02485  0.61341  Biso   1.000  O
  O14      1.0000 0.58160  0.08902  0.43457  Biso   1.000  O
  O15      1.0000 0.73489  0.03969  0.45821  Biso   1.000  O
  O16      1.0000 0.74536  0.36788  0.12919  Biso   1.000  O
  O17      1.0000 0.90080  0.33997  0.17694  Biso   1.000  O
  O18      1.0000 0.58446  0.88927  0.47496  Biso   1.000  O
  H26      1.0000 0.58200  0.87200  0.42100  Biso   1.000  H
  H27      1.0000 0.57500  0.84700  0.50450  Biso   1.000  H
  C32      1.0000 0.66125  0.00395  0.64648  Biso   1.000  C
  C33      1.0000 0.69264  0.05297  0.72774  Biso   1.000  C
  C34      1.0000 0.79070  0.04693  0.76057  Biso   1.000  C
  H28      1.0000 0.83270  0.00410  0.73850  Biso   1.000  H
  C35      1.0000 0.82680  0.10419  0.82619  Biso   1.000  C
  H29      1.0000 0.89350  0.10070  0.84700  Biso   1.000  H
  C36      1.0000 0.76500  0.16617  0.86090  Biso   1.000  C
  C37      1.0000 0.66660  0.16850  0.83074  Biso   1.000  C
  H30      1.0000 0.62340  0.20810  0.85560  Biso   1.000  H
  C38      1.0000 0.63040  0.11290  0.76400  Biso   1.000  C
  H31      1.0000 0.56350  0.11610  0.74360  Biso   1.000  H
  C39      1.0000 0.80630  0.23590  0.92246  Biso   1.000  C
  C40      1.0000 0.67151  0.09226  0.42844  Biso   1.000  C
  C41      1.0000 0.70854  0.16820  0.37793  Biso   1.000  C
  C42      1.0000 0.64390  0.22957  0.33595  Biso   1.000  C
  H32      1.0000 0.57750  0.23120  0.34890  Biso   1.000  H
  C43      1.0000 0.67650  0.28820  0.27538  Biso   1.000  C
  H33      1.0000 0.63210  0.32860  0.24700  Biso   1.000  H
  C44      1.0000 0.77593  0.28689  0.25676  Biso   1.000  C
  C45      1.0000 0.84180  0.22964  0.30153  Biso   1.000  C
  H34      1.0000 0.90900  0.23060  0.29110  Biso   1.000  H
  C46      1.0000 0.80840  0.17036  0.36223  Biso   1.000  C
  H35      1.0000 0.85340  0.13180  0.39250  Biso   1.000  H
  C47      1.0000 0.81100  0.33610  0.18088  Biso   1.000  C
  C48      1.0000 0.64510  0.04510  0.22020  Biso   1.000  C
  H36      1.0000 0.60410  0.01460  0.25610  Biso   1.000  H
  C49      1.0000 0.74420  0.03100  0.21660  Biso   1.000  C
  H37      1.0000 0.78280  0.98980  0.24990  Biso   1.000  H
  C50      1.0000 0.77780  0.08770  0.15580  Biso   1.000  C
  H38      1.0000 0.84310  0.09110  0.14000  Biso   1.000  H
  C51      1.0000 0.69940  0.13860  0.12210  Biso   1.000  C
  H39      1.0000 0.70220  0.18320  0.07990  Biso   1.000  H
  C52      1.0000 0.61460  0.11240  0.16150  Biso   1.000  C
  H40      1.0000 0.55040  0.13530  0.15080  Biso   1.000  H
  C53      1.0000 0.81720  0.18800  0.61420  Biso   1.000  C
  H41      1.0000 0.82250  0.14160  0.57420  Biso   1.000  H
  C54      1.0000 0.89090  0.21460  0.67700  Biso   1.000  C
  H42      1.0000 0.95410  0.18910  0.68640  Biso   1.000  H
  C55      1.0000 0.85330  0.28580  0.72330  Biso   1.000  C
  H43      1.0000 0.88710  0.31650  0.76910  Biso   1.000  H
  C56      1.0000 0.75650  0.30330  0.68910  Biso   1.000  C
  H44      1.0000 0.71410  0.34760  0.70790  Biso   1.000  H
  C57      1.0000 0.73420  0.24280  0.62160  Biso   1.000  C
  H45      1.0000 0.67420  0.23960  0.58750  Biso   1.000  H
  C58      1.0000 0.83860  0.25490  0.67320  Biso   1.000  C
  C59      1.0000 0.77370  0.31040  0.71470  Biso   1.000  C
  C60      1.0000 0.67750  0.29460  0.67820  Biso   1.000  C
  C61      1.0000 0.68280  0.22930  0.61420  Biso   1.000  C
  C62      1.0000 0.78240  0.20480  0.61110  Biso   1.000  C
  H46      1.0000 0.90740  0.25190  0.68500  Biso   1.000  H
  H47      1.0000 0.79160  0.35100  0.75910  Biso   1.000  H
  H48      1.0000 0.61960  0.32270  0.69390  Biso   1.000  H
  H49      1.0000 0.62920  0.20610  0.57950  Biso   1.000  H
  H50      1.0000 0.80710  0.16240  0.57390  Biso   1.000  H
  Co3      1.0000 0.26247  0.09073  0.50370  Biso   1.000  Co
  Fe5      1.0000 0.21987  0.34037  0.74947  Biso   1.000  Fe
  Fe6      1.0000 0.25441  0.32264  0.23152  Biso   1.000  Fe
  O19      1.0000 0.39730  0.25536  0.43038  Biso   1.000  O
  O20      1.0000 0.24535  0.22011  0.45925  Biso   1.000  O
  O21      1.0000 0.22084  0.55025  0.12046  Biso   1.000  O
  O22      1.0000 0.07867  0.47515  0.11341  Biso   1.000  O
  O23      1.0000 0.08160  0.41098  0.93457  Biso   1.000  O
  O24      1.0000 0.23489  0.46031  0.95821  Biso   1.000  O
  O25      1.0000 0.24536  0.13212  0.62919  Biso   1.000  O
  O26      1.0000 0.40080  0.16003  0.67694  Biso   1.000  O
  O27      1.0000 0.08446  0.61073  0.97496  Biso   1.000  O
  H51      1.0000 0.08200  0.62800  0.92100  Biso   1.000  H
  H52      1.0000 0.07500  0.65300  0.00450  Biso   1.000  H
  C63      1.0000 0.16125  0.49605  0.14648  Biso   1.000  C
  C64      1.0000 0.19264  0.44703  0.22774  Biso   1.000  C
  C65      1.0000 0.29070  0.45307  0.26057  Biso   1.000  C
  H53      1.0000 0.33270  0.49590  0.23850  Biso   1.000  H
  C66      1.0000 0.32680  0.39581  0.32619  Biso   1.000  C
  H54      1.0000 0.39350  0.39930  0.34700  Biso   1.000  H
  C67      1.0000 0.26500  0.33383  0.36090  Biso   1.000  C
  C68      1.0000 0.16660  0.33150  0.33074  Biso   1.000  C
  H55      1.0000 0.12340  0.29190  0.35560  Biso   1.000  H
  C69      1.0000 0.13040  0.38710  0.26400  Biso   1.000  C
  H56      1.0000 0.06350  0.38390  0.24360  Biso   1.000  H
  C70      1.0000 0.30630  0.26410  0.42246  Biso   1.000  C
  C71      1.0000 0.17151  0.40774  0.92844  Biso   1.000  C
  C72      1.0000 0.20854  0.33180  0.87793  Biso   1.000  C
  C73      1.0000 0.14390  0.27043  0.83595  Biso   1.000  C
  H57      1.0000 0.07750  0.26880  0.84890  Biso   1.000  H
  C74      1.0000 0.17650  0.21180  0.77538  Biso   1.000  C
  H58      1.0000 0.13210  0.17140  0.74700  Biso   1.000  H
  C75      1.0000 0.27593  0.21311  0.75676  Biso   1.000  C
  C76      1.0000 0.34180  0.27036  0.80153  Biso   1.000  C
  H59      1.0000 0.40900  0.26940  0.79110  Biso   1.000  H
  C77      1.0000 0.30840  0.32964  0.86223  Biso   1.000  C
  H60      1.0000 0.35340  0.36820  0.89250  Biso   1.000  H
  C78      1.0000 0.31100  0.16390  0.68088  Biso   1.000  C
  C79      1.0000 0.14510  0.45490  0.72020  Biso   1.000  C
  H61      1.0000 0.10410  0.48540  0.75610  Biso   1.000  H
  C80      1.0000 0.24420  0.46900  0.71660  Biso   1.000  C
  H62      1.0000 0.28280  0.51020  0.74990  Biso   1.000  H
  C81      1.0000 0.27780  0.41230  0.65580  Biso   1.000  C
  H63      1.0000 0.34310  0.40890  0.64000  Biso   1.000  H
  C82      1.0000 0.19940  0.36140  0.62210  Biso   1.000  C
  H64      1.0000 0.20220  0.31680  0.57990  Biso   1.000  H
  C83      1.0000 0.11460  0.38760  0.66150  Biso   1.000  C
  H65      1.0000 0.05040  0.36470  0.65080  Biso   1.000  H
  C84      1.0000 0.31720  0.31200  0.11420  Biso   1.000  C
  H66      1.0000 0.32250  0.35840  0.07420  Biso   1.000  H
  C85      1.0000 0.39090  0.28540  0.17700  Biso   1.000  C
  H67      1.0000 0.45410  0.31090  0.18640  Biso   1.000  H
  C86      1.0000 0.35330  0.21420  0.22330  Biso   1.000  C
  H68      1.0000 0.38710  0.18350  0.26910  Biso   1.000  H
  C87      1.0000 0.25650  0.19670  0.18910  Biso   1.000  C
  H69      1.0000 0.21410  0.15240  0.20790  Biso   1.000  H
  C88      1.0000 0.23420  0.25720  0.12160  Biso   1.000  C
  H70      1.0000 0.17420  0.26040  0.08750  Biso   1.000  H
  C89      1.0000 0.33860  0.24510  0.17320  Biso   1.000  C
  C90      1.0000 0.27370  0.18960  0.21470  Biso   1.000  C
  C91      1.0000 0.17750  0.20540  0.17820  Biso   1.000  C
  C92      1.0000 0.18280  0.27070  0.11420  Biso   1.000  C
  C93      1.0000 0.28240  0.29520  0.11110  Biso   1.000  C
  H71      1.0000 0.40740  0.24810  0.18500  Biso   1.000  H
  H72      1.0000 0.29160  0.14900  0.25910  Biso   1.000  H
  H73      1.0000 0.11960  0.17730  0.19390  Biso   1.000  H
  H74      1.0000 0.12920  0.29390  0.07950  Biso   1.000  H
  H75      1.0000 0.30710  0.33760  0.07390  Biso   1.000  H
  Co4      1.0000 0.23753  0.59073  0.99630  Biso   1.000  Co
  Fe7      1.0000 0.28013  0.84037  0.75053  Biso   1.000  Fe
  Fe8      1.0000 0.24559  0.82264  0.26848  Biso   1.000  Fe
  O28      1.0000 0.10270  0.75536  0.06962  Biso   1.000  O
  O29      1.0000 0.25465  0.72011  0.04075  Biso   1.000  O
  O30      1.0000 0.27916  0.05025  0.37954  Biso   1.000  O
  O31      1.0000 0.42133  0.97515  0.38659  Biso   1.000  O
  O32      1.0000 0.41840  0.91098  0.56543  Biso   1.000  O
  O33      1.0000 0.26511  0.96031  0.54179  Biso   1.000  O
  O34      1.0000 0.25464  0.63212  0.87081  Biso   1.000  O
  O35      1.0000 0.09920  0.66003  0.82306  Biso   1.000  O
  O36      1.0000 0.41554  0.11073  0.52504  Biso   1.000  O
  H76      1.0000 0.41800  0.12800  0.57900  Biso   1.000  H
  H77      1.0000 0.42500  0.15300  0.49550  Biso   1.000  H
  C94      1.0000 0.33875  0.99605  0.35352  Biso   1.000  C
  C95      1.0000 0.30736  0.94703  0.27226  Biso   1.000  C
  C96      1.0000 0.20930  0.95307  0.23943  Biso   1.000  C
  H78      1.0000 0.16730  0.99590  0.26150  Biso   1.000  H
  C97      1.0000 0.17320  0.89581  0.17381  Biso   1.000  C
  H79      1.0000 0.10650  0.89930  0.15300  Biso   1.000  H
  C98      1.0000 0.23500  0.83383  0.13910  Biso   1.000  C
  C99      1.0000 0.33340  0.83150  0.16926  Biso   1.000  C
  H80      1.0000 0.37660  0.79190  0.14440  Biso   1.000  H
  C100     1.0000 0.36960  0.88710  0.23600  Biso   1.000  C
  H81      1.0000 0.43650  0.88390  0.25640  Biso   1.000  H
  C101     1.0000 0.19370  0.76410  0.07754  Biso   1.000  C
  C102     1.0000 0.32849  0.90774  0.57156  Biso   1.000  C
  C103     1.0000 0.29146  0.83180  0.62207  Biso   1.000  C
  C104     1.0000 0.35610  0.77043  0.66405  Biso   1.000  C
  H82      1.0000 0.42250  0.76880  0.65110  Biso   1.000  H
  C105     1.0000 0.32350  0.71180  0.72462  Biso   1.000  C
  H83      1.0000 0.36790  0.67140  0.75300  Biso   1.000  H
  C106     1.0000 0.22407  0.71311  0.74324  Biso   1.000  C
  C107     1.0000 0.15820  0.77036  0.69847  Biso   1.000  C
  H84      1.0000 0.09100  0.76940  0.70890  Biso   1.000  H
  C108     1.0000 0.19160  0.82964  0.63777  Biso   1.000  C
  H85      1.0000 0.14660  0.86820  0.60750  Biso   1.000  H
  C109     1.0000 0.18900  0.66390  0.81912  Biso   1.000  C
  C110     1.0000 0.35490  0.95490  0.77980  Biso   1.000  C
  H86      1.0000 0.39590  0.98540  0.74390  Biso   1.000  H
  C111     1.0000 0.25580  0.96900  0.78340  Biso   1.000  C
  H87      1.0000 0.21720  0.01020  0.75010  Biso   1.000  H
  C112     1.0000 0.22220  0.91230  0.84420  Biso   1.000  C
  H88      1.0000 0.15690  0.90890  0.86000  Biso   1.000  H
  C113     1.0000 0.30060  0.86140  0.87790  Biso   1.000  C
  H89      1.0000 0.29780  0.81680  0.92010  Biso   1.000  H
  C114     1.0000 0.38540  0.88760  0.83850  Biso   1.000  C
  H90      1.0000 0.44960  0.86470  0.84920  Biso   1.000  H
  C115     1.0000 0.18280  0.81200  0.38580  Biso   1.000  C
  H91      1.0000 0.17750  0.85840  0.42580  Biso   1.000  H
  C116     1.0000 0.10910  0.78540  0.32300  Biso   1.000  C
  H92      1.0000 0.04590  0.81090  0.31360  Biso   1.000  H
  C117     1.0000 0.14670  0.71420  0.27670  Biso   1.000  C
  H93      1.0000 0.11290  0.68350  0.23090  Biso   1.000  H
  C118     1.0000 0.24350  0.69670  0.31090  Biso   1.000  C
  H94      1.0000 0.28590  0.65240  0.29210  Biso   1.000  H
  C119     1.0000 0.26580  0.75720  0.37840  Biso   1.000  C
  H95      1.0000 0.32580  0.76040  0.41250  Biso   1.000  H
  C120     1.0000 0.16140  0.74510  0.32680  Biso   1.000  C
  C121     1.0000 0.22630  0.68960  0.28530  Biso   1.000  C
  C122     1.0000 0.32250  0.70540  0.32180  Biso   1.000  C
  C123     1.0000 0.31720  0.77070  0.38580  Biso   1.000  C
  C124     1.0000 0.21760  0.79520  0.38890  Biso   1.000  C
  H96      1.0000 0.09260  0.74810  0.31500  Biso   1.000  H
  H97      1.0000 0.20840  0.64900  0.24090  Biso   1.000  H
  H98      1.0000 0.38040  0.67730  0.30610  Biso   1.000  H
  H99      1.0000 0.37080  0.79390  0.42050  Biso   1.000  H
  H100     1.0000 0.19290  0.83760  0.42610  Biso   1.000  H
  Co5      1.0000 0.00000  0.50000  0.00000  Biso   1.000  Co
  Co6      1.0000 0.50000  0.00000  0.50000  Biso   1.000  Co
