data_image0
_cell_length_a       13.5063
_cell_length_b       15.3586
_cell_length_c       15.8303
_cell_angle_alpha    90
_cell_angle_beta     95.849
_cell_angle_gamma    90

_symmetry_space_group_name_H-M    "P 1"
_symmetry_int_tables_number       1

loop_
  _symmetry_equiv_pos_as_xyz
  'x, y, z'

loop_
  _atom_site_label
  _atom_site_occupancy
  _atom_site_fract_x
  _atom_site_fract_y
  _atom_site_fract_z
  _atom_site_thermal_displace_type
  _atom_site_B_iso_or_equiv
  _atom_site_type_symbol
  O1       1.0000 0.09430  0.75300  0.57350  Biso   1.000  O
  Co1      1.0000 0.24066  0.90479  0.49645  Biso   1.000  Co
  O2       1.0000 0.25040  0.77966  0.54404  Biso   1.000  O
  C1       1.0000 0.22660  0.66960  0.64190  Biso   1.000  C
  Fe1      1.0000 0.28448  0.65413  0.25418  Biso   1.000  Fe
  O3       1.0000 0.42175  0.51710  0.88274  Biso   1.000  O
  C2       1.0000 0.16240  0.61620  0.68170  Biso   1.000  C
  H1       1.0000 0.09280  0.61970  0.66580  Biso   1.000  H
  Fe2      1.0000 0.25408  0.68168  0.77095  Biso   1.000  Fe
  O4       1.0000 0.27223  0.45304  0.88123  Biso   1.000  O
  C3       1.0000 0.19890  0.55710  0.74510  Biso   1.000  C
  H2       1.0000 0.15420  0.51840  0.76860  Biso   1.000  H
  O5       1.0000 0.41723  0.38972  0.02636  Biso   1.000  O
  H3       1.0000 0.43410  0.37370  0.08670  Biso   1.000  H
  H4       1.0000 0.43770  0.34080  0.99130  Biso   1.000  H
  C4       1.0000 0.29870  0.55450  0.77380  Biso   1.000  C
  C5       1.0000 0.36510  0.60530  0.73270  Biso   1.000  C
  H5       1.0000 0.43460  0.60170  0.74900  Biso   1.000  H
  O6       1.0000 0.25870  0.52954  0.04899  Biso   1.000  O
  C6       1.0000 0.32800  0.66220  0.66650  Biso   1.000  C
  H6       1.0000 0.37340  0.69620  0.63840  Biso   1.000  H
  O7       1.0000 0.41060  0.58745  0.05868  Biso   1.000  O
  C7       1.0000 0.33390  0.50330  0.85360  Biso   1.000  C
  O8       1.0000 0.09850  0.83680  0.32220  Biso   1.000  O
  O9       1.0000 0.25740  0.85776  0.37303  Biso   1.000  O
  C8       1.0000 0.18540  0.73980  0.58090  Biso   1.000  C
  C9       1.0000 0.32220  0.58510  0.07310  Biso   1.000  C
  C10      1.0000 0.28630  0.65880  0.12560  Biso   1.000  C
  C11      1.0000 0.35230  0.72150  0.16270  Biso   1.000  C
  H7       1.0000 0.41790  0.72540  0.14620  Biso   1.000  H
  C12      1.0000 0.32120  0.77910  0.22470  Biso   1.000  C
  H8       1.0000 0.36710  0.81990  0.25140  Biso   1.000  H
  C13      1.0000 0.22330  0.77630  0.24720  Biso   1.000  C
  C14      1.0000 0.15590  0.71780  0.20390  Biso   1.000  C
  H9       1.0000 0.08810  0.71840  0.21520  Biso   1.000  H
  C15      1.0000 0.18670  0.65900  0.14480  Biso   1.000  C
  H10      1.0000 0.14040  0.61890  0.11740  Biso   1.000  H
  C16      1.0000 0.19060  0.82830  0.32080  Biso   1.000  C
  C17      1.0000 0.39790  0.61560  0.34100  Biso   1.000  C
  H11      1.0000 0.46130  0.64280  0.34940  Biso   1.000  H
  C18      1.0000 0.31010  0.63530  0.38090  Biso   1.000  C
  H12      1.0000 0.30450  0.67930  0.42230  Biso   1.000  H
  C19      1.0000 0.23670  0.58110  0.35010  Biso   1.000  C
  H13      1.0000 0.17130  0.58050  0.36720  Biso   1.000  H
  C20      1.0000 0.26990  0.52770  0.29100  Biso   1.000  C
  H14      1.0000 0.23100  0.48530  0.25910  Biso   1.000  H
  C21      1.0000 0.36680  0.54420  0.28450  Biso   1.000  C
  H15      1.0000 0.40790  0.51410  0.24890  Biso   1.000  H
  C22      1.0000 0.12510  0.72710  0.82440  Biso   1.000  C
  H16      1.0000 0.05710  0.71150  0.81210  Biso   1.000  H
  C23      1.0000 0.17600  0.79310  0.78320  Biso   1.000  C
  H17      1.0000 0.14800  0.82940  0.73840  Biso   1.000  H
  C24      1.0000 0.27600  0.79530  0.82070  Biso   1.000  C
  H18      1.0000 0.32670  0.83330  0.80530  Biso   1.000  H
  C25      1.0000 0.28700  0.73060  0.88510  Biso   1.000  C
  H19      1.0000 0.34640  0.71780  0.92040  Biso   1.000  H
  C26      1.0000 0.19380  0.68850  0.88740  Biso   1.000  C
  H20      1.0000 0.17980  0.64260  0.92460  Biso   1.000  H
  C27      1.0000 0.20830  0.80060  0.81150  Biso   1.000  C
  C28      1.0000 0.30000  0.82150  0.77980  Biso   1.000  C
  C29      1.0000 0.37710  0.77670  0.82980  Biso   1.000  C
  C30      1.0000 0.33300  0.72810  0.89250  Biso   1.000  C
  C31      1.0000 0.22870  0.74290  0.88120  Biso   1.000  C
  H21      1.0000 0.14460  0.82160  0.78990  Biso   1.000  H
  H22      1.0000 0.30840  0.85890  0.73320  Biso   1.000  H
  H23      1.0000 0.44600  0.77880  0.82270  Biso   1.000  H
  H24      1.0000 0.36720  0.69200  0.93460  Biso   1.000  H
  H25      1.0000 0.18090  0.71850  0.91440  Biso   1.000  H
  O10      1.0000 0.40570  0.25300  0.92650  Biso   1.000  O
  Co2      1.0000 0.25934  0.40479  0.00355  Biso   1.000  Co
  O11      1.0000 0.24960  0.27966  0.95596  Biso   1.000  O
  C32      1.0000 0.27340  0.16960  0.85810  Biso   1.000  C
  Fe3      1.0000 0.21552  0.15413  0.24582  Biso   1.000  Fe
  O12      1.0000 0.07825  0.01710  0.61726  Biso   1.000  O
  C33      1.0000 0.33760  0.11620  0.81830  Biso   1.000  C
  H26      1.0000 0.40720  0.11970  0.83420  Biso   1.000  H
  Fe4      1.0000 0.24592  0.18168  0.72905  Biso   1.000  Fe
  O13      1.0000 0.22777  0.95304  0.61877  Biso   1.000  O
  C34      1.0000 0.30110  0.05710  0.75490  Biso   1.000  C
  H27      1.0000 0.34580  0.01840  0.73140  Biso   1.000  H
  O14      1.0000 0.08277  0.88972  0.47364  Biso   1.000  O
  H28      1.0000 0.06590  0.87370  0.41330  Biso   1.000  H
  H29      1.0000 0.06230  0.84080  0.50870  Biso   1.000  H
  C35      1.0000 0.20130  0.05450  0.72620  Biso   1.000  C
  C36      1.0000 0.13490  0.10530  0.76730  Biso   1.000  C
  H30      1.0000 0.06540  0.10170  0.75100  Biso   1.000  H
  O15      1.0000 0.24130  0.02954  0.45101  Biso   1.000  O
  C37      1.0000 0.17200  0.16220  0.83350  Biso   1.000  C
  H31      1.0000 0.12660  0.19620  0.86160  Biso   1.000  H
  O16      1.0000 0.08940  0.08745  0.44132  Biso   1.000  O
  C38      1.0000 0.16610  0.00330  0.64640  Biso   1.000  C
  O17      1.0000 0.40150  0.33680  0.17780  Biso   1.000  O
  O18      1.0000 0.24260  0.35776  0.12697  Biso   1.000  O
  C39      1.0000 0.31460  0.23980  0.91910  Biso   1.000  C
  C40      1.0000 0.17780  0.08510  0.42690  Biso   1.000  C
  C41      1.0000 0.21370  0.15880  0.37440  Biso   1.000  C
  C42      1.0000 0.14770  0.22150  0.33730  Biso   1.000  C
  H32      1.0000 0.08210  0.22540  0.35380  Biso   1.000  H
  C43      1.0000 0.17880  0.27910  0.27530  Biso   1.000  C
  H33      1.0000 0.13290  0.31990  0.24860  Biso   1.000  H
  C44      1.0000 0.27670  0.27630  0.25280  Biso   1.000  C
  C45      1.0000 0.34410  0.21780  0.29610  Biso   1.000  C
  H34      1.0000 0.41190  0.21840  0.28480  Biso   1.000  H
  C46      1.0000 0.31330  0.15900  0.35520  Biso   1.000  C
  H35      1.0000 0.35960  0.11890  0.38260  Biso   1.000  H
  C47      1.0000 0.30940  0.32830  0.17920  Biso   1.000  C
  C48      1.0000 0.10210  0.11560  0.15900  Biso   1.000  C
  H36      1.0000 0.03870  0.14280  0.15060  Biso   1.000  H
  C49      1.0000 0.18990  0.13530  0.11910  Biso   1.000  C
  H37      1.0000 0.19550  0.17930  0.07770  Biso   1.000  H
  C50      1.0000 0.26330  0.08110  0.14990  Biso   1.000  C
  H38      1.0000 0.32870  0.08050  0.13280  Biso   1.000  H
  C51      1.0000 0.23010  0.02770  0.20900  Biso   1.000  C
  H39      1.0000 0.26900  0.98530  0.24090  Biso   1.000  H
  C52      1.0000 0.13320  0.04420  0.21550  Biso   1.000  C
  H40      1.0000 0.09210  0.01410  0.25110  Biso   1.000  H
  C53      1.0000 0.37490  0.22710  0.67560  Biso   1.000  C
  H41      1.0000 0.44290  0.21150  0.68790  Biso   1.000  H
  C54      1.0000 0.32400  0.29310  0.71680  Biso   1.000  C
  H42      1.0000 0.35200  0.32940  0.76160  Biso   1.000  H
  C55      1.0000 0.22400  0.29530  0.67930  Biso   1.000  C
  H43      1.0000 0.17330  0.33330  0.69470  Biso   1.000  H
  C56      1.0000 0.21300  0.23060  0.61490  Biso   1.000  C
  H44      1.0000 0.15360  0.21780  0.57960  Biso   1.000  H
  C57      1.0000 0.30620  0.18850  0.61260  Biso   1.000  C
  H45      1.0000 0.32020  0.14260  0.57540  Biso   1.000  H
  C58      1.0000 0.29170  0.30060  0.68850  Biso   1.000  C
  C59      1.0000 0.20000  0.32150  0.72020  Biso   1.000  C
  C60      1.0000 0.12290  0.27670  0.67020  Biso   1.000  C
  C61      1.0000 0.16700  0.22810  0.60750  Biso   1.000  C
  C62      1.0000 0.27130  0.24290  0.61880  Biso   1.000  C
  H46      1.0000 0.35540  0.32160  0.71010  Biso   1.000  H
  H47      1.0000 0.19160  0.35890  0.76680  Biso   1.000  H
  H48      1.0000 0.05400  0.27880  0.67730  Biso   1.000  H
  H49      1.0000 0.13280  0.19200  0.56540  Biso   1.000  H
  H50      1.0000 0.31910  0.21850  0.58560  Biso   1.000  H
  O19      1.0000 0.90570  0.24700  0.42650  Biso   1.000  O
  Co3      1.0000 0.75934  0.09521  0.50355  Biso   1.000  Co
  O20      1.0000 0.74960  0.22034  0.45596  Biso   1.000  O
  C63      1.0000 0.77340  0.33040  0.35810  Biso   1.000  C
  Fe5      1.0000 0.71552  0.34587  0.74582  Biso   1.000  Fe
  O21      1.0000 0.57825  0.48290  0.11726  Biso   1.000  O
  C64      1.0000 0.83760  0.38380  0.31830  Biso   1.000  C
  H51      1.0000 0.90720  0.38030  0.33420  Biso   1.000  H
  Fe6      1.0000 0.74592  0.31832  0.22905  Biso   1.000  Fe
  O22      1.0000 0.72777  0.54696  0.11877  Biso   1.000  O
  C65      1.0000 0.80110  0.44290  0.25490  Biso   1.000  C
  H52      1.0000 0.84580  0.48160  0.23140  Biso   1.000  H
  O23      1.0000 0.58277  0.61028  0.97364  Biso   1.000  O
  H53      1.0000 0.56590  0.62630  0.91330  Biso   1.000  H
  H54      1.0000 0.56230  0.65920  0.00870  Biso   1.000  H
  C66      1.0000 0.70130  0.44550  0.22620  Biso   1.000  C
  C67      1.0000 0.63490  0.39470  0.26730  Biso   1.000  C
  H55      1.0000 0.56540  0.39830  0.25100  Biso   1.000  H
  O24      1.0000 0.74130  0.47046  0.95101  Biso   1.000  O
  C68      1.0000 0.67200  0.33780  0.33350  Biso   1.000  C
  H56      1.0000 0.62660  0.30380  0.36160  Biso   1.000  H
  O25      1.0000 0.58940  0.41255  0.94132  Biso   1.000  O
  C69      1.0000 0.66610  0.49670  0.14640  Biso   1.000  C
  O26      1.0000 0.90150  0.16320  0.67780  Biso   1.000  O
  O27      1.0000 0.74260  0.14224  0.62697  Biso   1.000  O
  C70      1.0000 0.81460  0.26020  0.41910  Biso   1.000  C
  C71      1.0000 0.67780  0.41490  0.92690  Biso   1.000  C
  C72      1.0000 0.71370  0.34120  0.87440  Biso   1.000  C
  C73      1.0000 0.64770  0.27850  0.83730  Biso   1.000  C
  H57      1.0000 0.58210  0.27460  0.85380  Biso   1.000  H
  C74      1.0000 0.67880  0.22090  0.77530  Biso   1.000  C
  H58      1.0000 0.63290  0.18010  0.74860  Biso   1.000  H
  C75      1.0000 0.77670  0.22370  0.75280  Biso   1.000  C
  C76      1.0000 0.84410  0.28220  0.79610  Biso   1.000  C
  H59      1.0000 0.91190  0.28160  0.78480  Biso   1.000  H
  C77      1.0000 0.81330  0.34100  0.85520  Biso   1.000  C
  H60      1.0000 0.85960  0.38110  0.88260  Biso   1.000  H
  C78      1.0000 0.80940  0.17170  0.67920  Biso   1.000  C
  C79      1.0000 0.60210  0.38440  0.65900  Biso   1.000  C
  H61      1.0000 0.53870  0.35720  0.65060  Biso   1.000  H
  C80      1.0000 0.68990  0.36470  0.61910  Biso   1.000  C
  H62      1.0000 0.69550  0.32070  0.57770  Biso   1.000  H
  C81      1.0000 0.76330  0.41890  0.64990  Biso   1.000  C
  H63      1.0000 0.82870  0.41950  0.63280  Biso   1.000  H
  C82      1.0000 0.73010  0.47230  0.70900  Biso   1.000  C
  H64      1.0000 0.76900  0.51470  0.74090  Biso   1.000  H
  C83      1.0000 0.63320  0.45580  0.71550  Biso   1.000  C
  H65      1.0000 0.59210  0.48590  0.75110  Biso   1.000  H
  C84      1.0000 0.87490  0.27290  0.17560  Biso   1.000  C
  H66      1.0000 0.94290  0.28850  0.18790  Biso   1.000  H
  C85      1.0000 0.82400  0.20690  0.21680  Biso   1.000  C
  H67      1.0000 0.85200  0.17060  0.26160  Biso   1.000  H
  C86      1.0000 0.72400  0.20470  0.17930  Biso   1.000  C
  H68      1.0000 0.67330  0.16670  0.19470  Biso   1.000  H
  C87      1.0000 0.71300  0.26940  0.11490  Biso   1.000  C
  H69      1.0000 0.65360  0.28220  0.07960  Biso   1.000  H
  C88      1.0000 0.80620  0.31150  0.11260  Biso   1.000  C
  H70      1.0000 0.82020  0.35740  0.07540  Biso   1.000  H
  C89      1.0000 0.79170  0.19940  0.18850  Biso   1.000  C
  C90      1.0000 0.70000  0.17850  0.22020  Biso   1.000  C
  C91      1.0000 0.62290  0.22330  0.17020  Biso   1.000  C
  C92      1.0000 0.66700  0.27190  0.10750  Biso   1.000  C
  C93      1.0000 0.77130  0.25710  0.11880  Biso   1.000  C
  H71      1.0000 0.85540  0.17840  0.21010  Biso   1.000  H
  H72      1.0000 0.69160  0.14110  0.26680  Biso   1.000  H
  H73      1.0000 0.55400  0.22120  0.17730  Biso   1.000  H
  H74      1.0000 0.63280  0.30800  0.06540  Biso   1.000  H
  H75      1.0000 0.81910  0.28150  0.08560  Biso   1.000  H
  O28      1.0000 0.59430  0.74700  0.07350  Biso   1.000  O
  Co4      1.0000 0.74066  0.59521  0.99645  Biso   1.000  Co
  O29      1.0000 0.75040  0.72034  0.04404  Biso   1.000  O
  C94      1.0000 0.72660  0.83040  0.14190  Biso   1.000  C
  Fe7      1.0000 0.78448  0.84587  0.75418  Biso   1.000  Fe
  O30      1.0000 0.92175  0.98290  0.38274  Biso   1.000  O
  C95      1.0000 0.66240  0.88380  0.18170  Biso   1.000  C
  H76      1.0000 0.59280  0.88030  0.16580  Biso   1.000  H
  Fe8      1.0000 0.75408  0.81832  0.27095  Biso   1.000  Fe
  O31      1.0000 0.77223  0.04696  0.38123  Biso   1.000  O
  C96      1.0000 0.69890  0.94290  0.24510  Biso   1.000  C
  H77      1.0000 0.65420  0.98160  0.26860  Biso   1.000  H
  O32      1.0000 0.91723  0.11028  0.52636  Biso   1.000  O
  H78      1.0000 0.93410  0.12630  0.58670  Biso   1.000  H
  H79      1.0000 0.93770  0.15920  0.49130  Biso   1.000  H
  C97      1.0000 0.79870  0.94550  0.27380  Biso   1.000  C
  C98      1.0000 0.86510  0.89470  0.23270  Biso   1.000  C
  H80      1.0000 0.93460  0.89830  0.24900  Biso   1.000  H
  O33      1.0000 0.75870  0.97046  0.54899  Biso   1.000  O
  C99      1.0000 0.82800  0.83780  0.16650  Biso   1.000  C
  H81      1.0000 0.87340  0.80380  0.13840  Biso   1.000  H
  O34      1.0000 0.91060  0.91255  0.55868  Biso   1.000  O
  C100     1.0000 0.83390  0.99670  0.35360  Biso   1.000  C
  O35      1.0000 0.59850  0.66320  0.82220  Biso   1.000  O
  O36      1.0000 0.75740  0.64224  0.87303  Biso   1.000  O
  C101     1.0000 0.68540  0.76020  0.08090  Biso   1.000  C
  C102     1.0000 0.82220  0.91490  0.57310  Biso   1.000  C
  C103     1.0000 0.78630  0.84120  0.62560  Biso   1.000  C
  C104     1.0000 0.85230  0.77850  0.66270  Biso   1.000  C
  H82      1.0000 0.91790  0.77460  0.64620  Biso   1.000  H
  C105     1.0000 0.82120  0.72090  0.72470  Biso   1.000  C
  H83      1.0000 0.86710  0.68010  0.75140  Biso   1.000  H
  C106     1.0000 0.72330  0.72370  0.74720  Biso   1.000  C
  C107     1.0000 0.65590  0.78220  0.70390  Biso   1.000  C
  H84      1.0000 0.58810  0.78160  0.71520  Biso   1.000  H
  C108     1.0000 0.68670  0.84100  0.64480  Biso   1.000  C
  H85      1.0000 0.64040  0.88110  0.61740  Biso   1.000  H
  C109     1.0000 0.69060  0.67170  0.82080  Biso   1.000  C
  C110     1.0000 0.89790  0.88440  0.84100  Biso   1.000  C
  H86      1.0000 0.96130  0.85720  0.84940  Biso   1.000  H
  C111     1.0000 0.81010  0.86470  0.88090  Biso   1.000  C
  H87      1.0000 0.80450  0.82070  0.92230  Biso   1.000  H
  C112     1.0000 0.73670  0.91890  0.85010  Biso   1.000  C
  H88      1.0000 0.67130  0.91950  0.86720  Biso   1.000  H
  C113     1.0000 0.76990  0.97230  0.79100  Biso   1.000  C
  H89      1.0000 0.73100  0.01470  0.75910  Biso   1.000  H
  C114     1.0000 0.86680  0.95580  0.78450  Biso   1.000  C
  H90      1.0000 0.90790  0.98590  0.74890  Biso   1.000  H
  C115     1.0000 0.62510  0.77290  0.32440  Biso   1.000  C
  H91      1.0000 0.55710  0.78850  0.31210  Biso   1.000  H
  C116     1.0000 0.67600  0.70690  0.28320  Biso   1.000  C
  H92      1.0000 0.64800  0.67060  0.23840  Biso   1.000  H
  C117     1.0000 0.77600  0.70470  0.32070  Biso   1.000  C
  H93      1.0000 0.82670  0.66670  0.30530  Biso   1.000  H
  C118     1.0000 0.78700  0.76940  0.38510  Biso   1.000  C
  H94      1.0000 0.84640  0.78220  0.42040  Biso   1.000  H
  C119     1.0000 0.69380  0.81150  0.38740  Biso   1.000  C
  H95      1.0000 0.67980  0.85740  0.42460  Biso   1.000  H
  C120     1.0000 0.70830  0.69940  0.31150  Biso   1.000  C
  C121     1.0000 0.80000  0.67850  0.27980  Biso   1.000  C
  C122     1.0000 0.87710  0.72330  0.32980  Biso   1.000  C
  C123     1.0000 0.83300  0.77190  0.39250  Biso   1.000  C
  C124     1.0000 0.72870  0.75710  0.38120  Biso   1.000  C
  H96      1.0000 0.64460  0.67840  0.28990  Biso   1.000  H
  H97      1.0000 0.80840  0.64110  0.23320  Biso   1.000  H
  H98      1.0000 0.94600  0.72120  0.32270  Biso   1.000  H
  H99      1.0000 0.86720  0.80800  0.43460  Biso   1.000  H
  H100     1.0000 0.68090  0.78150  0.41440  Biso   1.000  H
  Co5      1.0000 0.50000  0.50000  0.00000  Biso   1.000  Co
  Co6      1.0000 0.00000  0.00000  0.50000  Biso   1.000  Co
