data_image0
_cell_length_a       18.7626
_cell_length_b       18.7626
_cell_length_c       37.7902
_cell_angle_alpha    90
_cell_angle_beta     90
_cell_angle_gamma    120

_symmetry_space_group_name_H-M    "P 1"
_symmetry_int_tables_number       1

loop_
  _symmetry_equiv_pos_as_xyz
  'x, y, z'

loop_
  _atom_site_label
  _atom_site_occupancy
  _atom_site_fract_x
  _atom_site_fract_y
  _atom_site_fract_z
  _atom_site_thermal_displace_type
  _atom_site_B_iso_or_equiv
  _atom_site_type_symbol
  O1       1.0000 0.48271  0.37201  0.99562  Biso   1.000  O
  O2       1.0000 0.44280  0.41015  0.04434  Biso   1.000  O
  C1       1.0000 0.45410  0.36060  0.02649  Biso   1.000  C
  C2       1.0000 0.43310  0.28060  0.04408  Biso   1.000  C
  C3       1.0000 0.40330  0.26520  0.07876  Biso   1.000  C
  H1       1.0000 0.39310  0.30300  0.09030  Biso   1.000  H
  C4       1.0000 0.40170  0.14780  0.15700  Biso   1.000  C
  H2       1.0000 0.43800  0.12800  0.14940  Biso   1.000  H
  C5       1.0000 0.37940  0.13690  0.19230  Biso   1.000  C
  H3       1.0000 0.40100  0.11000  0.20650  Biso   1.000  H
  N1       1.0000 0.30350  0.20690  0.18190  Biso   1.000  N
  N2       1.0000 0.32490  0.21710  0.14690  Biso   1.000  N
  O3       1.0000 0.14938  0.70534  0.32895  Biso   1.000  O
  O4       1.0000 0.10947  0.74348  0.37767  Biso   1.000  O
  C6       1.0000 0.12077  0.69393  0.35982  Biso   1.000  C
  C7       1.0000 0.09977  0.61393  0.37741  Biso   1.000  C
  C8       1.0000 0.06997  0.59853  0.41209  Biso   1.000  C
  H4       1.0000 0.05977  0.63633  0.42363  Biso   1.000  H
  C9       1.0000 0.06837  0.48113  0.49033  Biso   1.000  C
  H5       1.0000 0.10467  0.46133  0.48273  Biso   1.000  H
  C10      1.0000 0.04607  0.47023  0.52563  Biso   1.000  C
  H6       1.0000 0.06767  0.44333  0.53983  Biso   1.000  H
  N3       1.0000 0.97017  0.54023  0.51523  Biso   1.000  N
  N4       1.0000 0.99157  0.55043  0.48023  Biso   1.000  N
  O5       1.0000 0.81604  0.03868  0.66229  Biso   1.000  O
  O6       1.0000 0.77613  0.07682  0.71101  Biso   1.000  O
  C11      1.0000 0.78743  0.02727  0.69316  Biso   1.000  C
  C12      1.0000 0.76643  0.94727  0.71075  Biso   1.000  C
  C13      1.0000 0.73663  0.93187  0.74543  Biso   1.000  C
  H7       1.0000 0.72643  0.96967  0.75697  Biso   1.000  H
  C14      1.0000 0.73503  0.81447  0.82367  Biso   1.000  C
  H8       1.0000 0.77133  0.79467  0.81607  Biso   1.000  H
  C15      1.0000 0.71273  0.80357  0.85897  Biso   1.000  C
  H9       1.0000 0.73433  0.77667  0.87317  Biso   1.000  H
  N5       1.0000 0.63683  0.87357  0.84857  Biso   1.000  N
  N6       1.0000 0.65823  0.88377  0.81357  Biso   1.000  N
  O7       1.0000 0.62799  0.11070  0.99562  Biso   1.000  O
  O8       1.0000 0.58985  0.03265  0.04434  Biso   1.000  O
  C16      1.0000 0.63940  0.09350  0.02649  Biso   1.000  C
  C17      1.0000 0.71940  0.15250  0.04408  Biso   1.000  C
  C18      1.0000 0.73480  0.13810  0.07876  Biso   1.000  C
  H10      1.0000 0.69700  0.09010  0.09030  Biso   1.000  H
  C19      1.0000 0.85220  0.25390  0.15700  Biso   1.000  C
  H11      1.0000 0.87200  0.31000  0.14940  Biso   1.000  H
  C20      1.0000 0.86310  0.24250  0.19230  Biso   1.000  C
  H12      1.0000 0.89000  0.29100  0.20650  Biso   1.000  H
  N7       1.0000 0.79310  0.09660  0.18190  Biso   1.000  N
  N8       1.0000 0.78290  0.10780  0.14690  Biso   1.000  N
  O9       1.0000 0.29466  0.44403  0.32895  Biso   1.000  O
  O10      1.0000 0.25652  0.36598  0.37767  Biso   1.000  O
  C21      1.0000 0.30607  0.42683  0.35982  Biso   1.000  C
  C22      1.0000 0.38607  0.48583  0.37741  Biso   1.000  C
  C23      1.0000 0.40147  0.47143  0.41209  Biso   1.000  C
  H13      1.0000 0.36367  0.42343  0.42363  Biso   1.000  H
  C24      1.0000 0.51887  0.58723  0.49033  Biso   1.000  C
  H14      1.0000 0.53867  0.64333  0.48273  Biso   1.000  H
  C25      1.0000 0.52977  0.57583  0.52563  Biso   1.000  C
  H15      1.0000 0.55667  0.62433  0.53983  Biso   1.000  H
  N9       1.0000 0.45977  0.42993  0.51523  Biso   1.000  N
  N10      1.0000 0.44957  0.44113  0.48023  Biso   1.000  N
  O11      1.0000 0.96132  0.77737  0.66229  Biso   1.000  O
  O12      1.0000 0.92318  0.69932  0.71101  Biso   1.000  O
  C26      1.0000 0.97273  0.76017  0.69316  Biso   1.000  C
  C27      1.0000 0.05273  0.81917  0.71075  Biso   1.000  C
  C28      1.0000 0.06813  0.80477  0.74543  Biso   1.000  C
  H16      1.0000 0.03033  0.75677  0.75697  Biso   1.000  H
  C29      1.0000 0.18553  0.92057  0.82367  Biso   1.000  C
  H17      1.0000 0.20533  0.97667  0.81607  Biso   1.000  H
  C30      1.0000 0.19643  0.90917  0.85897  Biso   1.000  C
  H18      1.0000 0.22333  0.95767  0.87317  Biso   1.000  H
  N11      1.0000 0.12643  0.76327  0.84857  Biso   1.000  N
  N12      1.0000 0.11623  0.77447  0.81357  Biso   1.000  N
  O13      1.0000 0.88930  0.51729  0.99562  Biso   1.000  O
  O14      1.0000 0.96735  0.55720  0.04434  Biso   1.000  O
  C31      1.0000 0.90650  0.54590  0.02649  Biso   1.000  C
  C32      1.0000 0.84750  0.56690  0.04408  Biso   1.000  C
  C33      1.0000 0.86190  0.59670  0.07876  Biso   1.000  C
  H19      1.0000 0.90990  0.60690  0.09030  Biso   1.000  H
  C34      1.0000 0.74610  0.59830  0.15700  Biso   1.000  C
  H20      1.0000 0.69000  0.56200  0.14940  Biso   1.000  H
  C35      1.0000 0.75750  0.62060  0.19230  Biso   1.000  C
  H21      1.0000 0.70900  0.59900  0.20650  Biso   1.000  H
  N13      1.0000 0.90340  0.69650  0.18190  Biso   1.000  N
  N14      1.0000 0.89220  0.67510  0.14690  Biso   1.000  N
  O15      1.0000 0.55597  0.85062  0.32895  Biso   1.000  O
  O16      1.0000 0.63402  0.89053  0.37767  Biso   1.000  O
  C36      1.0000 0.57317  0.87923  0.35982  Biso   1.000  C
  C37      1.0000 0.51417  0.90023  0.37741  Biso   1.000  C
  C38      1.0000 0.52857  0.93003  0.41209  Biso   1.000  C
  H22      1.0000 0.57657  0.94023  0.42363  Biso   1.000  H
  C39      1.0000 0.41277  0.93163  0.49033  Biso   1.000  C
  H23      1.0000 0.35667  0.89533  0.48273  Biso   1.000  H
  C40      1.0000 0.42417  0.95393  0.52563  Biso   1.000  C
  H24      1.0000 0.37567  0.93233  0.53983  Biso   1.000  H
  N15      1.0000 0.57007  0.02983  0.51523  Biso   1.000  N
  N16      1.0000 0.55887  0.00843  0.48023  Biso   1.000  N
  O17      1.0000 0.22263  0.18396  0.66229  Biso   1.000  O
  O18      1.0000 0.30068  0.22387  0.71101  Biso   1.000  O
  C41      1.0000 0.23983  0.21257  0.69316  Biso   1.000  C
  C42      1.0000 0.18083  0.23357  0.71075  Biso   1.000  C
  C43      1.0000 0.19523  0.26337  0.74543  Biso   1.000  C
  H25      1.0000 0.24323  0.27357  0.75697  Biso   1.000  H
  C44      1.0000 0.07943  0.26497  0.82367  Biso   1.000  C
  H26      1.0000 0.02333  0.22867  0.81607  Biso   1.000  H
  C45      1.0000 0.09083  0.28727  0.85897  Biso   1.000  C
  H27      1.0000 0.04233  0.26567  0.87317  Biso   1.000  H
  N17      1.0000 0.23673  0.36317  0.84857  Biso   1.000  N
  N18      1.0000 0.22553  0.34177  0.81357  Biso   1.000  N
  O19      1.0000 0.37201  0.48271  0.00438  Biso   1.000  O
  O20      1.0000 0.41015  0.44280  0.95566  Biso   1.000  O
  C46      1.0000 0.36060  0.45410  0.97351  Biso   1.000  C
  C47      1.0000 0.28060  0.43310  0.95592  Biso   1.000  C
  C48      1.0000 0.26520  0.40330  0.92124  Biso   1.000  C
  H28      1.0000 0.30300  0.39310  0.90970  Biso   1.000  H
  C49      1.0000 0.14780  0.40170  0.84300  Biso   1.000  C
  H29      1.0000 0.12800  0.43800  0.85060  Biso   1.000  H
  C50      1.0000 0.13690  0.37940  0.80770  Biso   1.000  C
  H30      1.0000 0.11000  0.40100  0.79350  Biso   1.000  H
  N19      1.0000 0.20690  0.30350  0.81810  Biso   1.000  N
  N20      1.0000 0.21710  0.32490  0.85310  Biso   1.000  N
  O21      1.0000 0.03868  0.81604  0.33771  Biso   1.000  O
  O22      1.0000 0.07682  0.77613  0.28899  Biso   1.000  O
  C51      1.0000 0.02727  0.78743  0.30684  Biso   1.000  C
  C52      1.0000 0.94727  0.76643  0.28925  Biso   1.000  C
  C53      1.0000 0.93187  0.73663  0.25457  Biso   1.000  C
  H31      1.0000 0.96967  0.72643  0.24303  Biso   1.000  H
  C54      1.0000 0.81447  0.73503  0.17633  Biso   1.000  C
  H32      1.0000 0.79467  0.77133  0.18393  Biso   1.000  H
  C55      1.0000 0.80357  0.71273  0.14103  Biso   1.000  C
  H33      1.0000 0.77667  0.73433  0.12683  Biso   1.000  H
  N21      1.0000 0.87357  0.63683  0.15143  Biso   1.000  N
  N22      1.0000 0.88377  0.65823  0.18643  Biso   1.000  N
  O23      1.0000 0.70534  0.14938  0.67105  Biso   1.000  O
  O24      1.0000 0.74348  0.10947  0.62233  Biso   1.000  O
  C56      1.0000 0.69393  0.12077  0.64018  Biso   1.000  C
  C57      1.0000 0.61393  0.09977  0.62259  Biso   1.000  C
  C58      1.0000 0.59853  0.06997  0.58791  Biso   1.000  C
  H34      1.0000 0.63633  0.05977  0.57637  Biso   1.000  H
  C59      1.0000 0.48113  0.06837  0.50967  Biso   1.000  C
  H35      1.0000 0.46133  0.10467  0.51727  Biso   1.000  H
  C60      1.0000 0.47023  0.04607  0.47437  Biso   1.000  C
  H36      1.0000 0.44333  0.06767  0.46017  Biso   1.000  H
  N23      1.0000 0.54023  0.97017  0.48477  Biso   1.000  N
  N24      1.0000 0.55043  0.99157  0.51977  Biso   1.000  N
  O25      1.0000 0.11070  0.62799  0.00438  Biso   1.000  O
  O26      1.0000 0.03265  0.58985  0.95566  Biso   1.000  O
  C61      1.0000 0.09350  0.63940  0.97351  Biso   1.000  C
  C62      1.0000 0.15250  0.71940  0.95592  Biso   1.000  C
  C63      1.0000 0.13810  0.73480  0.92124  Biso   1.000  C
  H37      1.0000 0.09010  0.69700  0.90970  Biso   1.000  H
  C64      1.0000 0.25390  0.85220  0.84300  Biso   1.000  C
  H38      1.0000 0.31000  0.87200  0.85060  Biso   1.000  H
  C65      1.0000 0.24250  0.86310  0.80770  Biso   1.000  C
  H39      1.0000 0.29100  0.89000  0.79350  Biso   1.000  H
  N25      1.0000 0.09660  0.79310  0.81810  Biso   1.000  N
  N26      1.0000 0.10780  0.78290  0.85310  Biso   1.000  N
  O27      1.0000 0.77737  0.96132  0.33771  Biso   1.000  O
  O28      1.0000 0.69932  0.92318  0.28899  Biso   1.000  O
  C66      1.0000 0.76017  0.97273  0.30684  Biso   1.000  C
  C67      1.0000 0.81917  0.05273  0.28925  Biso   1.000  C
  C68      1.0000 0.80477  0.06813  0.25457  Biso   1.000  C
  H40      1.0000 0.75677  0.03033  0.24303  Biso   1.000  H
  C69      1.0000 0.92057  0.18553  0.17633  Biso   1.000  C
  H41      1.0000 0.97667  0.20533  0.18393  Biso   1.000  H
  C70      1.0000 0.90917  0.19643  0.14103  Biso   1.000  C
  H42      1.0000 0.95767  0.22333  0.12683  Biso   1.000  H
  N27      1.0000 0.76327  0.12643  0.15143  Biso   1.000  N
  N28      1.0000 0.77447  0.11623  0.18643  Biso   1.000  N
  O29      1.0000 0.44403  0.29466  0.67105  Biso   1.000  O
  O30      1.0000 0.36598  0.25652  0.62233  Biso   1.000  O
  C71      1.0000 0.42683  0.30607  0.64018  Biso   1.000  C
  C72      1.0000 0.48583  0.38607  0.62259  Biso   1.000  C
  C73      1.0000 0.47143  0.40147  0.58791  Biso   1.000  C
  H43      1.0000 0.42343  0.36367  0.57637  Biso   1.000  H
  C74      1.0000 0.58723  0.51887  0.50967  Biso   1.000  C
  H44      1.0000 0.64333  0.53867  0.51727  Biso   1.000  H
  C75      1.0000 0.57583  0.52977  0.47437  Biso   1.000  C
  H45      1.0000 0.62433  0.55667  0.46017  Biso   1.000  H
  N29      1.0000 0.42993  0.45977  0.48477  Biso   1.000  N
  N30      1.0000 0.44113  0.44957  0.51977  Biso   1.000  N
  O31      1.0000 0.51729  0.88930  0.00438  Biso   1.000  O
  O32      1.0000 0.55720  0.96735  0.95566  Biso   1.000  O
  C76      1.0000 0.54590  0.90650  0.97351  Biso   1.000  C
  C77      1.0000 0.56690  0.84750  0.95592  Biso   1.000  C
  C78      1.0000 0.59670  0.86190  0.92124  Biso   1.000  C
  H46      1.0000 0.60690  0.90990  0.90970  Biso   1.000  H
  C79      1.0000 0.59830  0.74610  0.84300  Biso   1.000  C
  H47      1.0000 0.56200  0.69000  0.85060  Biso   1.000  H
  C80      1.0000 0.62060  0.75750  0.80770  Biso   1.000  C
  H48      1.0000 0.59900  0.70900  0.79350  Biso   1.000  H
  N31      1.0000 0.69650  0.90340  0.81810  Biso   1.000  N
  N32      1.0000 0.67510  0.89220  0.85310  Biso   1.000  N
  O33      1.0000 0.18396  0.22263  0.33771  Biso   1.000  O
  O34      1.0000 0.22387  0.30068  0.28899  Biso   1.000  O
  C81      1.0000 0.21257  0.23983  0.30684  Biso   1.000  C
  C82      1.0000 0.23357  0.18083  0.28925  Biso   1.000  C
  C83      1.0000 0.26337  0.19523  0.25457  Biso   1.000  C
  H49      1.0000 0.27357  0.24323  0.24303  Biso   1.000  H
  C84      1.0000 0.26497  0.07943  0.17633  Biso   1.000  C
  H50      1.0000 0.22867  0.02333  0.18393  Biso   1.000  H
  C85      1.0000 0.28727  0.09083  0.14103  Biso   1.000  C
  H51      1.0000 0.26567  0.04233  0.12683  Biso   1.000  H
  N33      1.0000 0.36317  0.23673  0.15143  Biso   1.000  N
  N34      1.0000 0.34177  0.22553  0.18643  Biso   1.000  N
  O35      1.0000 0.85062  0.55597  0.67105  Biso   1.000  O
  O36      1.0000 0.89053  0.63402  0.62233  Biso   1.000  O
  C86      1.0000 0.87923  0.57317  0.64018  Biso   1.000  C
  C87      1.0000 0.90023  0.51417  0.62259  Biso   1.000  C
  C88      1.0000 0.93003  0.52857  0.58791  Biso   1.000  C
  H52      1.0000 0.94023  0.57657  0.57637  Biso   1.000  H
  C89      1.0000 0.93163  0.41277  0.50967  Biso   1.000  C
  H53      1.0000 0.89533  0.35667  0.51727  Biso   1.000  H
  C90      1.0000 0.95393  0.42417  0.47437  Biso   1.000  C
  H54      1.0000 0.93233  0.37567  0.46017  Biso   1.000  H
  N35      1.0000 0.02983  0.57007  0.48477  Biso   1.000  N
  N36      1.0000 0.00843  0.55887  0.51977  Biso   1.000  N
  O37      1.0000 0.51729  0.62799  0.00438  Biso   1.000  O
  O38      1.0000 0.55720  0.58985  0.95566  Biso   1.000  O
  C91      1.0000 0.54590  0.63940  0.97351  Biso   1.000  C
  C92      1.0000 0.56690  0.71940  0.95592  Biso   1.000  C
  C93      1.0000 0.59670  0.73480  0.92124  Biso   1.000  C
  H55      1.0000 0.60690  0.69700  0.90970  Biso   1.000  H
  C94      1.0000 0.59830  0.85220  0.84300  Biso   1.000  C
  H56      1.0000 0.56200  0.87200  0.85060  Biso   1.000  H
  C95      1.0000 0.62060  0.86310  0.80770  Biso   1.000  C
  H57      1.0000 0.59900  0.89000  0.79350  Biso   1.000  H
  N37      1.0000 0.69650  0.79310  0.81810  Biso   1.000  N
  N38      1.0000 0.67510  0.78290  0.85310  Biso   1.000  N
  O39      1.0000 0.18396  0.96132  0.33771  Biso   1.000  O
  O40      1.0000 0.22387  0.92318  0.28899  Biso   1.000  O
  C96      1.0000 0.21257  0.97273  0.30684  Biso   1.000  C
  C97      1.0000 0.23357  0.05273  0.28925  Biso   1.000  C
  C98      1.0000 0.26337  0.06813  0.25457  Biso   1.000  C
  H58      1.0000 0.27357  0.03033  0.24303  Biso   1.000  H
  C99      1.0000 0.26497  0.18553  0.17633  Biso   1.000  C
  H59      1.0000 0.22867  0.20533  0.18393  Biso   1.000  H
  C100     1.0000 0.28727  0.19643  0.14103  Biso   1.000  C
  H60      1.0000 0.26567  0.22333  0.12683  Biso   1.000  H
  N39      1.0000 0.36317  0.12643  0.15143  Biso   1.000  N
  N40      1.0000 0.34177  0.11623  0.18643  Biso   1.000  N
  O41      1.0000 0.85062  0.29466  0.67105  Biso   1.000  O
  O42      1.0000 0.89053  0.25652  0.62233  Biso   1.000  O
  C101     1.0000 0.87923  0.30607  0.64018  Biso   1.000  C
  C102     1.0000 0.90023  0.38607  0.62259  Biso   1.000  C
  C103     1.0000 0.93003  0.40147  0.58791  Biso   1.000  C
  H61      1.0000 0.94023  0.36367  0.57637  Biso   1.000  H
  C104     1.0000 0.93163  0.51887  0.50967  Biso   1.000  C
  H62      1.0000 0.89533  0.53867  0.51727  Biso   1.000  H
  C105     1.0000 0.95393  0.52977  0.47437  Biso   1.000  C
  H63      1.0000 0.93233  0.55667  0.46017  Biso   1.000  H
  N41      1.0000 0.02983  0.45977  0.48477  Biso   1.000  N
  N42      1.0000 0.00843  0.44957  0.51977  Biso   1.000  N
  O43      1.0000 0.37201  0.88930  0.00438  Biso   1.000  O
  O44      1.0000 0.41015  0.96735  0.95566  Biso   1.000  O
  C106     1.0000 0.36060  0.90650  0.97351  Biso   1.000  C
  C107     1.0000 0.28060  0.84750  0.95592  Biso   1.000  C
  C108     1.0000 0.26520  0.86190  0.92124  Biso   1.000  C
  H64      1.0000 0.30300  0.90990  0.90970  Biso   1.000  H
  C109     1.0000 0.14780  0.74610  0.84300  Biso   1.000  C
  H65      1.0000 0.12800  0.69000  0.85060  Biso   1.000  H
  C110     1.0000 0.13690  0.75750  0.80770  Biso   1.000  C
  H66      1.0000 0.11000  0.70900  0.79350  Biso   1.000  H
  N43      1.0000 0.20690  0.90340  0.81810  Biso   1.000  N
  N44      1.0000 0.21710  0.89220  0.85310  Biso   1.000  N
  O45      1.0000 0.03868  0.22263  0.33771  Biso   1.000  O
  O46      1.0000 0.07682  0.30068  0.28899  Biso   1.000  O
  C111     1.0000 0.02727  0.23983  0.30684  Biso   1.000  C
  C112     1.0000 0.94727  0.18083  0.28925  Biso   1.000  C
  C113     1.0000 0.93187  0.19523  0.25457  Biso   1.000  C
  H67      1.0000 0.96967  0.24323  0.24303  Biso   1.000  H
  C114     1.0000 0.81447  0.07943  0.17633  Biso   1.000  C
  H68      1.0000 0.79467  0.02333  0.18393  Biso   1.000  H
  C115     1.0000 0.80357  0.09083  0.14103  Biso   1.000  C
  H69      1.0000 0.77667  0.04233  0.12683  Biso   1.000  H
  N45      1.0000 0.87357  0.23673  0.15143  Biso   1.000  N
  N46      1.0000 0.88377  0.22553  0.18643  Biso   1.000  N
  O47      1.0000 0.70534  0.55597  0.67105  Biso   1.000  O
  O48      1.0000 0.74348  0.63402  0.62233  Biso   1.000  O
  C116     1.0000 0.69393  0.57317  0.64018  Biso   1.000  C
  C117     1.0000 0.61393  0.51417  0.62259  Biso   1.000  C
  C118     1.0000 0.59853  0.52857  0.58791  Biso   1.000  C
  H70      1.0000 0.63633  0.57657  0.57637  Biso   1.000  H
  C119     1.0000 0.48113  0.41277  0.50967  Biso   1.000  C
  H71      1.0000 0.46133  0.35667  0.51727  Biso   1.000  H
  C120     1.0000 0.47023  0.42417  0.47437  Biso   1.000  C
  H72      1.0000 0.44333  0.37567  0.46017  Biso   1.000  H
  N47      1.0000 0.54023  0.57007  0.48477  Biso   1.000  N
  N48      1.0000 0.55043  0.55887  0.51977  Biso   1.000  N
  O49      1.0000 0.11070  0.48271  0.00438  Biso   1.000  O
  O50      1.0000 0.03265  0.44280  0.95566  Biso   1.000  O
  C121     1.0000 0.09350  0.45410  0.97351  Biso   1.000  C
  C122     1.0000 0.15250  0.43310  0.95592  Biso   1.000  C
  C123     1.0000 0.13810  0.40330  0.92124  Biso   1.000  C
  H73      1.0000 0.09010  0.39310  0.90970  Biso   1.000  H
  C124     1.0000 0.25390  0.40170  0.84300  Biso   1.000  C
  H74      1.0000 0.31000  0.43800  0.85060  Biso   1.000  H
  C125     1.0000 0.24250  0.37940  0.80770  Biso   1.000  C
  H75      1.0000 0.29100  0.40100  0.79350  Biso   1.000  H
  N49      1.0000 0.09660  0.30350  0.81810  Biso   1.000  N
  N50      1.0000 0.10780  0.32490  0.85310  Biso   1.000  N
  O51      1.0000 0.77737  0.81604  0.33771  Biso   1.000  O
  O52      1.0000 0.69932  0.77613  0.28899  Biso   1.000  O
  C126     1.0000 0.76017  0.78743  0.30684  Biso   1.000  C
  C127     1.0000 0.81917  0.76643  0.28925  Biso   1.000  C
  C128     1.0000 0.80477  0.73663  0.25457  Biso   1.000  C
  H76      1.0000 0.75677  0.72643  0.24303  Biso   1.000  H
  C129     1.0000 0.92057  0.73503  0.17633  Biso   1.000  C
  H77      1.0000 0.97667  0.77133  0.18393  Biso   1.000  H
  C130     1.0000 0.90917  0.71273  0.14103  Biso   1.000  C
  H78      1.0000 0.95767  0.73433  0.12683  Biso   1.000  H
  N51      1.0000 0.76327  0.63683  0.15143  Biso   1.000  N
  N52      1.0000 0.77447  0.65823  0.18643  Biso   1.000  N
  O53      1.0000 0.44403  0.14938  0.67105  Biso   1.000  O
  O54      1.0000 0.36598  0.10947  0.62233  Biso   1.000  O
  C131     1.0000 0.42683  0.12077  0.64018  Biso   1.000  C
  C132     1.0000 0.48583  0.09977  0.62259  Biso   1.000  C
  C133     1.0000 0.47143  0.06997  0.58791  Biso   1.000  C
  H79      1.0000 0.42343  0.05977  0.57637  Biso   1.000  H
  C134     1.0000 0.58723  0.06837  0.50967  Biso   1.000  C
  H80      1.0000 0.64333  0.10467  0.51727  Biso   1.000  H
  C135     1.0000 0.57583  0.04607  0.47437  Biso   1.000  C
  H81      1.0000 0.62433  0.06767  0.46017  Biso   1.000  H
  N53      1.0000 0.42993  0.97017  0.48477  Biso   1.000  N
  N54      1.0000 0.44113  0.99157  0.51977  Biso   1.000  N
  O55      1.0000 0.62799  0.51729  0.99562  Biso   1.000  O
  O56      1.0000 0.58985  0.55720  0.04434  Biso   1.000  O
  C136     1.0000 0.63940  0.54590  0.02649  Biso   1.000  C
  C137     1.0000 0.71940  0.56690  0.04408  Biso   1.000  C
  C138     1.0000 0.73480  0.59670  0.07876  Biso   1.000  C
  H82      1.0000 0.69700  0.60690  0.09030  Biso   1.000  H
  C139     1.0000 0.85220  0.59830  0.15700  Biso   1.000  C
  H83      1.0000 0.87200  0.56200  0.14940  Biso   1.000  H
  C140     1.0000 0.86310  0.62060  0.19230  Biso   1.000  C
  H84      1.0000 0.89000  0.59900  0.20650  Biso   1.000  H
  N55      1.0000 0.79310  0.69650  0.18190  Biso   1.000  N
  N56      1.0000 0.78290  0.67510  0.14690  Biso   1.000  N
  O57      1.0000 0.29466  0.85062  0.32895  Biso   1.000  O
  O58      1.0000 0.25652  0.89053  0.37767  Biso   1.000  O
  C141     1.0000 0.30607  0.87923  0.35982  Biso   1.000  C
  C142     1.0000 0.38607  0.90023  0.37741  Biso   1.000  C
  C143     1.0000 0.40147  0.93003  0.41209  Biso   1.000  C
  H85      1.0000 0.36367  0.94023  0.42363  Biso   1.000  H
  C144     1.0000 0.51887  0.93163  0.49033  Biso   1.000  C
  H86      1.0000 0.53867  0.89533  0.48273  Biso   1.000  H
  C145     1.0000 0.52977  0.95393  0.52563  Biso   1.000  C
  H87      1.0000 0.55667  0.93233  0.53983  Biso   1.000  H
  N57      1.0000 0.45977  0.02983  0.51523  Biso   1.000  N
  N58      1.0000 0.44957  0.00843  0.48023  Biso   1.000  N
  O59      1.0000 0.96132  0.18396  0.66229  Biso   1.000  O
  O60      1.0000 0.92318  0.22387  0.71101  Biso   1.000  O
  C146     1.0000 0.97273  0.21257  0.69316  Biso   1.000  C
  C147     1.0000 0.05273  0.23357  0.71075  Biso   1.000  C
  C148     1.0000 0.06813  0.26337  0.74543  Biso   1.000  C
  H88      1.0000 0.03033  0.27357  0.75697  Biso   1.000  H
  C149     1.0000 0.18553  0.26497  0.82367  Biso   1.000  C
  H89      1.0000 0.20533  0.22867  0.81607  Biso   1.000  H
  C150     1.0000 0.19643  0.28727  0.85897  Biso   1.000  C
  H90      1.0000 0.22333  0.26567  0.87317  Biso   1.000  H
  N59      1.0000 0.12643  0.36317  0.84857  Biso   1.000  N
  N60      1.0000 0.11623  0.34177  0.81357  Biso   1.000  N
  O61      1.0000 0.88930  0.37201  0.99562  Biso   1.000  O
  O62      1.0000 0.96735  0.41015  0.04434  Biso   1.000  O
  C151     1.0000 0.90650  0.36060  0.02649  Biso   1.000  C
  C152     1.0000 0.84750  0.28060  0.04408  Biso   1.000  C
  C153     1.0000 0.86190  0.26520  0.07876  Biso   1.000  C
  H91      1.0000 0.90990  0.30300  0.09030  Biso   1.000  H
  C154     1.0000 0.74610  0.14780  0.15700  Biso   1.000  C
  H92      1.0000 0.69000  0.12800  0.14940  Biso   1.000  H
  C155     1.0000 0.75750  0.13690  0.19230  Biso   1.000  C
  H93      1.0000 0.70900  0.11000  0.20650  Biso   1.000  H
  N61      1.0000 0.90340  0.20690  0.18190  Biso   1.000  N
  N62      1.0000 0.89220  0.21710  0.14690  Biso   1.000  N
  O63      1.0000 0.55597  0.70534  0.32895  Biso   1.000  O
  O64      1.0000 0.63402  0.74348  0.37767  Biso   1.000  O
  C156     1.0000 0.57317  0.69393  0.35982  Biso   1.000  C
  C157     1.0000 0.51417  0.61393  0.37741  Biso   1.000  C
  C158     1.0000 0.52857  0.59853  0.41209  Biso   1.000  C
  H94      1.0000 0.57657  0.63633  0.42363  Biso   1.000  H
  C159     1.0000 0.41277  0.48113  0.49033  Biso   1.000  C
  H95      1.0000 0.35667  0.46133  0.48273  Biso   1.000  H
  C160     1.0000 0.42417  0.47023  0.52563  Biso   1.000  C
  H96      1.0000 0.37567  0.44333  0.53983  Biso   1.000  H
  N63      1.0000 0.57007  0.54023  0.51523  Biso   1.000  N
  N64      1.0000 0.55887  0.55043  0.48023  Biso   1.000  N
  O65      1.0000 0.22263  0.03868  0.66229  Biso   1.000  O
  O66      1.0000 0.30068  0.07682  0.71101  Biso   1.000  O
  C161     1.0000 0.23983  0.02727  0.69316  Biso   1.000  C
  C162     1.0000 0.18083  0.94727  0.71075  Biso   1.000  C
  C163     1.0000 0.19523  0.93187  0.74543  Biso   1.000  C
  H97      1.0000 0.24323  0.96967  0.75697  Biso   1.000  H
  C164     1.0000 0.07943  0.81447  0.82367  Biso   1.000  C
  H98      1.0000 0.02333  0.79467  0.81607  Biso   1.000  H
  C165     1.0000 0.09083  0.80357  0.85897  Biso   1.000  C
  H99      1.0000 0.04233  0.77667  0.87317  Biso   1.000  H
  N65      1.0000 0.23673  0.87357  0.84857  Biso   1.000  N
  N66      1.0000 0.22553  0.88377  0.81357  Biso   1.000  N
  O67      1.0000 0.48271  0.11070  0.99562  Biso   1.000  O
  O68      1.0000 0.44280  0.03265  0.04434  Biso   1.000  O
  C166     1.0000 0.45410  0.09350  0.02649  Biso   1.000  C
  C167     1.0000 0.43310  0.15250  0.04408  Biso   1.000  C
  C168     1.0000 0.40330  0.13810  0.07876  Biso   1.000  C
  H100     1.0000 0.39310  0.09010  0.09030  Biso   1.000  H
  C169     1.0000 0.40170  0.25390  0.15700  Biso   1.000  C
  H101     1.0000 0.43800  0.31000  0.14940  Biso   1.000  H
  C170     1.0000 0.37940  0.24250  0.19230  Biso   1.000  C
  H102     1.0000 0.40100  0.29100  0.20650  Biso   1.000  H
  N67      1.0000 0.30350  0.09660  0.18190  Biso   1.000  N
  N68      1.0000 0.32490  0.10780  0.14690  Biso   1.000  N
  O69      1.0000 0.14938  0.44403  0.32895  Biso   1.000  O
  O70      1.0000 0.10947  0.36598  0.37767  Biso   1.000  O
  C171     1.0000 0.12077  0.42683  0.35982  Biso   1.000  C
  C172     1.0000 0.09977  0.48583  0.37741  Biso   1.000  C
  C173     1.0000 0.06997  0.47143  0.41209  Biso   1.000  C
  H103     1.0000 0.05977  0.42343  0.42363  Biso   1.000  H
  C174     1.0000 0.06837  0.58723  0.49033  Biso   1.000  C
  H104     1.0000 0.10467  0.64333  0.48273  Biso   1.000  H
  C175     1.0000 0.04607  0.57583  0.52563  Biso   1.000  C
  H105     1.0000 0.06767  0.62433  0.53983  Biso   1.000  H
  N69      1.0000 0.97017  0.42993  0.51523  Biso   1.000  N
  N70      1.0000 0.99157  0.44113  0.48023  Biso   1.000  N
  O71      1.0000 0.81604  0.77737  0.66229  Biso   1.000  O
  O72      1.0000 0.77613  0.69932  0.71101  Biso   1.000  O
  C176     1.0000 0.78743  0.76017  0.69316  Biso   1.000  C
  C177     1.0000 0.76643  0.81917  0.71075  Biso   1.000  C
  C178     1.0000 0.73663  0.80477  0.74543  Biso   1.000  C
  H106     1.0000 0.72643  0.75677  0.75697  Biso   1.000  H
  C179     1.0000 0.73503  0.92057  0.82367  Biso   1.000  C
  H107     1.0000 0.77133  0.97667  0.81607  Biso   1.000  H
  C180     1.0000 0.71273  0.90917  0.85897  Biso   1.000  C
  H108     1.0000 0.73433  0.95767  0.87317  Biso   1.000  H
  N71      1.0000 0.63683  0.76327  0.84857  Biso   1.000  N
  N72      1.0000 0.65823  0.77447  0.81357  Biso   1.000  N
  Cu1      1.0000 0.52309  0.47691  0.97097  Biso   1.000  Cu
  Cu2      1.0000 0.18975  0.81025  0.30430  Biso   1.000  Cu
  Cu3      1.0000 0.85642  0.14358  0.63763  Biso   1.000  Cu
  Cu4      1.0000 0.52309  0.04618  0.97097  Biso   1.000  Cu
  Cu5      1.0000 0.18975  0.37951  0.30430  Biso   1.000  Cu
  Cu6      1.0000 0.85642  0.71284  0.63763  Biso   1.000  Cu
  Cu7      1.0000 0.95382  0.47691  0.97097  Biso   1.000  Cu
  Cu8      1.0000 0.62049  0.81025  0.30430  Biso   1.000  Cu
  Cu9      1.0000 0.28716  0.14358  0.63763  Biso   1.000  Cu
  Cu10     1.0000 0.47691  0.52309  0.02903  Biso   1.000  Cu
  Cu11     1.0000 0.14358  0.85642  0.36237  Biso   1.000  Cu
  Cu12     1.0000 0.81025  0.18975  0.69570  Biso   1.000  Cu
  Cu13     1.0000 0.04618  0.52309  0.02903  Biso   1.000  Cu
  Cu14     1.0000 0.71284  0.85642  0.36237  Biso   1.000  Cu
  Cu15     1.0000 0.37951  0.18975  0.69570  Biso   1.000  Cu
  Cu16     1.0000 0.47691  0.95382  0.02903  Biso   1.000  Cu
  Cu17     1.0000 0.14358  0.28716  0.36237  Biso   1.000  Cu
  Cu18     1.0000 0.81025  0.62049  0.69570  Biso   1.000  Cu
  C181     1.0000 0.44790  0.22395  0.02686  Biso   1.000  C
  H109     1.0000 0.46790  0.23395  0.00380  Biso   1.000  H
  C182     1.0000 0.38880  0.19440  0.09612  Biso   1.000  C
  C183     1.0000 0.37340  0.18670  0.13500  Biso   1.000  C
  C184     1.0000 0.32600  0.16300  0.20360  Biso   1.000  C
  C185     1.0000 0.11457  0.55728  0.36019  Biso   1.000  C
  H110     1.0000 0.13457  0.56728  0.33713  Biso   1.000  H
  C186     1.0000 0.05547  0.52773  0.42945  Biso   1.000  C
  C187     1.0000 0.04007  0.52003  0.46833  Biso   1.000  C
  C188     1.0000 0.99267  0.49633  0.53693  Biso   1.000  C
  C189     1.0000 0.78123  0.89062  0.69353  Biso   1.000  C
  H111     1.0000 0.80123  0.90062  0.67047  Biso   1.000  H
  C190     1.0000 0.72213  0.86107  0.76279  Biso   1.000  C
  C191     1.0000 0.70673  0.85337  0.80167  Biso   1.000  C
  C192     1.0000 0.65933  0.82967  0.87027  Biso   1.000  C
  C193     1.0000 0.77605  0.22395  0.02686  Biso   1.000  C
  H112     1.0000 0.76605  0.23395  0.00380  Biso   1.000  H
  C194     1.0000 0.80560  0.19440  0.09612  Biso   1.000  C
  C195     1.0000 0.81330  0.18670  0.13500  Biso   1.000  C
  C196     1.0000 0.83700  0.16300  0.20360  Biso   1.000  C
  C197     1.0000 0.44272  0.55728  0.36019  Biso   1.000  C
  H113     1.0000 0.43272  0.56728  0.33713  Biso   1.000  H
  C198     1.0000 0.47227  0.52773  0.42945  Biso   1.000  C
  C199     1.0000 0.47997  0.52003  0.46833  Biso   1.000  C
  C200     1.0000 0.50367  0.49633  0.53693  Biso   1.000  C
  C201     1.0000 0.10938  0.89062  0.69353  Biso   1.000  C
  H114     1.0000 0.09938  0.90062  0.67047  Biso   1.000  H
  C202     1.0000 0.13893  0.86107  0.76279  Biso   1.000  C
  C203     1.0000 0.14663  0.85337  0.80167  Biso   1.000  C
  C204     1.0000 0.17033  0.82967  0.87027  Biso   1.000  C
  C205     1.0000 0.77605  0.55210  0.02686  Biso   1.000  C
  H115     1.0000 0.76605  0.53210  0.00380  Biso   1.000  H
  C206     1.0000 0.80560  0.61120  0.09612  Biso   1.000  C
  C207     1.0000 0.81330  0.62660  0.13500  Biso   1.000  C
  C208     1.0000 0.83700  0.67400  0.20360  Biso   1.000  C
  C209     1.0000 0.44272  0.88543  0.36019  Biso   1.000  C
  H116     1.0000 0.43272  0.86543  0.33713  Biso   1.000  H
  C210     1.0000 0.47227  0.94453  0.42945  Biso   1.000  C
  C211     1.0000 0.47997  0.95993  0.46833  Biso   1.000  C
  C212     1.0000 0.50367  0.00733  0.53693  Biso   1.000  C
  C213     1.0000 0.10938  0.21877  0.69353  Biso   1.000  C
  H117     1.0000 0.09938  0.19877  0.67047  Biso   1.000  H
  C214     1.0000 0.13893  0.27787  0.76279  Biso   1.000  C
  C215     1.0000 0.14663  0.29327  0.80167  Biso   1.000  C
  C216     1.0000 0.17033  0.34067  0.87027  Biso   1.000  C
  C217     1.0000 0.22395  0.44790  0.97314  Biso   1.000  C
  H118     1.0000 0.23395  0.46790  0.99620  Biso   1.000  H
  C218     1.0000 0.19440  0.38880  0.90388  Biso   1.000  C
  C219     1.0000 0.18670  0.37340  0.86500  Biso   1.000  C
  C220     1.0000 0.16300  0.32600  0.79640  Biso   1.000  C
  C221     1.0000 0.89062  0.78123  0.30647  Biso   1.000  C
  H119     1.0000 0.90062  0.80123  0.32953  Biso   1.000  H
  C222     1.0000 0.86107  0.72213  0.23721  Biso   1.000  C
  C223     1.0000 0.85337  0.70673  0.19833  Biso   1.000  C
  C224     1.0000 0.82967  0.65933  0.12973  Biso   1.000  C
  C225     1.0000 0.55728  0.11457  0.63981  Biso   1.000  C
  H120     1.0000 0.56728  0.13457  0.66287  Biso   1.000  H
  C226     1.0000 0.52773  0.05547  0.57055  Biso   1.000  C
  C227     1.0000 0.52003  0.04007  0.53167  Biso   1.000  C
  C228     1.0000 0.49633  0.99267  0.46307  Biso   1.000  C
  C229     1.0000 0.22395  0.77605  0.97314  Biso   1.000  C
  H121     1.0000 0.23395  0.76605  0.99620  Biso   1.000  H
  C230     1.0000 0.19440  0.80560  0.90388  Biso   1.000  C
  C231     1.0000 0.18670  0.81330  0.86500  Biso   1.000  C
  C232     1.0000 0.16300  0.83700  0.79640  Biso   1.000  C
  C233     1.0000 0.89062  0.10938  0.30647  Biso   1.000  C
  H122     1.0000 0.90062  0.09938  0.32953  Biso   1.000  H
  C234     1.0000 0.86107  0.13893  0.23721  Biso   1.000  C
  C235     1.0000 0.85337  0.14663  0.19833  Biso   1.000  C
  C236     1.0000 0.82967  0.17033  0.12973  Biso   1.000  C
  C237     1.0000 0.55728  0.44272  0.63981  Biso   1.000  C
  H123     1.0000 0.56728  0.43272  0.66287  Biso   1.000  H
  C238     1.0000 0.52773  0.47227  0.57055  Biso   1.000  C
  C239     1.0000 0.52003  0.47997  0.53167  Biso   1.000  C
  C240     1.0000 0.49633  0.50367  0.46307  Biso   1.000  C
  C241     1.0000 0.55210  0.77605  0.97314  Biso   1.000  C
  H124     1.0000 0.53210  0.76605  0.99620  Biso   1.000  H
  C242     1.0000 0.61120  0.80560  0.90388  Biso   1.000  C
  C243     1.0000 0.62660  0.81330  0.86500  Biso   1.000  C
  C244     1.0000 0.67400  0.83700  0.79640  Biso   1.000  C
  C245     1.0000 0.21877  0.10938  0.30647  Biso   1.000  C
  H125     1.0000 0.19877  0.09938  0.32953  Biso   1.000  H
  C246     1.0000 0.27787  0.13893  0.23721  Biso   1.000  C
  C247     1.0000 0.29327  0.14663  0.19833  Biso   1.000  C
  C248     1.0000 0.34067  0.17033  0.12973  Biso   1.000  C
  C249     1.0000 0.88543  0.44272  0.63981  Biso   1.000  C
  H126     1.0000 0.86543  0.43272  0.66287  Biso   1.000  H
  C250     1.0000 0.94453  0.47227  0.57055  Biso   1.000  C
  C251     1.0000 0.95993  0.47997  0.53167  Biso   1.000  C
  C252     1.0000 0.00733  0.50367  0.46307  Biso   1.000  C
