data_image0
_cell_length_a       9.7887
_cell_length_b       10.0556
_cell_length_c       12.4566
_cell_angle_alpha    92.514
_cell_angle_beta     91.623
_cell_angle_gamma    91.495

_symmetry_space_group_name_H-M    "P 1"
_symmetry_int_tables_number       1

loop_
  _symmetry_equiv_pos_as_xyz
  'x, y, z'

loop_
  _atom_site_label
  _atom_site_occupancy
  _atom_site_fract_x
  _atom_site_fract_y
  _atom_site_fract_z
  _atom_site_thermal_displace_type
  _atom_site_B_iso_or_equiv
  _atom_site_type_symbol
  Pr1      1.0000 0.05483  0.08947  0.85520  Biso   1.000  Pr
  Pr2      1.0000 0.09728  0.33909  0.59430  Biso   1.000  Pr
  O1       1.0000 0.34560  0.28170  0.62280  Biso   1.000  O
  O2       1.0000 0.21280  0.17310  0.72890  Biso   1.000  O
  O3       1.0000 0.92360  0.22540  0.69890  Biso   1.000  O
  O4       1.0000 0.80790  0.13550  0.82710  Biso   1.000  O
  O5       1.0000 0.92160  0.90990  0.93720  Biso   1.000  O
  O6       1.0000 0.73880  0.83700  0.01660  Biso   1.000  O
  O7       1.0000 0.78330  0.67180  0.58300  Biso   1.000  O
  O8       1.0000 0.95090  0.53660  0.59790  Biso   1.000  O
  O9       1.0000 0.21550  0.91580  0.87450  Biso   1.000  O
  O10      1.0000 0.22550  0.74130  0.76360  Biso   1.000  O
  H1       1.0000 0.19930  0.79530  0.72060  Biso   1.000  H
  O11      1.0000 0.04340  0.32540  0.90440  Biso   1.000  O
  O12      1.0000 0.13540  0.44520  0.77560  Biso   1.000  O
  O13      1.0000 0.01030  0.94090  0.69210  Biso   1.000  O
  O14      1.0000 0.07550  0.06360  0.53450  Biso   1.000  O
  O15      1.0000 0.18750  0.86320  0.58190  Biso   1.000  O
  O16      1.0000 0.96060  0.85090  0.51450  Biso   1.000  O
  O17      1.0000 0.10660  0.73970  0.52270  Biso   1.000  O
  C1       1.0000 0.33120  0.21110  0.70190  Biso   1.000  C
  C2       1.0000 0.45470  0.16660  0.76590  Biso   1.000  C
  H2       1.0000 0.43150  0.16010  0.84070  Biso   1.000  H
  H3       1.0000 0.48040  0.07910  0.73890  Biso   1.000  H
  C3       1.0000 0.81210  0.19800  0.74100  Biso   1.000  C
  C4       1.0000 0.67910  0.23220  0.68390  Biso   1.000  C
  H4       1.0000 0.69500  0.30940  0.64140  Biso   1.000  H
  H5       1.0000 0.65020  0.15840  0.63500  Biso   1.000  H
  C5       1.0000 0.79880  0.86230  0.93320  Biso   1.000  C
  C6       1.0000 0.73000  0.82910  0.82460  Biso   1.000  C
  H6       1.0000 0.77400  0.87900  0.76970  Biso   1.000  H
  H7       1.0000 0.63460  0.85250  0.82590  Biso   1.000  H
  C7       1.0000 0.86570  0.61130  0.63980  Biso   1.000  C
  C8       1.0000 0.86890  0.63600  0.76020  Biso   1.000  C
  H8       1.0000 0.94200  0.70010  0.78020  Biso   1.000  H
  H9       1.0000 0.88930  0.55350  0.79410  Biso   1.000  H
  C9       1.0000 0.24030  0.79760  0.85540  Biso   1.000  C
  C10      1.0000 0.28820  0.72000  0.94990  Biso   1.000  C
  H10      1.0000 0.37160  0.76240  0.98020  Biso   1.000  H
  H11      1.0000 0.21970  0.72560  0.00460  Biso   1.000  H
  C11      1.0000 0.12490  0.41320  0.87120  Biso   1.000  C
  C12      1.0000 0.21620  0.48060  0.95920  Biso   1.000  C
  H12      1.0000 0.15820  0.52210  0.01200  Biso   1.000  H
  H13      1.0000 0.26630  0.41220  0.99470  Biso   1.000  H
  C13      1.0000 0.55720  0.38670  0.79730  Biso   1.000  C
  C14      1.0000 0.63780  0.59790  0.81290  Biso   1.000  C
  C15      1.0000 0.42860  0.54440  0.87680  Biso   1.000  C
  N1       1.0000 0.56990  0.26020  0.75800  Biso   1.000  N
  N2       1.0000 0.74130  0.68540  0.80040  Biso   1.000  N
  N3       1.0000 0.31390  0.58040  0.92600  Biso   1.000  N
  N4       1.0000 0.44250  0.41430  0.85060  Biso   1.000  N
  N5       1.0000 0.65860  0.47250  0.77840  Biso   1.000  N
  N6       1.0000 0.52250  0.64020  0.85810  Biso   1.000  N
  S1       1.0000 0.05660  0.93340  0.58150  Biso   1.000  S
  Pr3      1.0000 0.94517  0.91053  0.14480  Biso   1.000  Pr
  Pr4      1.0000 0.90272  0.66091  0.40570  Biso   1.000  Pr
  O18      1.0000 0.65440  0.71830  0.37720  Biso   1.000  O
  O19      1.0000 0.78720  0.82690  0.27110  Biso   1.000  O
  O20      1.0000 0.07640  0.77460  0.30110  Biso   1.000  O
  O21      1.0000 0.19210  0.86450  0.17290  Biso   1.000  O
  O22      1.0000 0.07840  0.09010  0.06280  Biso   1.000  O
  O23      1.0000 0.26120  0.16300  0.98340  Biso   1.000  O
  O24      1.0000 0.21670  0.32820  0.41700  Biso   1.000  O
  O25      1.0000 0.04910  0.46340  0.40210  Biso   1.000  O
  O26      1.0000 0.78450  0.08420  0.12550  Biso   1.000  O
  O27      1.0000 0.77450  0.25870  0.23640  Biso   1.000  O
  H14      1.0000 0.80070  0.20470  0.27940  Biso   1.000  H
  O28      1.0000 0.95660  0.67460  0.09560  Biso   1.000  O
  O29      1.0000 0.86460  0.55480  0.22440  Biso   1.000  O
  O30      1.0000 0.98970  0.05910  0.30790  Biso   1.000  O
  O31      1.0000 0.92450  0.93640  0.46550  Biso   1.000  O
  O32      1.0000 0.81250  0.13680  0.41810  Biso   1.000  O
  O33      1.0000 0.03940  0.14910  0.48550  Biso   1.000  O
  O34      1.0000 0.89340  0.26030  0.47730  Biso   1.000  O
  C16      1.0000 0.66880  0.78890  0.29810  Biso   1.000  C
  C17      1.0000 0.54530  0.83340  0.23410  Biso   1.000  C
  H15      1.0000 0.56850  0.83990  0.15930  Biso   1.000  H
  H16      1.0000 0.51960  0.92090  0.26110  Biso   1.000  H
  C18      1.0000 0.18790  0.80200  0.25900  Biso   1.000  C
  C19      1.0000 0.32090  0.76780  0.31610  Biso   1.000  C
  H17      1.0000 0.30500  0.69060  0.35860  Biso   1.000  H
  H18      1.0000 0.34980  0.84160  0.36500  Biso   1.000  H
  C20      1.0000 0.20120  0.13770  0.06680  Biso   1.000  C
  C21      1.0000 0.27000  0.17090  0.17540  Biso   1.000  C
  H19      1.0000 0.22600  0.12100  0.23030  Biso   1.000  H
  H20      1.0000 0.36540  0.14750  0.17410  Biso   1.000  H
  C22      1.0000 0.13430  0.38870  0.36020  Biso   1.000  C
  C23      1.0000 0.13110  0.36400  0.23980  Biso   1.000  C
  H21      1.0000 0.05800  0.29990  0.21980  Biso   1.000  H
  H22      1.0000 0.11070  0.44650  0.20590  Biso   1.000  H
  C24      1.0000 0.75970  0.20240  0.14460  Biso   1.000  C
  C25      1.0000 0.71180  0.28000  0.05010  Biso   1.000  C
  H23      1.0000 0.62840  0.23760  0.01980  Biso   1.000  H
  H24      1.0000 0.78030  0.27440  0.99540  Biso   1.000  H
  C26      1.0000 0.87510  0.58680  0.12880  Biso   1.000  C
  C27      1.0000 0.78380  0.51940  0.04080  Biso   1.000  C
  H25      1.0000 0.84180  0.47790  0.98800  Biso   1.000  H
  H26      1.0000 0.73370  0.58780  0.00530  Biso   1.000  H
  C28      1.0000 0.44280  0.61330  0.20270  Biso   1.000  C
  C29      1.0000 0.36220  0.40210  0.18710  Biso   1.000  C
  C30      1.0000 0.57140  0.45560  0.12320  Biso   1.000  C
  N7       1.0000 0.43010  0.73980  0.24200  Biso   1.000  N
  N8       1.0000 0.25870  0.31460  0.19960  Biso   1.000  N
  N9       1.0000 0.68610  0.41960  0.07400  Biso   1.000  N
  N10      1.0000 0.55750  0.58570  0.14940  Biso   1.000  N
  N11      1.0000 0.34140  0.52750  0.22160  Biso   1.000  N
  N12      1.0000 0.47750  0.35980  0.14190  Biso   1.000  N
  S2       1.0000 0.94340  0.06660  0.41850  Biso   1.000  S
