data_image0
_cell_length_a       24.4586
_cell_length_b       12.1823
_cell_length_c       25.8229
_cell_angle_alpha    90
_cell_angle_beta     103.108
_cell_angle_gamma    90

_symmetry_space_group_name_H-M    "P 1"
_symmetry_int_tables_number       1

loop_
  _symmetry_equiv_pos_as_xyz
  'x, y, z'

loop_
  _atom_site_label
  _atom_site_occupancy
  _atom_site_fract_x
  _atom_site_fract_y
  _atom_site_fract_z
  _atom_site_thermal_displace_type
  _atom_site_B_iso_or_equiv
  _atom_site_type_symbol
  Ag1      1.0000 0.33128  0.67716  0.41206  Biso   1.000  Ag
  Ag2      1.0000 0.16422  0.32384  0.55000  Biso   1.000  Ag
  Ag3      1.0000 0.06515  0.67668  0.19304  Biso   1.000  Ag
  Ag4      1.0000 0.53170  0.82490  0.67618  Biso   1.000  Ag
  N1       1.0000 0.48950  0.16760  0.77380  Biso   1.000  N
  N2       1.0000 0.10918  0.84200  0.15142  Biso   1.000  N
  C1       1.0000 0.19462  0.67160  0.35629  Biso   1.000  C
  N3       1.0000 0.27723  0.57970  0.46142  Biso   1.000  N
  C2       1.0000 0.19207  0.67310  0.41439  Biso   1.000  C
  H1       1.0000 0.20880  0.74290  0.43020  Biso   1.000  H
  H2       1.0000 0.15210  0.67330  0.41630  Biso   1.000  H
  N4       1.0000 0.14648  0.67950  0.26486  Biso   1.000  N
  N5       1.0000 0.10992  0.51040  0.14304  Biso   1.000  N
  N6       1.0000 0.99112  0.71680  0.11344  Biso   1.000  N
  C3       1.0000 0.00360  0.75580  0.06927  Biso   1.000  C
  N7       1.0000 0.98740  0.32160  0.26048  Biso   1.000  N
  N8       1.0000 0.90728  0.79040  0.02927  Biso   1.000  N
  N9       1.0000 0.14928  0.32310  0.10072  Biso   1.000  N
  N10      1.0000 0.01794  0.51660  0.21777  Biso   1.000  N
  N11      1.0000 0.24429  0.68090  0.34441  Biso   1.000  N
  N12      1.0000 0.58566  0.97260  0.64362  Biso   1.000  N
  C4       1.0000 0.14595  0.66980  0.31605  Biso   1.000  C
  H3       1.0000 0.11090  0.66130  0.32550  Biso   1.000  H
  N13      1.0000 0.13354  0.03360  0.10070  Biso   1.000  N
  N14      1.0000 0.21615  0.41970  0.50053  Biso   1.000  N
  N15      1.0000 0.59800  0.68110  0.64990  Biso   1.000  N
  C5       1.0000 0.49114  0.73530  0.55388  Biso   1.000  C
  N16      1.0000 0.50830  0.97440  0.72290  Biso   1.000  N
  N17      1.0000 0.47146  0.76970  0.59516  Biso   1.000  N
  C6       1.0000 0.19680  0.69060  0.25370  Biso   1.000  C
  H4       1.0000 0.19930  0.69880  0.21770  Biso   1.000  H
  C7       1.0000 0.00945  0.42420  0.18909  Biso   1.000  C
  C8       1.0000 0.09495  0.85390  0.09821  Biso   1.000  C
  C9       1.0000 0.22099  0.58010  0.44788  Biso   1.000  C
  C10      1.0000 0.01613  0.42810  0.13251  Biso   1.000  C
  H5       1.0000 0.99520  0.36600  0.11250  Biso   1.000  H
  H6       1.0000 0.99930  0.49700  0.11570  Biso   1.000  H
  C11      1.0000 0.19073  0.49900  0.46773  Biso   1.000  C
  H7       1.0000 0.15090  0.50010  0.45760  Biso   1.000  H
  C12      1.0000 0.62280  0.60460  0.68380  Biso   1.000  C
  H8       1.0000 0.63370  0.62280  0.72050  Biso   1.000  H
  C13      1.0000 0.27220  0.41940  0.51260  Biso   1.000  C
  H9       1.0000 0.29170  0.36320  0.53480  Biso   1.000  H
  C14      1.0000 0.07640  0.42230  0.12829  Biso   1.000  C
  C15      1.0000 0.55350  0.73440  0.55912  Biso   1.000  C
  H10      1.0000 0.56160  0.71840  0.52400  Biso   1.000  H
  H11      1.0000 0.56880  0.80800  0.57030  Biso   1.000  H
  C16      1.0000 0.89540  0.74960  0.07328  Biso   1.000  C
  H12      1.0000 0.85730  0.74500  0.07590  Biso   1.000  H
  C17      1.0000 0.58210  0.16030  0.62000  Biso   1.000  C
  H13      1.0000 0.56050  0.22560  0.61250  Biso   1.000  H
  N18      1.0000 0.39916  0.70060  0.50190  Biso   1.000  N
  C18      1.0000 0.49650  0.06660  0.63787  Biso   1.000  C
  H14      1.0000 0.47690  0.13230  0.62010  Biso   1.000  H
  H15      1.0000 0.47670  0.00060  0.62080  Biso   1.000  H
  C19      1.0000 0.24510  0.69050  0.29300  Biso   1.000  C
  H16      1.0000 0.28020  0.69740  0.28350  Biso   1.000  H
  C20      1.0000 0.48680  0.16360  0.72130  Biso   1.000  C
  H17      1.0000 0.47810  0.22890  0.70100  Biso   1.000  H
  C21      1.0000 0.55660  0.06580  0.63232  Biso   1.000  C
  C22      1.0000 0.59340  0.54560  0.58347  Biso   1.000  C
  H18      1.0000 0.58230  0.52660  0.54690  Biso   1.000  H
  C23      1.0000 0.06449  0.75950  0.06635  Biso   1.000  C
  H19      1.0000 0.06690  0.76710  0.02880  Biso   1.000  H
  H20      1.0000 0.08290  0.68970  0.08010  Biso   1.000  H
  C24      1.0000 0.49610  0.06800  0.69560  Biso   1.000  C
  C25      1.0000 0.45360  0.69980  0.50766  Biso   1.000  C
  H21      1.0000 0.46840  0.67380  0.47900  Biso   1.000  H
  C26      1.0000 0.41560  0.77090  0.58940  Biso   1.000  C
  H22      1.0000 0.40040  0.79660  0.61790  Biso   1.000  H
  N19      1.0000 0.61900  0.46940  0.61780  Biso   1.000  N
  C27      1.0000 0.37980  0.73610  0.54360  Biso   1.000  C
  H23      1.0000 0.34050  0.73720  0.54130  Biso   1.000  H
  C28      1.0000 0.30240  0.49990  0.49320  Biso   1.000  C
  H24      1.0000 0.34220  0.49800  0.50300  Biso   1.000  H
  C29      1.0000 0.96115  0.79380  0.02761  Biso   1.000  C
  H25      1.0000 0.97110  0.82320  0.99690  Biso   1.000  H
  C30      1.0000 0.09710  0.32880  0.10801  Biso   1.000  C
  H26      1.0000 0.07310  0.26700  0.09910  Biso   1.000  H
  C31      1.0000 0.93750  0.71360  0.11559  Biso   1.000  C
  H27      1.0000 0.92760  0.68610  0.14670  Biso   1.000  H
  C32      1.0000 0.14680  0.02290  0.15341  Biso   1.000  C
  H28      1.0000 0.16500  0.08210  0.17440  Biso   1.000  H
  C33      1.0000 0.10668  0.94870  0.07340  Biso   1.000  C
  H29      1.0000 0.09530  0.95370  0.03580  Biso   1.000  H
  C34      1.0000 0.16190  0.50260  0.13659  Biso   1.000  C
  H30      1.0000 0.18670  0.56290  0.14700  Biso   1.000  H
  C35      1.0000 0.99400  0.32840  0.21080  Biso   1.000  C
  H31      1.0000 0.98770  0.26440  0.18920  Biso   1.000  H
  C36      1.0000 0.99600  0.41500  0.28843  Biso   1.000  C
  H32      1.0000 0.99170  0.41510  0.32410  Biso   1.000  H
  C37      1.0000 0.01070  0.51040  0.26705  Biso   1.000  C
  H33      1.0000 0.01590  0.57480  0.28840  Biso   1.000  H
  C38      1.0000 0.18210  0.41020  0.11523  Biso   1.000  C
  H34      1.0000 0.21960  0.40930  0.11090  Biso   1.000  H
  C39      1.0000 0.64000  0.97590  0.64200  Biso   1.000  C
  H35      1.0000 0.66180  0.91080  0.64930  Biso   1.000  H
  C40      1.0000 0.13500  0.92860  0.17867  Biso   1.000  C
  H36      1.0000 0.14550  0.92500  0.21640  Biso   1.000  H
  C41      1.0000 0.58250  0.65080  0.59859  Biso   1.000  C
  C42      1.0000 0.66540  0.07120  0.62990  Biso   1.000  C
  H37      1.0000 0.70430  0.07080  0.63010  Biso   1.000  H
  C43      1.0000 0.50370  0.07400  0.80040  Biso   1.000  C
  H38      1.0000 0.50790  0.07340  0.83790  Biso   1.000  H
  C44      1.0000 0.51250  0.97900  0.77530  Biso   1.000  C
  H39      1.0000 0.52190  0.91420  0.79580  Biso   1.000  H
  C45      1.0000 0.63320  0.50080  0.66830  Biso   1.000  C
  H40      1.0000 0.65120  0.44970  0.69450  Biso   1.000  H
  N20      1.0000 0.63616  0.16270  0.61817  Biso   1.000  N
  Ag5      1.0000 0.54080  0.81110  0.68190  Biso   1.000  Ag
  Ag6      1.0000 0.66872  0.17716  0.08794  Biso   1.000  Ag
  Ag7      1.0000 0.83578  0.82384  0.95000  Biso   1.000  Ag
  Ag8      1.0000 0.93485  0.17668  0.30696  Biso   1.000  Ag
  Ag9      1.0000 0.46830  0.32490  0.82382  Biso   1.000  Ag
  N21      1.0000 0.51050  0.66760  0.72620  Biso   1.000  N
  N22      1.0000 0.89082  0.34200  0.34858  Biso   1.000  N
  C46      1.0000 0.80538  0.17160  0.14371  Biso   1.000  C
  N23      1.0000 0.72277  0.07970  0.03858  Biso   1.000  N
  C47      1.0000 0.80793  0.17310  0.08561  Biso   1.000  C
  H41      1.0000 0.79120  0.24290  0.06980  Biso   1.000  H
  H42      1.0000 0.84790  0.17330  0.08370  Biso   1.000  H
  N24      1.0000 0.85352  0.17950  0.23514  Biso   1.000  N
  N25      1.0000 0.89008  0.01040  0.35696  Biso   1.000  N
  N26      1.0000 0.00888  0.21680  0.38656  Biso   1.000  N
  C48      1.0000 0.99640  0.25580  0.43073  Biso   1.000  C
  N27      1.0000 0.01260  0.82160  0.23952  Biso   1.000  N
  N28      1.0000 0.09272  0.29040  0.47073  Biso   1.000  N
  N29      1.0000 0.85072  0.82310  0.39928  Biso   1.000  N
  N30      1.0000 0.98206  0.01660  0.28223  Biso   1.000  N
  N31      1.0000 0.75571  0.18090  0.15559  Biso   1.000  N
  N32      1.0000 0.41434  0.47260  0.85638  Biso   1.000  N
  C49      1.0000 0.85405  0.16980  0.18395  Biso   1.000  C
  H43      1.0000 0.88910  0.16130  0.17450  Biso   1.000  H
  N33      1.0000 0.86646  0.53360  0.39930  Biso   1.000  N
  N34      1.0000 0.78385  0.91970  0.99947  Biso   1.000  N
  N35      1.0000 0.40200  0.18110  0.85010  Biso   1.000  N
  C50      1.0000 0.50886  0.23530  0.94612  Biso   1.000  C
  N36      1.0000 0.49170  0.47440  0.77710  Biso   1.000  N
  N37      1.0000 0.52854  0.26970  0.90484  Biso   1.000  N
  C51      1.0000 0.80320  0.19060  0.24630  Biso   1.000  C
  H44      1.0000 0.80070  0.19880  0.28230  Biso   1.000  H
  C52      1.0000 0.99055  0.92420  0.31091  Biso   1.000  C
  C53      1.0000 0.90505  0.35390  0.40179  Biso   1.000  C
  C54      1.0000 0.77901  0.08010  0.05212  Biso   1.000  C
  C55      1.0000 0.98387  0.92810  0.36749  Biso   1.000  C
  H45      1.0000 0.00480  0.86600  0.38750  Biso   1.000  H
  H46      1.0000 0.00070  0.99700  0.38430  Biso   1.000  H
  C56      1.0000 0.80927  0.99900  0.03227  Biso   1.000  C
  H47      1.0000 0.84910  0.00010  0.04240  Biso   1.000  H
  C57      1.0000 0.37720  0.10460  0.81620  Biso   1.000  C
  H48      1.0000 0.36630  0.12280  0.77950  Biso   1.000  H
  C58      1.0000 0.72780  0.91940  0.98740  Biso   1.000  C
  H49      1.0000 0.70830  0.86320  0.96520  Biso   1.000  H
  C59      1.0000 0.92360  0.92230  0.37171  Biso   1.000  C
  C60      1.0000 0.44650  0.23440  0.94088  Biso   1.000  C
  H50      1.0000 0.43840  0.21840  0.97600  Biso   1.000  H
  H51      1.0000 0.43120  0.30800  0.92970  Biso   1.000  H
  C61      1.0000 0.10460  0.24960  0.42672  Biso   1.000  C
  H52      1.0000 0.14270  0.24500  0.42410  Biso   1.000  H
  C62      1.0000 0.41790  0.66030  0.88000  Biso   1.000  C
  H53      1.0000 0.43950  0.72560  0.88750  Biso   1.000  H
  N38      1.0000 0.60084  0.20060  0.99810  Biso   1.000  N
  C63      1.0000 0.50350  0.56660  0.86213  Biso   1.000  C
  H54      1.0000 0.52310  0.63230  0.87990  Biso   1.000  H
  H55      1.0000 0.52330  0.50060  0.87920  Biso   1.000  H
  C64      1.0000 0.75490  0.19050  0.20700  Biso   1.000  C
  H56      1.0000 0.71980  0.19740  0.21650  Biso   1.000  H
  C65      1.0000 0.51320  0.66360  0.77870  Biso   1.000  C
  H57      1.0000 0.52190  0.72890  0.79900  Biso   1.000  H
  C66      1.0000 0.44340  0.56580  0.86768  Biso   1.000  C
  C67      1.0000 0.40660  0.04560  0.91653  Biso   1.000  C
  H58      1.0000 0.41770  0.02660  0.95310  Biso   1.000  H
  C68      1.0000 0.93551  0.25950  0.43365  Biso   1.000  C
  H59      1.0000 0.93310  0.26710  0.47120  Biso   1.000  H
  H60      1.0000 0.91710  0.18970  0.41990  Biso   1.000  H
  C69      1.0000 0.50390  0.56800  0.80440  Biso   1.000  C
  C70      1.0000 0.54640  0.19980  0.99234  Biso   1.000  C
  H61      1.0000 0.53160  0.17380  0.02100  Biso   1.000  H
  C71      1.0000 0.58440  0.27090  0.91060  Biso   1.000  C
  H62      1.0000 0.59960  0.29660  0.88210  Biso   1.000  H
  N39      1.0000 0.38100  0.96940  0.88220  Biso   1.000  N
  C72      1.0000 0.62020  0.23610  0.95640  Biso   1.000  C
  H63      1.0000 0.65950  0.23720  0.95870  Biso   1.000  H
  C73      1.0000 0.69760  0.99990  0.00680  Biso   1.000  C
  H64      1.0000 0.65780  0.99800  0.99700  Biso   1.000  H
  C74      1.0000 0.03885  0.29380  0.47239  Biso   1.000  C
  H65      1.0000 0.02890  0.32320  0.50310  Biso   1.000  H
  C75      1.0000 0.90290  0.82880  0.39199  Biso   1.000  C
  H66      1.0000 0.92690  0.76700  0.40090  Biso   1.000  H
  C76      1.0000 0.06250  0.21360  0.38441  Biso   1.000  C
  H67      1.0000 0.07240  0.18610  0.35330  Biso   1.000  H
  C77      1.0000 0.85320  0.52290  0.34659  Biso   1.000  C
  H68      1.0000 0.83500  0.58210  0.32560  Biso   1.000  H
  C78      1.0000 0.89332  0.44870  0.42660  Biso   1.000  C
  H69      1.0000 0.90470  0.45370  0.46420  Biso   1.000  H
  C79      1.0000 0.83810  0.00260  0.36341  Biso   1.000  C
  H70      1.0000 0.81330  0.06290  0.35300  Biso   1.000  H
  C80      1.0000 0.00600  0.82840  0.28920  Biso   1.000  C
  H71      1.0000 0.01230  0.76440  0.31080  Biso   1.000  H
  C81      1.0000 0.00400  0.91500  0.21157  Biso   1.000  C
  H72      1.0000 0.00830  0.91510  0.17590  Biso   1.000  H
  C82      1.0000 0.98930  0.01040  0.23295  Biso   1.000  C
  H73      1.0000 0.98410  0.07480  0.21160  Biso   1.000  H
  C83      1.0000 0.81790  0.91020  0.38477  Biso   1.000  C
  H74      1.0000 0.78040  0.90930  0.38910  Biso   1.000  H
  C84      1.0000 0.36000  0.47590  0.85800  Biso   1.000  C
  H75      1.0000 0.33820  0.41080  0.85070  Biso   1.000  H
  C85      1.0000 0.86500  0.42860  0.32133  Biso   1.000  C
  H76      1.0000 0.85450  0.42500  0.28360  Biso   1.000  H
  C86      1.0000 0.41750  0.15080  0.90141  Biso   1.000  C
  C87      1.0000 0.33460  0.57120  0.87010  Biso   1.000  C
  H77      1.0000 0.29570  0.57080  0.86990  Biso   1.000  H
  C88      1.0000 0.49630  0.57400  0.69960  Biso   1.000  C
  H78      1.0000 0.49210  0.57340  0.66210  Biso   1.000  H
  C89      1.0000 0.48750  0.47900  0.72470  Biso   1.000  C
  H79      1.0000 0.47810  0.41420  0.70420  Biso   1.000  H
  C90      1.0000 0.36680  0.00080  0.83170  Biso   1.000  C
  H80      1.0000 0.34880  0.94970  0.80550  Biso   1.000  H
  N40      1.0000 0.36384  0.66270  0.88183  Biso   1.000  N
  Ag10     1.0000 0.45920  0.31110  0.81810  Biso   1.000  Ag
  Ag11     1.0000 0.66872  0.32284  0.58794  Biso   1.000  Ag
  Ag12     1.0000 0.83578  0.67616  0.45000  Biso   1.000  Ag
  Ag13     1.0000 0.93485  0.32332  0.80696  Biso   1.000  Ag
  Ag14     1.0000 0.46830  0.17510  0.32382  Biso   1.000  Ag
  N41      1.0000 0.51050  0.83240  0.22620  Biso   1.000  N
  N42      1.0000 0.89082  0.15800  0.84858  Biso   1.000  N
  C91      1.0000 0.80538  0.32840  0.64371  Biso   1.000  C
  N43      1.0000 0.72277  0.42030  0.53858  Biso   1.000  N
  C92      1.0000 0.80793  0.32690  0.58561  Biso   1.000  C
  H81      1.0000 0.79120  0.25710  0.56980  Biso   1.000  H
  H82      1.0000 0.84790  0.32670  0.58370  Biso   1.000  H
  N44      1.0000 0.85352  0.32050  0.73514  Biso   1.000  N
  N45      1.0000 0.89008  0.48960  0.85696  Biso   1.000  N
  N46      1.0000 0.00888  0.28320  0.88656  Biso   1.000  N
  C93      1.0000 0.99640  0.24420  0.93073  Biso   1.000  C
  N47      1.0000 0.01260  0.67840  0.73952  Biso   1.000  N
  N48      1.0000 0.09272  0.20960  0.97073  Biso   1.000  N
  N49      1.0000 0.85072  0.67690  0.89928  Biso   1.000  N
  N50      1.0000 0.98206  0.48340  0.78223  Biso   1.000  N
  N51      1.0000 0.75571  0.31910  0.65559  Biso   1.000  N
  N52      1.0000 0.41434  0.02740  0.35638  Biso   1.000  N
  C94      1.0000 0.85405  0.33020  0.68395  Biso   1.000  C
  H83      1.0000 0.88910  0.33870  0.67450  Biso   1.000  H
  N53      1.0000 0.86646  0.96640  0.89930  Biso   1.000  N
  N54      1.0000 0.78385  0.58030  0.49947  Biso   1.000  N
  N55      1.0000 0.40200  0.31890  0.35010  Biso   1.000  N
  C95      1.0000 0.50886  0.26470  0.44612  Biso   1.000  C
  N56      1.0000 0.49170  0.02560  0.27710  Biso   1.000  N
  N57      1.0000 0.52854  0.23030  0.40484  Biso   1.000  N
  C96      1.0000 0.80320  0.30940  0.74630  Biso   1.000  C
  H84      1.0000 0.80070  0.30120  0.78230  Biso   1.000  H
  C97      1.0000 0.99055  0.57580  0.81091  Biso   1.000  C
  C98      1.0000 0.90505  0.14610  0.90179  Biso   1.000  C
  C99      1.0000 0.77901  0.41990  0.55212  Biso   1.000  C
  C100     1.0000 0.98387  0.57190  0.86749  Biso   1.000  C
  H85      1.0000 0.00480  0.63400  0.88750  Biso   1.000  H
  H86      1.0000 0.00070  0.50300  0.88430  Biso   1.000  H
  C101     1.0000 0.80927  0.50100  0.53227  Biso   1.000  C
  H87      1.0000 0.84910  0.49990  0.54240  Biso   1.000  H
  C102     1.0000 0.37720  0.39540  0.31620  Biso   1.000  C
  H88      1.0000 0.36630  0.37720  0.27950  Biso   1.000  H
  C103     1.0000 0.72780  0.58060  0.48740  Biso   1.000  C
  H89      1.0000 0.70830  0.63680  0.46520  Biso   1.000  H
  C104     1.0000 0.92360  0.57770  0.87171  Biso   1.000  C
  C105     1.0000 0.44650  0.26560  0.44088  Biso   1.000  C
  H90      1.0000 0.43840  0.28160  0.47600  Biso   1.000  H
  H91      1.0000 0.43120  0.19200  0.42970  Biso   1.000  H
  C106     1.0000 0.10460  0.25040  0.92672  Biso   1.000  C
  H92      1.0000 0.14270  0.25500  0.92410  Biso   1.000  H
  C107     1.0000 0.41790  0.83970  0.38000  Biso   1.000  C
  H93      1.0000 0.43950  0.77440  0.38750  Biso   1.000  H
  N58      1.0000 0.60084  0.29940  0.49810  Biso   1.000  N
  C108     1.0000 0.50350  0.93340  0.36213  Biso   1.000  C
  H94      1.0000 0.52310  0.86770  0.37990  Biso   1.000  H
  H95      1.0000 0.52330  0.99940  0.37920  Biso   1.000  H
  C109     1.0000 0.75490  0.30950  0.70700  Biso   1.000  C
  H96      1.0000 0.71980  0.30260  0.71650  Biso   1.000  H
  C110     1.0000 0.51320  0.83640  0.27870  Biso   1.000  C
  H97      1.0000 0.52190  0.77110  0.29900  Biso   1.000  H
  C111     1.0000 0.44340  0.93420  0.36768  Biso   1.000  C
  C112     1.0000 0.40660  0.45440  0.41653  Biso   1.000  C
  H98      1.0000 0.41770  0.47340  0.45310  Biso   1.000  H
  C113     1.0000 0.93551  0.24050  0.93365  Biso   1.000  C
  H99      1.0000 0.93310  0.23290  0.97120  Biso   1.000  H
  H100     1.0000 0.91710  0.31030  0.91990  Biso   1.000  H
  C114     1.0000 0.50390  0.93200  0.30440  Biso   1.000  C
  C115     1.0000 0.54640  0.30020  0.49234  Biso   1.000  C
  H101     1.0000 0.53160  0.32620  0.52100  Biso   1.000  H
  C116     1.0000 0.58440  0.22910  0.41060  Biso   1.000  C
  H102     1.0000 0.59960  0.20340  0.38210  Biso   1.000  H
  N59      1.0000 0.38100  0.53060  0.38220  Biso   1.000  N
  C117     1.0000 0.62020  0.26390  0.45640  Biso   1.000  C
  H103     1.0000 0.65950  0.26280  0.45870  Biso   1.000  H
  C118     1.0000 0.69760  0.50010  0.50680  Biso   1.000  C
  H104     1.0000 0.65780  0.50200  0.49700  Biso   1.000  H
  C119     1.0000 0.03885  0.20620  0.97239  Biso   1.000  C
  H105     1.0000 0.02890  0.17680  0.00310  Biso   1.000  H
  C120     1.0000 0.90290  0.67120  0.89199  Biso   1.000  C
  H106     1.0000 0.92690  0.73300  0.90090  Biso   1.000  H
  C121     1.0000 0.06250  0.28640  0.88441  Biso   1.000  C
  H107     1.0000 0.07240  0.31390  0.85330  Biso   1.000  H
  C122     1.0000 0.85320  0.97710  0.84659  Biso   1.000  C
  H108     1.0000 0.83500  0.91790  0.82560  Biso   1.000  H
  C123     1.0000 0.89332  0.05130  0.92660  Biso   1.000  C
  H109     1.0000 0.90470  0.04630  0.96420  Biso   1.000  H
  C124     1.0000 0.83810  0.49740  0.86341  Biso   1.000  C
  H110     1.0000 0.81330  0.43710  0.85300  Biso   1.000  H
  C125     1.0000 0.00600  0.67160  0.78920  Biso   1.000  C
  H111     1.0000 0.01230  0.73560  0.81080  Biso   1.000  H
  C126     1.0000 0.00400  0.58500  0.71157  Biso   1.000  C
  H112     1.0000 0.00830  0.58490  0.67590  Biso   1.000  H
  C127     1.0000 0.98930  0.48960  0.73295  Biso   1.000  C
  H113     1.0000 0.98410  0.42520  0.71160  Biso   1.000  H
  C128     1.0000 0.81790  0.58980  0.88477  Biso   1.000  C
  H114     1.0000 0.78040  0.59070  0.88910  Biso   1.000  H
  C129     1.0000 0.36000  0.02410  0.35800  Biso   1.000  C
  H115     1.0000 0.33820  0.08920  0.35070  Biso   1.000  H
  C130     1.0000 0.86500  0.07140  0.82133  Biso   1.000  C
  H116     1.0000 0.85450  0.07500  0.78360  Biso   1.000  H
  C131     1.0000 0.41750  0.34920  0.40141  Biso   1.000  C
  C132     1.0000 0.33460  0.92880  0.37010  Biso   1.000  C
  H117     1.0000 0.29570  0.92920  0.36990  Biso   1.000  H
  C133     1.0000 0.49630  0.92600  0.19960  Biso   1.000  C
  H118     1.0000 0.49210  0.92660  0.16210  Biso   1.000  H
  C134     1.0000 0.48750  0.02100  0.22470  Biso   1.000  C
  H119     1.0000 0.47810  0.08580  0.20420  Biso   1.000  H
  C135     1.0000 0.36680  0.49920  0.33170  Biso   1.000  C
  H120     1.0000 0.34880  0.55030  0.30550  Biso   1.000  H
  N60      1.0000 0.36384  0.83730  0.38183  Biso   1.000  N
  Ag15     1.0000 0.45920  0.18890  0.31810  Biso   1.000  Ag
  Ag16     1.0000 0.33128  0.82284  0.91206  Biso   1.000  Ag
  Ag17     1.0000 0.16422  0.17616  0.05000  Biso   1.000  Ag
  Ag18     1.0000 0.06515  0.82332  0.69304  Biso   1.000  Ag
  Ag19     1.0000 0.53170  0.67510  0.17618  Biso   1.000  Ag
  N61      1.0000 0.48950  0.33240  0.27380  Biso   1.000  N
  N62      1.0000 0.10918  0.65800  0.65142  Biso   1.000  N
  C136     1.0000 0.19462  0.82840  0.85629  Biso   1.000  C
  N63      1.0000 0.27723  0.92030  0.96142  Biso   1.000  N
  C137     1.0000 0.19207  0.82690  0.91439  Biso   1.000  C
  H121     1.0000 0.20880  0.75710  0.93020  Biso   1.000  H
  H122     1.0000 0.15210  0.82670  0.91630  Biso   1.000  H
  N64      1.0000 0.14648  0.82050  0.76486  Biso   1.000  N
  N65      1.0000 0.10992  0.98960  0.64304  Biso   1.000  N
  N66      1.0000 0.99112  0.78320  0.61344  Biso   1.000  N
  C138     1.0000 0.00360  0.74420  0.56927  Biso   1.000  C
  N67      1.0000 0.98740  0.17840  0.76048  Biso   1.000  N
  N68      1.0000 0.90728  0.70960  0.52927  Biso   1.000  N
  N69      1.0000 0.14928  0.17690  0.60072  Biso   1.000  N
  N70      1.0000 0.01794  0.98340  0.71777  Biso   1.000  N
  N71      1.0000 0.24429  0.81910  0.84441  Biso   1.000  N
  N72      1.0000 0.58566  0.52740  0.14362  Biso   1.000  N
  C139     1.0000 0.14595  0.83020  0.81605  Biso   1.000  C
  H123     1.0000 0.11090  0.83870  0.82550  Biso   1.000  H
  N73      1.0000 0.13354  0.46640  0.60070  Biso   1.000  N
  N74      1.0000 0.21615  0.08030  0.00053  Biso   1.000  N
  N75      1.0000 0.59800  0.81890  0.14990  Biso   1.000  N
  C140     1.0000 0.49114  0.76470  0.05388  Biso   1.000  C
  N76      1.0000 0.50830  0.52560  0.22290  Biso   1.000  N
  N77      1.0000 0.47146  0.73030  0.09516  Biso   1.000  N
  C141     1.0000 0.19680  0.80940  0.75370  Biso   1.000  C
  H124     1.0000 0.19930  0.80120  0.71770  Biso   1.000  H
  C142     1.0000 0.00945  0.07580  0.68909  Biso   1.000  C
  C143     1.0000 0.09495  0.64610  0.59821  Biso   1.000  C
  C144     1.0000 0.22099  0.91990  0.94788  Biso   1.000  C
  C145     1.0000 0.01613  0.07190  0.63251  Biso   1.000  C
  H125     1.0000 0.99520  0.13400  0.61250  Biso   1.000  H
  H126     1.0000 0.99930  0.00300  0.61570  Biso   1.000  H
  C146     1.0000 0.19073  0.00100  0.96773  Biso   1.000  C
  H127     1.0000 0.15090  0.99990  0.95760  Biso   1.000  H
  C147     1.0000 0.62280  0.89540  0.18380  Biso   1.000  C
  H128     1.0000 0.63370  0.87720  0.22050  Biso   1.000  H
  C148     1.0000 0.27220  0.08060  0.01260  Biso   1.000  C
  H129     1.0000 0.29170  0.13680  0.03480  Biso   1.000  H
  C149     1.0000 0.07640  0.07770  0.62829  Biso   1.000  C
  C150     1.0000 0.55350  0.76560  0.05912  Biso   1.000  C
  H130     1.0000 0.56160  0.78160  0.02400  Biso   1.000  H
  H131     1.0000 0.56880  0.69200  0.07030  Biso   1.000  H
  C151     1.0000 0.89540  0.75040  0.57328  Biso   1.000  C
  H132     1.0000 0.85730  0.75500  0.57590  Biso   1.000  H
  C152     1.0000 0.58210  0.33970  0.12000  Biso   1.000  C
  H133     1.0000 0.56050  0.27440  0.11250  Biso   1.000  H
  N78      1.0000 0.39916  0.79940  0.00190  Biso   1.000  N
  C153     1.0000 0.49650  0.43340  0.13787  Biso   1.000  C
  H134     1.0000 0.47690  0.36770  0.12010  Biso   1.000  H
  H135     1.0000 0.47670  0.49940  0.12080  Biso   1.000  H
  C154     1.0000 0.24510  0.80950  0.79300  Biso   1.000  C
  H136     1.0000 0.28020  0.80260  0.78350  Biso   1.000  H
  C155     1.0000 0.48680  0.33640  0.22130  Biso   1.000  C
  H137     1.0000 0.47810  0.27110  0.20100  Biso   1.000  H
  C156     1.0000 0.55660  0.43420  0.13232  Biso   1.000  C
  C157     1.0000 0.59340  0.95440  0.08347  Biso   1.000  C
  H138     1.0000 0.58230  0.97340  0.04690  Biso   1.000  H
  C158     1.0000 0.06449  0.74050  0.56635  Biso   1.000  C
  H139     1.0000 0.06690  0.73290  0.52880  Biso   1.000  H
  H140     1.0000 0.08290  0.81030  0.58010  Biso   1.000  H
  C159     1.0000 0.49610  0.43200  0.19560  Biso   1.000  C
  C160     1.0000 0.45360  0.80020  0.00766  Biso   1.000  C
  H141     1.0000 0.46840  0.82620  0.97900  Biso   1.000  H
  C161     1.0000 0.41560  0.72910  0.08940  Biso   1.000  C
  H142     1.0000 0.40040  0.70340  0.11790  Biso   1.000  H
  N79      1.0000 0.61900  0.03060  0.11780  Biso   1.000  N
  C162     1.0000 0.37980  0.76390  0.04360  Biso   1.000  C
  H143     1.0000 0.34050  0.76280  0.04130  Biso   1.000  H
  C163     1.0000 0.30240  0.00010  0.99320  Biso   1.000  C
  H144     1.0000 0.34220  0.00200  0.00300  Biso   1.000  H
  C164     1.0000 0.96115  0.70620  0.52761  Biso   1.000  C
  H145     1.0000 0.97110  0.67680  0.49690  Biso   1.000  H
  C165     1.0000 0.09710  0.17120  0.60801  Biso   1.000  C
  H146     1.0000 0.07310  0.23300  0.59910  Biso   1.000  H
  C166     1.0000 0.93750  0.78640  0.61559  Biso   1.000  C
  H147     1.0000 0.92760  0.81390  0.64670  Biso   1.000  H
  C167     1.0000 0.14680  0.47710  0.65341  Biso   1.000  C
  H148     1.0000 0.16500  0.41790  0.67440  Biso   1.000  H
  C168     1.0000 0.10668  0.55130  0.57340  Biso   1.000  C
  H149     1.0000 0.09530  0.54630  0.53580  Biso   1.000  H
  C169     1.0000 0.16190  0.99740  0.63659  Biso   1.000  C
  H150     1.0000 0.18670  0.93710  0.64700  Biso   1.000  H
  C170     1.0000 0.99400  0.17160  0.71080  Biso   1.000  C
  H151     1.0000 0.98770  0.23560  0.68920  Biso   1.000  H
  C171     1.0000 0.99600  0.08500  0.78843  Biso   1.000  C
  H152     1.0000 0.99170  0.08490  0.82410  Biso   1.000  H
  C172     1.0000 0.01070  0.98960  0.76705  Biso   1.000  C
  H153     1.0000 0.01590  0.92520  0.78840  Biso   1.000  H
  C173     1.0000 0.18210  0.08980  0.61523  Biso   1.000  C
  H154     1.0000 0.21960  0.09070  0.61090  Biso   1.000  H
  C174     1.0000 0.64000  0.52410  0.14200  Biso   1.000  C
  H155     1.0000 0.66180  0.58920  0.14930  Biso   1.000  H
  C175     1.0000 0.13500  0.57140  0.67867  Biso   1.000  C
  H156     1.0000 0.14550  0.57500  0.71640  Biso   1.000  H
  C176     1.0000 0.58250  0.84920  0.09859  Biso   1.000  C
  C177     1.0000 0.66540  0.42880  0.12990  Biso   1.000  C
  H157     1.0000 0.70430  0.42920  0.13010  Biso   1.000  H
  C178     1.0000 0.50370  0.42600  0.30040  Biso   1.000  C
  H158     1.0000 0.50790  0.42660  0.33790  Biso   1.000  H
  C179     1.0000 0.51250  0.52100  0.27530  Biso   1.000  C
  H159     1.0000 0.52190  0.58580  0.29580  Biso   1.000  H
  C180     1.0000 0.63320  0.99920  0.16830  Biso   1.000  C
  H160     1.0000 0.65120  0.05030  0.19450  Biso   1.000  H
  N80      1.0000 0.63616  0.33730  0.11817  Biso   1.000  N
  Ag20     1.0000 0.54080  0.68890  0.18190  Biso   1.000  Ag
