data_image0
_cell_length_a       13.166
_cell_length_b       34.112
_cell_length_c       10.078
_cell_angle_alpha    90
_cell_angle_beta     90
_cell_angle_gamma    90

_symmetry_space_group_name_H-M    "P 1"
_symmetry_int_tables_number       1

loop_
  _symmetry_equiv_pos_as_xyz
  'x, y, z'

loop_
  _atom_site_label
  _atom_site_occupancy
  _atom_site_fract_x
  _atom_site_fract_y
  _atom_site_fract_z
  _atom_site_thermal_displace_type
  _atom_site_B_iso_or_equiv
  _atom_site_type_symbol
  O1       1.0000 0.18530  0.79177  0.19520  Biso   1.000  O
  O2       1.0000 0.90380  0.21780  0.36650  Biso   1.000  O
  O3       1.0000 0.02820  0.21760  0.51060  Biso   1.000  O
  O4       1.0000 0.20730  0.80560  0.40630  Biso   1.000  O
  N1       1.0000 0.13750  0.97940  0.18710  Biso   1.000  N
  H1       1.0000 0.13350  0.99300  0.25890  Biso   1.000  H
  N2       1.0000 0.13030  0.98560  0.95590  Biso   1.000  N
  N3       1.0000 0.10910  0.06660  0.99190  Biso   1.000  N
  H2       1.0000 0.10370  0.09210  0.00270  Biso   1.000  H
  N4       1.0000 0.13300  0.05610  0.21900  Biso   1.000  N
  H3       1.0000 0.17320  0.04280  0.27300  Biso   1.000  H
  C1       1.0000 0.19090  0.81460  0.28860  Biso   1.000  C
  C2       1.0000 0.17130  0.85790  0.26000  Biso   1.000  C
  C3       1.0000 0.12080  0.01090  0.85010  Biso   1.000  C
  C4       1.0000 0.16510  0.87190  0.13230  Biso   1.000  C
  H4       1.0000 0.16780  0.85380  0.06080  Biso   1.000  H
  C5       1.0000 0.14970  0.93780  0.20780  Biso   1.000  C
  C6       1.0000 0.15530  0.92420  0.33690  Biso   1.000  C
  H5       1.0000 0.15170  0.94240  0.40820  Biso   1.000  H
  C7       1.0000 0.15490  0.91140  0.10420  Biso   1.000  C
  H6       1.0000 0.15160  0.92030  0.01490  Biso   1.000  H
  C8       1.0000 0.10960  0.05070  0.86450  Biso   1.000  C
  C9       1.0000 0.13070  0.00050  0.07370  Biso   1.000  C
  C10      1.0000 0.98870  0.10600  0.23470  Biso   1.000  C
  H7       1.0000 0.94510  0.09030  0.18140  Biso   1.000  H
  C11      1.0000 0.95410  0.14130  0.27980  Biso   1.000  C
  H8       1.0000 0.88800  0.15030  0.25690  Biso   1.000  H
  C12      1.0000 0.11140  0.02050  0.61260  Biso   1.000  C
  H9       1.0000 0.11240  0.01030  0.52500  Biso   1.000  H
  C13      1.0000 0.16600  0.88550  0.36390  Biso   1.000  C
  H10      1.0000 0.16980  0.87680  0.45340  Biso   1.000  H
  C14      1.0000 0.01780  0.16420  0.36050  Biso   1.000  C
  C15      1.0000 0.12370  0.99520  0.71970  Biso   1.000  C
  H11      1.0000 0.13370  0.96790  0.70580  Biso   1.000  H
  C16      1.0000 0.98110  0.20310  0.41610  Biso   1.000  C
  C17      1.0000 0.11700  0.04310  0.09800  Biso   1.000  C
  C18      1.0000 0.09610  0.07610  0.76060  Biso   1.000  C
  H12      1.0000 0.08590  0.10330  0.77570  Biso   1.000  H
  C19      1.0000 0.09780  0.06090  0.63180  Biso   1.000  C
  H13      1.0000 0.08970  0.07790  0.55770  Biso   1.000  H
  C20      1.0000 0.08580  0.09200  0.26430  Biso   1.000  C
  C21      1.0000 0.15110  0.11580  0.34510  Biso   1.000  C
  H14      1.0000 0.21860  0.10760  0.36370  Biso   1.000  H
  C22      1.0000 0.11490  0.15060  0.39530  Biso   1.000  C
  H15      1.0000 0.15580  0.16550  0.45420  Biso   1.000  H
  N5       1.0000 0.09800  0.05320  0.23400  Biso   1.000  N
  O5       1.0000 0.31470  0.70823  0.19520  Biso   1.000  O
  O6       1.0000 0.59620  0.28220  0.36650  Biso   1.000  O
  O7       1.0000 0.47180  0.28240  0.51060  Biso   1.000  O
  O8       1.0000 0.29270  0.69440  0.40630  Biso   1.000  O
  N6       1.0000 0.36250  0.52060  0.18710  Biso   1.000  N
  H16      1.0000 0.36650  0.50700  0.25890  Biso   1.000  H
  N7       1.0000 0.36970  0.51440  0.95590  Biso   1.000  N
  N8       1.0000 0.39090  0.43340  0.99190  Biso   1.000  N
  H17      1.0000 0.39630  0.40790  0.00270  Biso   1.000  H
  N9       1.0000 0.36700  0.44390  0.21900  Biso   1.000  N
  H18      1.0000 0.32680  0.45720  0.27300  Biso   1.000  H
  C23      1.0000 0.30910  0.68540  0.28860  Biso   1.000  C
  C24      1.0000 0.32870  0.64210  0.26000  Biso   1.000  C
  C25      1.0000 0.37920  0.48910  0.85010  Biso   1.000  C
  C26      1.0000 0.33490  0.62810  0.13230  Biso   1.000  C
  H19      1.0000 0.33220  0.64620  0.06080  Biso   1.000  H
  C27      1.0000 0.35030  0.56220  0.20780  Biso   1.000  C
  C28      1.0000 0.34470  0.57580  0.33690  Biso   1.000  C
  H20      1.0000 0.34830  0.55760  0.40820  Biso   1.000  H
  C29      1.0000 0.34510  0.58860  0.10420  Biso   1.000  C
  H21      1.0000 0.34840  0.57970  0.01490  Biso   1.000  H
  C30      1.0000 0.39040  0.44930  0.86450  Biso   1.000  C
  C31      1.0000 0.36930  0.49950  0.07370  Biso   1.000  C
  C32      1.0000 0.51130  0.39400  0.23470  Biso   1.000  C
  H22      1.0000 0.55490  0.40970  0.18140  Biso   1.000  H
  C33      1.0000 0.54590  0.35870  0.27980  Biso   1.000  C
  H23      1.0000 0.61200  0.34970  0.25690  Biso   1.000  H
  C34      1.0000 0.38860  0.47950  0.61260  Biso   1.000  C
  H24      1.0000 0.38760  0.48970  0.52500  Biso   1.000  H
  C35      1.0000 0.33400  0.61450  0.36390  Biso   1.000  C
  H25      1.0000 0.33020  0.62320  0.45340  Biso   1.000  H
  C36      1.0000 0.48220  0.33580  0.36050  Biso   1.000  C
  C37      1.0000 0.37630  0.50480  0.71970  Biso   1.000  C
  H26      1.0000 0.36630  0.53210  0.70580  Biso   1.000  H
  C38      1.0000 0.51890  0.29690  0.41610  Biso   1.000  C
  C39      1.0000 0.38300  0.45690  0.09800  Biso   1.000  C
  C40      1.0000 0.40390  0.42390  0.76060  Biso   1.000  C
  H27      1.0000 0.41410  0.39670  0.77570  Biso   1.000  H
  C41      1.0000 0.40220  0.43910  0.63180  Biso   1.000  C
  H28      1.0000 0.41030  0.42210  0.55770  Biso   1.000  H
  C42      1.0000 0.41420  0.40800  0.26430  Biso   1.000  C
  C43      1.0000 0.34890  0.38420  0.34510  Biso   1.000  C
  H29      1.0000 0.28140  0.39240  0.36370  Biso   1.000  H
  C44      1.0000 0.38510  0.34940  0.39530  Biso   1.000  C
  H30      1.0000 0.34420  0.33450  0.45420  Biso   1.000  H
  N10      1.0000 0.40200  0.44680  0.23400  Biso   1.000  N
  O9       1.0000 0.81470  0.29177  0.30480  Biso   1.000  O
  O10      1.0000 0.09620  0.71780  0.13350  Biso   1.000  O
  O11      1.0000 0.97180  0.71760  0.98940  Biso   1.000  O
  O12      1.0000 0.79270  0.30560  0.09370  Biso   1.000  O
  N11      1.0000 0.86250  0.47940  0.31290  Biso   1.000  N
  H31      1.0000 0.86650  0.49300  0.24110  Biso   1.000  H
  N12      1.0000 0.86970  0.48560  0.54410  Biso   1.000  N
  N13      1.0000 0.89090  0.56660  0.50810  Biso   1.000  N
  H32      1.0000 0.89630  0.59210  0.49730  Biso   1.000  H
  N14      1.0000 0.86700  0.55610  0.28100  Biso   1.000  N
  H33      1.0000 0.82680  0.54280  0.22700  Biso   1.000  H
  C45      1.0000 0.80910  0.31460  0.21140  Biso   1.000  C
  C46      1.0000 0.82870  0.35790  0.24000  Biso   1.000  C
  C47      1.0000 0.87920  0.51090  0.64990  Biso   1.000  C
  C48      1.0000 0.83490  0.37190  0.36770  Biso   1.000  C
  H34      1.0000 0.83220  0.35380  0.43920  Biso   1.000  H
  C49      1.0000 0.85030  0.43780  0.29220  Biso   1.000  C
  C50      1.0000 0.84470  0.42420  0.16310  Biso   1.000  C
  H35      1.0000 0.84830  0.44240  0.09180  Biso   1.000  H
  C51      1.0000 0.84510  0.41140  0.39580  Biso   1.000  C
  H36      1.0000 0.84840  0.42030  0.48510  Biso   1.000  H
  C52      1.0000 0.89040  0.55070  0.63550  Biso   1.000  C
  C53      1.0000 0.86930  0.50050  0.42630  Biso   1.000  C
  C54      1.0000 0.01130  0.60600  0.26530  Biso   1.000  C
  H37      1.0000 0.05490  0.59030  0.31860  Biso   1.000  H
  C55      1.0000 0.04590  0.64130  0.22020  Biso   1.000  C
  H38      1.0000 0.11200  0.65030  0.24310  Biso   1.000  H
  C56      1.0000 0.88860  0.52050  0.88740  Biso   1.000  C
  H39      1.0000 0.88760  0.51030  0.97500  Biso   1.000  H
  C57      1.0000 0.83400  0.38550  0.13610  Biso   1.000  C
  H40      1.0000 0.83020  0.37680  0.04660  Biso   1.000  H
  C58      1.0000 0.98220  0.66420  0.13950  Biso   1.000  C
  C59      1.0000 0.87630  0.49520  0.78030  Biso   1.000  C
  H41      1.0000 0.86630  0.46790  0.79420  Biso   1.000  H
  C60      1.0000 0.01890  0.70310  0.08390  Biso   1.000  C
  C61      1.0000 0.88300  0.54310  0.40200  Biso   1.000  C
  C62      1.0000 0.90390  0.57610  0.73940  Biso   1.000  C
  H42      1.0000 0.91410  0.60330  0.72430  Biso   1.000  H
  C63      1.0000 0.90220  0.56090  0.86820  Biso   1.000  C
  H43      1.0000 0.91030  0.57790  0.94230  Biso   1.000  H
  C64      1.0000 0.91420  0.59200  0.23570  Biso   1.000  C
  C65      1.0000 0.84890  0.61580  0.15490  Biso   1.000  C
  H44      1.0000 0.78140  0.60760  0.13630  Biso   1.000  H
  C66      1.0000 0.88510  0.65060  0.10470  Biso   1.000  C
  H45      1.0000 0.84420  0.66550  0.04580  Biso   1.000  H
  N15      1.0000 0.90200  0.55320  0.26600  Biso   1.000  N
  O13      1.0000 0.68530  0.20823  0.30480  Biso   1.000  O
  O14      1.0000 0.40380  0.78220  0.13350  Biso   1.000  O
  O15      1.0000 0.52820  0.78240  0.98940  Biso   1.000  O
  O16      1.0000 0.70730  0.19440  0.09370  Biso   1.000  O
  N16      1.0000 0.63750  0.02060  0.31290  Biso   1.000  N
  H46      1.0000 0.63350  0.00700  0.24110  Biso   1.000  H
  N17      1.0000 0.63030  0.01440  0.54410  Biso   1.000  N
  N18      1.0000 0.60910  0.93340  0.50810  Biso   1.000  N
  H47      1.0000 0.60370  0.90790  0.49730  Biso   1.000  H
  N19      1.0000 0.63300  0.94390  0.28100  Biso   1.000  N
  H48      1.0000 0.67320  0.95720  0.22700  Biso   1.000  H
  C67      1.0000 0.69090  0.18540  0.21140  Biso   1.000  C
  C68      1.0000 0.67130  0.14210  0.24000  Biso   1.000  C
  C69      1.0000 0.62080  0.98910  0.64990  Biso   1.000  C
  C70      1.0000 0.66510  0.12810  0.36770  Biso   1.000  C
  H49      1.0000 0.66780  0.14620  0.43920  Biso   1.000  H
  C71      1.0000 0.64970  0.06220  0.29220  Biso   1.000  C
  C72      1.0000 0.65530  0.07580  0.16310  Biso   1.000  C
  H50      1.0000 0.65170  0.05760  0.09180  Biso   1.000  H
  C73      1.0000 0.65490  0.08860  0.39580  Biso   1.000  C
  H51      1.0000 0.65160  0.07970  0.48510  Biso   1.000  H
  C74      1.0000 0.60960  0.94930  0.63550  Biso   1.000  C
  C75      1.0000 0.63070  0.99950  0.42630  Biso   1.000  C
  C76      1.0000 0.48870  0.89400  0.26530  Biso   1.000  C
  H52      1.0000 0.44510  0.90970  0.31860  Biso   1.000  H
  C77      1.0000 0.45410  0.85870  0.22020  Biso   1.000  C
  H53      1.0000 0.38800  0.84970  0.24310  Biso   1.000  H
  C78      1.0000 0.61140  0.97950  0.88740  Biso   1.000  C
  H54      1.0000 0.61240  0.98970  0.97500  Biso   1.000  H
  C79      1.0000 0.66600  0.11450  0.13610  Biso   1.000  C
  H55      1.0000 0.66980  0.12320  0.04660  Biso   1.000  H
  C80      1.0000 0.51780  0.83580  0.13950  Biso   1.000  C
  C81      1.0000 0.62370  0.00480  0.78030  Biso   1.000  C
  H56      1.0000 0.63370  0.03210  0.79420  Biso   1.000  H
  C82      1.0000 0.48110  0.79690  0.08390  Biso   1.000  C
  C83      1.0000 0.61700  0.95690  0.40200  Biso   1.000  C
  C84      1.0000 0.59610  0.92390  0.73940  Biso   1.000  C
  H57      1.0000 0.58590  0.89670  0.72430  Biso   1.000  H
  C85      1.0000 0.59780  0.93910  0.86820  Biso   1.000  C
  H58      1.0000 0.58970  0.92210  0.94230  Biso   1.000  H
  C86      1.0000 0.58580  0.90800  0.23570  Biso   1.000  C
  C87      1.0000 0.65110  0.88420  0.15490  Biso   1.000  C
  H59      1.0000 0.71860  0.89240  0.13630  Biso   1.000  H
  C88      1.0000 0.61490  0.84940  0.10470  Biso   1.000  C
  H60      1.0000 0.65580  0.83450  0.04580  Biso   1.000  H
  N20      1.0000 0.59800  0.94680  0.26600  Biso   1.000  N
  O17      1.0000 0.81470  0.20823  0.80480  Biso   1.000  O
  O18      1.0000 0.09620  0.78220  0.63350  Biso   1.000  O
  O19      1.0000 0.97180  0.78240  0.48940  Biso   1.000  O
  O20      1.0000 0.79270  0.19440  0.59370  Biso   1.000  O
  N21      1.0000 0.86250  0.02060  0.81290  Biso   1.000  N
  H61      1.0000 0.86650  0.00700  0.74110  Biso   1.000  H
  N22      1.0000 0.86970  0.01440  0.04410  Biso   1.000  N
  N23      1.0000 0.89090  0.93340  0.00810  Biso   1.000  N
  H62      1.0000 0.89630  0.90790  0.99730  Biso   1.000  H
  N24      1.0000 0.86700  0.94390  0.78100  Biso   1.000  N
  H63      1.0000 0.82680  0.95720  0.72700  Biso   1.000  H
  C89      1.0000 0.80910  0.18540  0.71140  Biso   1.000  C
  C90      1.0000 0.82870  0.14210  0.74000  Biso   1.000  C
  C91      1.0000 0.87920  0.98910  0.14990  Biso   1.000  C
  C92      1.0000 0.83490  0.12810  0.86770  Biso   1.000  C
  H64      1.0000 0.83220  0.14620  0.93920  Biso   1.000  H
  C93      1.0000 0.85030  0.06220  0.79220  Biso   1.000  C
  C94      1.0000 0.84470  0.07580  0.66310  Biso   1.000  C
  H65      1.0000 0.84830  0.05760  0.59180  Biso   1.000  H
  C95      1.0000 0.84510  0.08860  0.89580  Biso   1.000  C
  H66      1.0000 0.84840  0.07970  0.98510  Biso   1.000  H
  C96      1.0000 0.89040  0.94930  0.13550  Biso   1.000  C
  C97      1.0000 0.86930  0.99950  0.92630  Biso   1.000  C
  C98      1.0000 0.01130  0.89400  0.76530  Biso   1.000  C
  H67      1.0000 0.05490  0.90970  0.81860  Biso   1.000  H
  C99      1.0000 0.04590  0.85870  0.72020  Biso   1.000  C
  H68      1.0000 0.11200  0.84970  0.74310  Biso   1.000  H
  C100     1.0000 0.88860  0.97950  0.38740  Biso   1.000  C
  H69      1.0000 0.88760  0.98970  0.47500  Biso   1.000  H
  C101     1.0000 0.83400  0.11450  0.63610  Biso   1.000  C
  H70      1.0000 0.83020  0.12320  0.54660  Biso   1.000  H
  C102     1.0000 0.98220  0.83580  0.63950  Biso   1.000  C
  C103     1.0000 0.87630  0.00480  0.28030  Biso   1.000  C
  H71      1.0000 0.86630  0.03210  0.29420  Biso   1.000  H
  C104     1.0000 0.01890  0.79690  0.58390  Biso   1.000  C
  C105     1.0000 0.88300  0.95690  0.90200  Biso   1.000  C
  C106     1.0000 0.90390  0.92390  0.23940  Biso   1.000  C
  H72      1.0000 0.91410  0.89670  0.22430  Biso   1.000  H
  C107     1.0000 0.90220  0.93910  0.36820  Biso   1.000  C
  H73      1.0000 0.91030  0.92210  0.44230  Biso   1.000  H
  C108     1.0000 0.91420  0.90800  0.73570  Biso   1.000  C
  C109     1.0000 0.84890  0.88420  0.65490  Biso   1.000  C
  H74      1.0000 0.78140  0.89240  0.63630  Biso   1.000  H
  C110     1.0000 0.88510  0.84940  0.60470  Biso   1.000  C
  H75      1.0000 0.84420  0.83450  0.54580  Biso   1.000  H
  N25      1.0000 0.90200  0.94680  0.76600  Biso   1.000  N
  O21      1.0000 0.68530  0.29177  0.80480  Biso   1.000  O
  O22      1.0000 0.40380  0.71780  0.63350  Biso   1.000  O
  O23      1.0000 0.52820  0.71760  0.48940  Biso   1.000  O
  O24      1.0000 0.70730  0.30560  0.59370  Biso   1.000  O
  N26      1.0000 0.63750  0.47940  0.81290  Biso   1.000  N
  H76      1.0000 0.63350  0.49300  0.74110  Biso   1.000  H
  N27      1.0000 0.63030  0.48560  0.04410  Biso   1.000  N
  N28      1.0000 0.60910  0.56660  0.00810  Biso   1.000  N
  H77      1.0000 0.60370  0.59210  0.99730  Biso   1.000  H
  N29      1.0000 0.63300  0.55610  0.78100  Biso   1.000  N
  H78      1.0000 0.67320  0.54280  0.72700  Biso   1.000  H
  C111     1.0000 0.69090  0.31460  0.71140  Biso   1.000  C
  C112     1.0000 0.67130  0.35790  0.74000  Biso   1.000  C
  C113     1.0000 0.62080  0.51090  0.14990  Biso   1.000  C
  C114     1.0000 0.66510  0.37190  0.86770  Biso   1.000  C
  H79      1.0000 0.66780  0.35380  0.93920  Biso   1.000  H
  C115     1.0000 0.64970  0.43780  0.79220  Biso   1.000  C
  C116     1.0000 0.65530  0.42420  0.66310  Biso   1.000  C
  H80      1.0000 0.65170  0.44240  0.59180  Biso   1.000  H
  C117     1.0000 0.65490  0.41140  0.89580  Biso   1.000  C
  H81      1.0000 0.65160  0.42030  0.98510  Biso   1.000  H
  C118     1.0000 0.60960  0.55070  0.13550  Biso   1.000  C
  C119     1.0000 0.63070  0.50050  0.92630  Biso   1.000  C
  C120     1.0000 0.48870  0.60600  0.76530  Biso   1.000  C
  H82      1.0000 0.44510  0.59030  0.81860  Biso   1.000  H
  C121     1.0000 0.45410  0.64130  0.72020  Biso   1.000  C
  H83      1.0000 0.38800  0.65030  0.74310  Biso   1.000  H
  C122     1.0000 0.61140  0.52050  0.38740  Biso   1.000  C
  H84      1.0000 0.61240  0.51030  0.47500  Biso   1.000  H
  C123     1.0000 0.66600  0.38550  0.63610  Biso   1.000  C
  H85      1.0000 0.66980  0.37680  0.54660  Biso   1.000  H
  C124     1.0000 0.51780  0.66420  0.63950  Biso   1.000  C
  C125     1.0000 0.62370  0.49520  0.28030  Biso   1.000  C
  H86      1.0000 0.63370  0.46790  0.29420  Biso   1.000  H
  C126     1.0000 0.48110  0.70310  0.58390  Biso   1.000  C
  C127     1.0000 0.61700  0.54310  0.90200  Biso   1.000  C
  C128     1.0000 0.59610  0.57610  0.23940  Biso   1.000  C
  H87      1.0000 0.58590  0.60330  0.22430  Biso   1.000  H
  C129     1.0000 0.59780  0.56090  0.36820  Biso   1.000  C
  H88      1.0000 0.58970  0.57790  0.44230  Biso   1.000  H
  C130     1.0000 0.58580  0.59200  0.73570  Biso   1.000  C
  C131     1.0000 0.65110  0.61580  0.65490  Biso   1.000  C
  H89      1.0000 0.71860  0.60760  0.63630  Biso   1.000  H
  C132     1.0000 0.61490  0.65060  0.60470  Biso   1.000  C
  H90      1.0000 0.65580  0.66550  0.54580  Biso   1.000  H
  N30      1.0000 0.59800  0.55320  0.76600  Biso   1.000  N
  O25      1.0000 0.18530  0.70823  0.69520  Biso   1.000  O
  O26      1.0000 0.90380  0.28220  0.86650  Biso   1.000  O
  O27      1.0000 0.02820  0.28240  0.01060  Biso   1.000  O
  O28      1.0000 0.20730  0.69440  0.90630  Biso   1.000  O
  N31      1.0000 0.13750  0.52060  0.68710  Biso   1.000  N
  H91      1.0000 0.13350  0.50700  0.75890  Biso   1.000  H
  N32      1.0000 0.13030  0.51440  0.45590  Biso   1.000  N
  N33      1.0000 0.10910  0.43340  0.49190  Biso   1.000  N
  H92      1.0000 0.10370  0.40790  0.50270  Biso   1.000  H
  N34      1.0000 0.13300  0.44390  0.71900  Biso   1.000  N
  H93      1.0000 0.17320  0.45720  0.77300  Biso   1.000  H
  C133     1.0000 0.19090  0.68540  0.78860  Biso   1.000  C
  C134     1.0000 0.17130  0.64210  0.76000  Biso   1.000  C
  C135     1.0000 0.12080  0.48910  0.35010  Biso   1.000  C
  C136     1.0000 0.16510  0.62810  0.63230  Biso   1.000  C
  H94      1.0000 0.16780  0.64620  0.56080  Biso   1.000  H
  C137     1.0000 0.14970  0.56220  0.70780  Biso   1.000  C
  C138     1.0000 0.15530  0.57580  0.83690  Biso   1.000  C
  H95      1.0000 0.15170  0.55760  0.90820  Biso   1.000  H
  C139     1.0000 0.15490  0.58860  0.60420  Biso   1.000  C
  H96      1.0000 0.15160  0.57970  0.51490  Biso   1.000  H
  C140     1.0000 0.10960  0.44930  0.36450  Biso   1.000  C
  C141     1.0000 0.13070  0.49950  0.57370  Biso   1.000  C
  C142     1.0000 0.98870  0.39400  0.73470  Biso   1.000  C
  H97      1.0000 0.94510  0.40970  0.68140  Biso   1.000  H
  C143     1.0000 0.95410  0.35870  0.77980  Biso   1.000  C
  H98      1.0000 0.88800  0.34970  0.75690  Biso   1.000  H
  C144     1.0000 0.11140  0.47950  0.11260  Biso   1.000  C
  H99      1.0000 0.11240  0.48970  0.02500  Biso   1.000  H
  C145     1.0000 0.16600  0.61450  0.86390  Biso   1.000  C
  H100     1.0000 0.16980  0.62320  0.95340  Biso   1.000  H
  C146     1.0000 0.01780  0.33580  0.86050  Biso   1.000  C
  C147     1.0000 0.12370  0.50480  0.21970  Biso   1.000  C
  H101     1.0000 0.13370  0.53210  0.20580  Biso   1.000  H
  C148     1.0000 0.98110  0.29690  0.91610  Biso   1.000  C
  C149     1.0000 0.11700  0.45690  0.59800  Biso   1.000  C
  C150     1.0000 0.09610  0.42390  0.26060  Biso   1.000  C
  H102     1.0000 0.08590  0.39670  0.27570  Biso   1.000  H
  C151     1.0000 0.09780  0.43910  0.13180  Biso   1.000  C
  H103     1.0000 0.08970  0.42210  0.05770  Biso   1.000  H
  C152     1.0000 0.08580  0.40800  0.76430  Biso   1.000  C
  C153     1.0000 0.15110  0.38420  0.84510  Biso   1.000  C
  H104     1.0000 0.21860  0.39240  0.86370  Biso   1.000  H
  C154     1.0000 0.11490  0.34940  0.89530  Biso   1.000  C
  H105     1.0000 0.15580  0.33450  0.95420  Biso   1.000  H
  N35      1.0000 0.09800  0.44680  0.73400  Biso   1.000  N
  O29      1.0000 0.31470  0.79177  0.69520  Biso   1.000  O
  O30      1.0000 0.59620  0.21780  0.86650  Biso   1.000  O
  O31      1.0000 0.47180  0.21760  0.01060  Biso   1.000  O
  O32      1.0000 0.29270  0.80560  0.90630  Biso   1.000  O
  N36      1.0000 0.36250  0.97940  0.68710  Biso   1.000  N
  H106     1.0000 0.36650  0.99300  0.75890  Biso   1.000  H
  N37      1.0000 0.36970  0.98560  0.45590  Biso   1.000  N
  N38      1.0000 0.39090  0.06660  0.49190  Biso   1.000  N
  H107     1.0000 0.39630  0.09210  0.50270  Biso   1.000  H
  N39      1.0000 0.36700  0.05610  0.71900  Biso   1.000  N
  H108     1.0000 0.32680  0.04280  0.77300  Biso   1.000  H
  C155     1.0000 0.30910  0.81460  0.78860  Biso   1.000  C
  C156     1.0000 0.32870  0.85790  0.76000  Biso   1.000  C
  C157     1.0000 0.37920  0.01090  0.35010  Biso   1.000  C
  C158     1.0000 0.33490  0.87190  0.63230  Biso   1.000  C
  H109     1.0000 0.33220  0.85380  0.56080  Biso   1.000  H
  C159     1.0000 0.35030  0.93780  0.70780  Biso   1.000  C
  C160     1.0000 0.34470  0.92420  0.83690  Biso   1.000  C
  H110     1.0000 0.34830  0.94240  0.90820  Biso   1.000  H
  C161     1.0000 0.34510  0.91140  0.60420  Biso   1.000  C
  H111     1.0000 0.34840  0.92030  0.51490  Biso   1.000  H
  C162     1.0000 0.39040  0.05070  0.36450  Biso   1.000  C
  C163     1.0000 0.36930  0.00050  0.57370  Biso   1.000  C
  C164     1.0000 0.51130  0.10600  0.73470  Biso   1.000  C
  H112     1.0000 0.55490  0.09030  0.68140  Biso   1.000  H
  C165     1.0000 0.54590  0.14130  0.77980  Biso   1.000  C
  H113     1.0000 0.61200  0.15030  0.75690  Biso   1.000  H
  C166     1.0000 0.38860  0.02050  0.11260  Biso   1.000  C
  H114     1.0000 0.38760  0.01030  0.02500  Biso   1.000  H
  C167     1.0000 0.33400  0.88550  0.86390  Biso   1.000  C
  H115     1.0000 0.33020  0.87680  0.95340  Biso   1.000  H
  C168     1.0000 0.48220  0.16420  0.86050  Biso   1.000  C
  C169     1.0000 0.37630  0.99520  0.21970  Biso   1.000  C
  H116     1.0000 0.36630  0.96790  0.20580  Biso   1.000  H
  C170     1.0000 0.51890  0.20310  0.91610  Biso   1.000  C
  C171     1.0000 0.38300  0.04310  0.59800  Biso   1.000  C
  C172     1.0000 0.40390  0.07610  0.26060  Biso   1.000  C
  H117     1.0000 0.41410  0.10330  0.27570  Biso   1.000  H
  C173     1.0000 0.40220  0.06090  0.13180  Biso   1.000  C
  H118     1.0000 0.41030  0.07790  0.05770  Biso   1.000  H
  C174     1.0000 0.41420  0.09200  0.76430  Biso   1.000  C
  C175     1.0000 0.34890  0.11580  0.84510  Biso   1.000  C
  H119     1.0000 0.28140  0.10760  0.86370  Biso   1.000  H
  C176     1.0000 0.38510  0.15060  0.89530  Biso   1.000  C
  H120     1.0000 0.34420  0.16550  0.95420  Biso   1.000  H
  N40      1.0000 0.40200  0.05320  0.73400  Biso   1.000  N
  Eu1      1.0000 0.25000  0.75000  0.03590  Biso   1.000  Eu
  Eu2      1.0000 0.75000  0.25000  0.46410  Biso   1.000  Eu
  Eu3      1.0000 0.75000  0.25000  0.96410  Biso   1.000  Eu
  Eu4      1.0000 0.25000  0.75000  0.53590  Biso   1.000  Eu
