data_image0
_cell_length_a       10.8851
_cell_length_b       11.8615
_cell_length_c       13.9326
_cell_angle_alpha    90
_cell_angle_beta     90
_cell_angle_gamma    90

_symmetry_space_group_name_H-M    "P 1"
_symmetry_int_tables_number       1

loop_
  _symmetry_equiv_pos_as_xyz
  'x, y, z'

loop_
  _atom_site_label
  _atom_site_occupancy
  _atom_site_fract_x
  _atom_site_fract_y
  _atom_site_fract_z
  _atom_site_thermal_displace_type
  _atom_site_B_iso_or_equiv
  _atom_site_type_symbol
  N1       1.0000 0.60660  0.87290  0.40570  Biso   1.000  N
  O1       1.0000 0.90370  0.58190  0.37450  Biso   1.000  O
  O2       1.0000 0.85030  0.64130  0.51670  Biso   1.000  O
  C1       1.0000 0.61600  0.89600  0.30890  Biso   1.000  C
  H1       1.0000 0.59280  0.96950  0.28270  Biso   1.000  H
  C2       1.0000 0.56900  0.84900  0.31570  Biso   1.000  C
  H2       1.0000 0.48280  0.85730  0.29600  Biso   1.000  H
  C3       1.0000 0.74840  0.73510  0.28600  Biso   1.000  C
  H3       1.0000 0.79740  0.69140  0.24590  Biso   1.000  H
  C4       1.0000 0.66210  0.81060  0.25020  Biso   1.000  C
  H4       1.0000 0.64650  0.81340  0.18090  Biso   1.000  H
  C5       1.0000 0.68500  0.79920  0.43930  Biso   1.000  C
  H5       1.0000 0.69320  0.79340  0.50550  Biso   1.000  H
  C6       1.0000 0.84200  0.64630  0.42790  Biso   1.000  C
  C7       1.0000 0.75670  0.72920  0.38280  Biso   1.000  C
  N2       1.0000 0.39340  0.12710  0.40570  Biso   1.000  N
  O3       1.0000 0.09630  0.41810  0.37450  Biso   1.000  O
  O4       1.0000 0.14970  0.35870  0.51670  Biso   1.000  O
  C8       1.0000 0.38400  0.10400  0.30890  Biso   1.000  C
  H6       1.0000 0.40720  0.03050  0.28270  Biso   1.000  H
  C9       1.0000 0.43100  0.15100  0.31570  Biso   1.000  C
  H7       1.0000 0.51720  0.14270  0.29600  Biso   1.000  H
  C10      1.0000 0.25160  0.26490  0.28600  Biso   1.000  C
  H8       1.0000 0.20260  0.30860  0.24590  Biso   1.000  H
  C11      1.0000 0.33790  0.18940  0.25020  Biso   1.000  C
  H9       1.0000 0.35350  0.18660  0.18090  Biso   1.000  H
  C12      1.0000 0.31500  0.20080  0.43930  Biso   1.000  C
  H10      1.0000 0.30680  0.20660  0.50550  Biso   1.000  H
  C13      1.0000 0.15800  0.35370  0.42790  Biso   1.000  C
  C14      1.0000 0.24330  0.27080  0.38280  Biso   1.000  C
  N3       1.0000 0.39340  0.87290  0.59430  Biso   1.000  N
  O5       1.0000 0.09630  0.58190  0.62550  Biso   1.000  O
  O6       1.0000 0.14970  0.64130  0.48330  Biso   1.000  O
  C15      1.0000 0.38400  0.89600  0.69110  Biso   1.000  C
  H11      1.0000 0.40720  0.96950  0.71730  Biso   1.000  H
  C16      1.0000 0.43100  0.84900  0.68430  Biso   1.000  C
  H12      1.0000 0.51720  0.85730  0.70400  Biso   1.000  H
  C17      1.0000 0.25160  0.73510  0.71400  Biso   1.000  C
  H13      1.0000 0.20260  0.69140  0.75410  Biso   1.000  H
  C18      1.0000 0.33790  0.81060  0.74980  Biso   1.000  C
  H14      1.0000 0.35350  0.81340  0.81910  Biso   1.000  H
  C19      1.0000 0.31500  0.79920  0.56070  Biso   1.000  C
  H15      1.0000 0.30680  0.79340  0.49450  Biso   1.000  H
  C20      1.0000 0.15800  0.64630  0.57210  Biso   1.000  C
  C21      1.0000 0.24330  0.72920  0.61720  Biso   1.000  C
  N4       1.0000 0.60660  0.12710  0.59430  Biso   1.000  N
  O7       1.0000 0.90370  0.41810  0.62550  Biso   1.000  O
  O8       1.0000 0.85030  0.35870  0.48330  Biso   1.000  O
  C22      1.0000 0.61600  0.10400  0.69110  Biso   1.000  C
  H16      1.0000 0.59280  0.03050  0.71730  Biso   1.000  H
  C23      1.0000 0.56900  0.15100  0.68430  Biso   1.000  C
  H17      1.0000 0.48280  0.14270  0.70400  Biso   1.000  H
  C24      1.0000 0.74840  0.26490  0.71400  Biso   1.000  C
  H18      1.0000 0.79740  0.30860  0.75410  Biso   1.000  H
  C25      1.0000 0.66210  0.18940  0.74980  Biso   1.000  C
  H19      1.0000 0.64650  0.18660  0.81910  Biso   1.000  H
  C26      1.0000 0.68500  0.20080  0.56070  Biso   1.000  C
  H20      1.0000 0.69320  0.20660  0.49450  Biso   1.000  H
  C27      1.0000 0.84200  0.35370  0.57210  Biso   1.000  C
  C28      1.0000 0.75670  0.27080  0.61720  Biso   1.000  C
  Ag1      1.0000 0.50000  0.00000  0.50000  Biso   1.000  Ag
  In1      1.0000 0.00000  0.50000  0.50000  Biso   1.000  In
  N5       1.0000 0.10660  0.37290  0.90570  Biso   1.000  N
  O9       1.0000 0.40370  0.08190  0.87450  Biso   1.000  O
  O10      1.0000 0.35030  0.14130  0.01670  Biso   1.000  O
  C29      1.0000 0.11600  0.39600  0.80890  Biso   1.000  C
  H21      1.0000 0.09280  0.46950  0.78270  Biso   1.000  H
  C30      1.0000 0.06900  0.34900  0.81570  Biso   1.000  C
  H22      1.0000 0.98280  0.35730  0.79600  Biso   1.000  H
  C31      1.0000 0.24840  0.23510  0.78600  Biso   1.000  C
  H23      1.0000 0.29740  0.19140  0.74590  Biso   1.000  H
  C32      1.0000 0.16210  0.31060  0.75020  Biso   1.000  C
  H24      1.0000 0.14650  0.31340  0.68090  Biso   1.000  H
  C33      1.0000 0.18500  0.29920  0.93930  Biso   1.000  C
  H25      1.0000 0.19320  0.29340  0.00550  Biso   1.000  H
  C34      1.0000 0.34200  0.14630  0.92790  Biso   1.000  C
  C35      1.0000 0.25670  0.22920  0.88280  Biso   1.000  C
  N6       1.0000 0.89340  0.62710  0.90570  Biso   1.000  N
  O11      1.0000 0.59630  0.91810  0.87450  Biso   1.000  O
  O12      1.0000 0.64970  0.85870  0.01670  Biso   1.000  O
  C36      1.0000 0.88400  0.60400  0.80890  Biso   1.000  C
  H26      1.0000 0.90720  0.53050  0.78270  Biso   1.000  H
  C37      1.0000 0.93100  0.65100  0.81570  Biso   1.000  C
  H27      1.0000 0.01720  0.64270  0.79600  Biso   1.000  H
  C38      1.0000 0.75160  0.76490  0.78600  Biso   1.000  C
  H28      1.0000 0.70260  0.80860  0.74590  Biso   1.000  H
  C39      1.0000 0.83790  0.68940  0.75020  Biso   1.000  C
  H29      1.0000 0.85350  0.68660  0.68090  Biso   1.000  H
  C40      1.0000 0.81500  0.70080  0.93930  Biso   1.000  C
  H30      1.0000 0.80680  0.70660  0.00550  Biso   1.000  H
  C41      1.0000 0.65800  0.85370  0.92790  Biso   1.000  C
  C42      1.0000 0.74330  0.77080  0.88280  Biso   1.000  C
  N7       1.0000 0.89340  0.37290  0.09430  Biso   1.000  N
  O13      1.0000 0.59630  0.08190  0.12550  Biso   1.000  O
  O14      1.0000 0.64970  0.14130  0.98330  Biso   1.000  O
  C43      1.0000 0.88400  0.39600  0.19110  Biso   1.000  C
  H31      1.0000 0.90720  0.46950  0.21730  Biso   1.000  H
  C44      1.0000 0.93100  0.34900  0.18430  Biso   1.000  C
  H32      1.0000 0.01720  0.35730  0.20400  Biso   1.000  H
  C45      1.0000 0.75160  0.23510  0.21400  Biso   1.000  C
  H33      1.0000 0.70260  0.19140  0.25410  Biso   1.000  H
  C46      1.0000 0.83790  0.31060  0.24980  Biso   1.000  C
  H34      1.0000 0.85350  0.31340  0.31910  Biso   1.000  H
  C47      1.0000 0.81500  0.29920  0.06070  Biso   1.000  C
  H35      1.0000 0.80680  0.29340  0.99450  Biso   1.000  H
  C48      1.0000 0.65800  0.14630  0.07210  Biso   1.000  C
  C49      1.0000 0.74330  0.22920  0.11720  Biso   1.000  C
  N8       1.0000 0.10660  0.62710  0.09430  Biso   1.000  N
  O15      1.0000 0.40370  0.91810  0.12550  Biso   1.000  O
  O16      1.0000 0.35030  0.85870  0.98330  Biso   1.000  O
  C50      1.0000 0.11600  0.60400  0.19110  Biso   1.000  C
  H36      1.0000 0.09280  0.53050  0.21730  Biso   1.000  H
  C51      1.0000 0.06900  0.65100  0.18430  Biso   1.000  C
  H37      1.0000 0.98280  0.64270  0.20400  Biso   1.000  H
  C52      1.0000 0.24840  0.76490  0.21400  Biso   1.000  C
  H38      1.0000 0.29740  0.80860  0.25410  Biso   1.000  H
  C53      1.0000 0.16210  0.68940  0.24980  Biso   1.000  C
  H39      1.0000 0.14650  0.68660  0.31910  Biso   1.000  H
  C54      1.0000 0.18500  0.70080  0.06070  Biso   1.000  C
  H40      1.0000 0.19320  0.70660  0.99450  Biso   1.000  H
  C55      1.0000 0.34200  0.85370  0.07210  Biso   1.000  C
  C56      1.0000 0.25670  0.77080  0.11720  Biso   1.000  C
  Ag2      1.0000 0.00000  0.50000  0.00000  Biso   1.000  Ag
  In2      1.0000 0.50000  0.00000  0.00000  Biso   1.000  In
