data_image0
_cell_length_a       9.2153
_cell_length_b       11.1328
_cell_length_c       15.2684
_cell_angle_alpha    70.278
_cell_angle_beta     83.973
_cell_angle_gamma    71.336

_symmetry_space_group_name_H-M    "P 1"
_symmetry_int_tables_number       1

loop_
  _symmetry_equiv_pos_as_xyz
  'x, y, z'

loop_
  _atom_site_label
  _atom_site_occupancy
  _atom_site_fract_x
  _atom_site_fract_y
  _atom_site_fract_z
  _atom_site_thermal_displace_type
  _atom_site_B_iso_or_equiv
  _atom_site_type_symbol
  Zn1      1.0000 0.68806  0.74919  0.74625  Biso   1.000  Zn
  Zn2      1.0000 0.49009  0.47112  0.64980  Biso   1.000  Zn
  Zn3      1.0000 0.14487  0.81390  0.51218  Biso   1.000  Zn
  P1       1.0000 0.39824  0.76324  0.65559  Biso   1.000  P
  H1       1.0000 0.30950  0.82010  0.72580  Biso   1.000  H
  P2       1.0000 0.24640  0.51760  0.50222  Biso   1.000  P
  H2       1.0000 0.14450  0.45150  0.50910  Biso   1.000  H
  P3       1.0000 0.91956  0.91720  0.65906  Biso   1.000  P
  H3       1.0000 0.03560  0.89050  0.70480  Biso   1.000  H
  O1       1.0000 0.55480  0.78780  0.64420  Biso   1.000  O
  O2       1.0000 0.40720  0.61720  0.69980  Biso   1.000  O
  O3       1.0000 0.31550  0.82990  0.56540  Biso   1.000  O
  O4       1.0000 0.34020  0.44230  0.58940  Biso   1.000  O
  O5       1.0000 0.32200  0.55510  0.40960  Biso   1.000  O
  O6       1.0000 0.34080  0.46920  0.42760  Biso   1.000  O
  O7       1.0000 0.12930  0.63690  0.52290  Biso   1.000  O
  O8       1.0000 0.16940  0.66370  0.47000  Biso   1.000  O
  O9       1.0000 0.96770  0.83860  0.59330  Biso   1.000  O
  O10      1.0000 0.79460  0.87890  0.72310  Biso   1.000  O
  O11      1.0000 0.88060  0.06790  0.61330  Biso   1.000  O
  N1       1.0000 0.82990  0.55930  0.78130  Biso   1.000  N
  N2       1.0000 0.44180  0.68760  0.23060  Biso   1.000  N
  N3       1.0000 0.36280  0.15270  0.54300  Biso   1.000  N
  H4       1.0000 0.36010  0.17280  0.48030  Biso   1.000  H
  N4       1.0000 0.16570  0.10360  0.96410  Biso   1.000  N
  N5       1.0000 0.34540  0.98250  0.89010  Biso   1.000  N
  C1       1.0000 0.95540  0.52590  0.73120  Biso   1.000  C
  H5       1.0000 0.97220  0.59020  0.67710  Biso   1.000  H
  C2       1.0000 0.06110  0.39930  0.75690  Biso   1.000  C
  H6       1.0000 0.14780  0.37980  0.72090  Biso   1.000  H
  C3       1.0000 0.80320  0.46390  0.85700  Biso   1.000  C
  H7       1.0000 0.71400  0.48590  0.89050  Biso   1.000  H
  C4       1.0000 0.90180  0.33410  0.88790  Biso   1.000  C
  H8       1.0000 0.87970  0.27040  0.94060  Biso   1.000  H
  C5       1.0000 0.03650  0.30210  0.83660  Biso   1.000  C
  C6       1.0000 0.31220  0.78880  0.22540  Biso   1.000  C
  H9       1.0000 0.25490  0.79010  0.27920  Biso   1.000  H
  C7       1.0000 0.26090  0.89000  0.14420  Biso   1.000  C
  H10      1.0000 0.17100  0.95890  0.14350  Biso   1.000  H
  C8       1.0000 0.52630  0.68710  0.15270  Biso   1.000  C
  H11      1.0000 0.61750  0.61840  0.15610  Biso   1.000  H
  C9       1.0000 0.48040  0.78740  0.06700  Biso   1.000  C
  H12      1.0000 0.54060  0.78530  0.01440  Biso   1.000  H
  C10      1.0000 0.34460  0.88950  0.06150  Biso   1.000  C
  C11      1.0000 0.47630  0.10390  0.60490  Biso   1.000  C
  H13      1.0000 0.57780  0.08360  0.58550  Biso   1.000  H
  C12      1.0000 0.44250  0.08420  0.69590  Biso   1.000  C
  H14      1.0000 0.52130  0.05010  0.73930  Biso   1.000  H
  C13      1.0000 0.21760  0.18100  0.56780  Biso   1.000  C
  H15      1.0000 0.14200  0.21440  0.52250  Biso   1.000  H
  C14      1.0000 0.17610  0.16230  0.65890  Biso   1.000  C
  H16      1.0000 0.07350  0.18110  0.67630  Biso   1.000  H
  C15      1.0000 0.29250  0.11400  0.72530  Biso   1.000  C
  C16      1.0000 0.15090  0.16750  0.87230  Biso   1.000  C
  C17      1.0000 0.28660  0.99070  0.97380  Biso   1.000  C
  C18      1.0000 0.25880  0.09220  0.82580  Biso   1.000  C
  Zn4      1.0000 0.31194  0.25081  0.25375  Biso   1.000  Zn
  Zn5      1.0000 0.50991  0.52888  0.35020  Biso   1.000  Zn
  Zn6      1.0000 0.85513  0.18610  0.48782  Biso   1.000  Zn
  P4       1.0000 0.60176  0.23676  0.34441  Biso   1.000  P
  H17      1.0000 0.69050  0.17990  0.27420  Biso   1.000  H
  P5       1.0000 0.75360  0.48240  0.49778  Biso   1.000  P
  H18      1.0000 0.85550  0.54850  0.49090  Biso   1.000  H
  P6       1.0000 0.08044  0.08280  0.34094  Biso   1.000  P
  H19      1.0000 0.96440  0.10950  0.29520  Biso   1.000  H
  O12      1.0000 0.44520  0.21220  0.35580  Biso   1.000  O
  O13      1.0000 0.59280  0.38280  0.30020  Biso   1.000  O
  O14      1.0000 0.68450  0.17010  0.43460  Biso   1.000  O
  O15      1.0000 0.65980  0.55770  0.41060  Biso   1.000  O
  O16      1.0000 0.67800  0.44490  0.59040  Biso   1.000  O
  O17      1.0000 0.65920  0.53080  0.57240  Biso   1.000  O
  O18      1.0000 0.87070  0.36310  0.47710  Biso   1.000  O
  O19      1.0000 0.83060  0.33630  0.53000  Biso   1.000  O
  O20      1.0000 0.03230  0.16140  0.40670  Biso   1.000  O
  O21      1.0000 0.20540  0.12110  0.27690  Biso   1.000  O
  O22      1.0000 0.11940  0.93210  0.38670  Biso   1.000  O
  N6       1.0000 0.17010  0.44070  0.21870  Biso   1.000  N
  N7       1.0000 0.55820  0.31240  0.76940  Biso   1.000  N
  N8       1.0000 0.63720  0.84730  0.45700  Biso   1.000  N
  H20      1.0000 0.63990  0.82720  0.51970  Biso   1.000  H
  N9       1.0000 0.83430  0.89640  0.03590  Biso   1.000  N
  N10      1.0000 0.65460  0.01750  0.10990  Biso   1.000  N
  C19      1.0000 0.04460  0.47410  0.26880  Biso   1.000  C
  H21      1.0000 0.02780  0.40980  0.32290  Biso   1.000  H
  C20      1.0000 0.93890  0.60070  0.24310  Biso   1.000  C
  H22      1.0000 0.85220  0.62020  0.27910  Biso   1.000  H
  C21      1.0000 0.19680  0.53610  0.14300  Biso   1.000  C
  H23      1.0000 0.28600  0.51410  0.10950  Biso   1.000  H
  C22      1.0000 0.09820  0.66590  0.11210  Biso   1.000  C
  H24      1.0000 0.12030  0.72960  0.05940  Biso   1.000  H
  C23      1.0000 0.96350  0.69790  0.16340  Biso   1.000  C
  C24      1.0000 0.68780  0.21120  0.77460  Biso   1.000  C
  H25      1.0000 0.74510  0.20990  0.72080  Biso   1.000  H
  C25      1.0000 0.73910  0.11000  0.85580  Biso   1.000  C
  H26      1.0000 0.82900  0.04110  0.85650  Biso   1.000  H
  C26      1.0000 0.47370  0.31290  0.84730  Biso   1.000  C
  H27      1.0000 0.38250  0.38160  0.84390  Biso   1.000  H
  C27      1.0000 0.51960  0.21260  0.93300  Biso   1.000  C
  H28      1.0000 0.45940  0.21470  0.98560  Biso   1.000  H
  C28      1.0000 0.65540  0.11050  0.93850  Biso   1.000  C
  C29      1.0000 0.52370  0.89610  0.39510  Biso   1.000  C
  H29      1.0000 0.42220  0.91640  0.41450  Biso   1.000  H
  C30      1.0000 0.55750  0.91580  0.30410  Biso   1.000  C
  H30      1.0000 0.47870  0.94990  0.26070  Biso   1.000  H
  C31      1.0000 0.78240  0.81900  0.43220  Biso   1.000  C
  H31      1.0000 0.85800  0.78560  0.47750  Biso   1.000  H
  C32      1.0000 0.82390  0.83770  0.34110  Biso   1.000  C
  H32      1.0000 0.92650  0.81890  0.32370  Biso   1.000  H
  C33      1.0000 0.70750  0.88600  0.27470  Biso   1.000  C
  C34      1.0000 0.84910  0.83250  0.12770  Biso   1.000  C
  C35      1.0000 0.71340  0.00930  0.02620  Biso   1.000  C
  C36      1.0000 0.74120  0.90780  0.17420  Biso   1.000  C
