data_image0
_cell_length_a       18.2657
_cell_length_b       18.2657
_cell_length_c       22.3708
_cell_angle_alpha    90
_cell_angle_beta     90
_cell_angle_gamma    120

_symmetry_space_group_name_H-M    "P 1"
_symmetry_int_tables_number       1

loop_
  _symmetry_equiv_pos_as_xyz
  'x, y, z'

loop_
  _atom_site_label
  _atom_site_occupancy
  _atom_site_fract_x
  _atom_site_fract_y
  _atom_site_fract_z
  _atom_site_thermal_displace_type
  _atom_site_B_iso_or_equiv
  _atom_site_type_symbol
  O1       1.0000 0.47130  0.82200  0.08890  Biso   1.000  O
  C1       1.0000 0.53730  0.99250  0.04690  Biso   1.000  C
  C2       1.0000 0.50500  0.93370  0.99900  Biso   1.000  C
  O2       1.0000 0.58910  0.99720  0.09300  Biso   1.000  O
  O3       1.0000 0.52110  0.88800  0.97300  Biso   1.000  O
  O4       1.0000 0.13797  0.15533  0.42223  Biso   1.000  O
  C3       1.0000 0.20397  0.32583  0.38023  Biso   1.000  C
  C4       1.0000 0.17167  0.26703  0.33233  Biso   1.000  C
  O5       1.0000 0.25577  0.33053  0.42633  Biso   1.000  O
  O6       1.0000 0.18777  0.22133  0.30633  Biso   1.000  O
  O7       1.0000 0.80463  0.48867  0.75557  Biso   1.000  O
  C5       1.0000 0.87063  0.65917  0.71357  Biso   1.000  C
  C6       1.0000 0.83833  0.60037  0.66567  Biso   1.000  C
  O8       1.0000 0.92243  0.66387  0.75967  Biso   1.000  O
  O9       1.0000 0.85443  0.55467  0.63967  Biso   1.000  O
  O10      1.0000 0.17800  0.64930  0.08890  Biso   1.000  O
  C7       1.0000 0.00750  0.54480  0.04690  Biso   1.000  C
  C8       1.0000 0.06630  0.57130  0.99900  Biso   1.000  C
  O11      1.0000 0.00280  0.59190  0.09300  Biso   1.000  O
  O12      1.0000 0.11200  0.63310  0.97300  Biso   1.000  O
  O13      1.0000 0.84467  0.98263  0.42223  Biso   1.000  O
  C9       1.0000 0.67417  0.87813  0.38023  Biso   1.000  C
  C10      1.0000 0.73297  0.90463  0.33233  Biso   1.000  C
  O14      1.0000 0.66947  0.92523  0.42633  Biso   1.000  O
  O15      1.0000 0.77867  0.96643  0.30633  Biso   1.000  O
  O16      1.0000 0.51133  0.31597  0.75557  Biso   1.000  O
  C11      1.0000 0.34083  0.21147  0.71357  Biso   1.000  C
  C12      1.0000 0.39963  0.23797  0.66567  Biso   1.000  C
  O17      1.0000 0.33613  0.25857  0.75967  Biso   1.000  O
  O18      1.0000 0.44533  0.29977  0.63967  Biso   1.000  O
  O19      1.0000 0.35070  0.52870  0.08890  Biso   1.000  O
  C13      1.0000 0.45520  0.46270  0.04690  Biso   1.000  C
  C14      1.0000 0.42870  0.49500  0.99900  Biso   1.000  C
  O20      1.0000 0.40810  0.41090  0.09300  Biso   1.000  O
  O21      1.0000 0.36690  0.47890  0.97300  Biso   1.000  O
  O22      1.0000 0.01737  0.86203  0.42223  Biso   1.000  O
  C15      1.0000 0.12187  0.79603  0.38023  Biso   1.000  C
  C16      1.0000 0.09537  0.82833  0.33233  Biso   1.000  C
  O23      1.0000 0.07477  0.74423  0.42633  Biso   1.000  O
  O24      1.0000 0.03357  0.81223  0.30633  Biso   1.000  O
  O25      1.0000 0.68403  0.19537  0.75557  Biso   1.000  O
  C17      1.0000 0.78853  0.12937  0.71357  Biso   1.000  C
  C18      1.0000 0.76203  0.16167  0.66567  Biso   1.000  C
  O26      1.0000 0.74143  0.07757  0.75967  Biso   1.000  O
  O27      1.0000 0.70023  0.14557  0.63967  Biso   1.000  O
  O28      1.0000 0.82200  0.47130  0.91110  Biso   1.000  O
  C19      1.0000 0.99250  0.53730  0.95310  Biso   1.000  C
  C20      1.0000 0.93370  0.50500  0.00100  Biso   1.000  C
  O29      1.0000 0.99720  0.58910  0.90700  Biso   1.000  O
  O30      1.0000 0.88800  0.52110  0.02700  Biso   1.000  O
  O31      1.0000 0.48867  0.80463  0.24443  Biso   1.000  O
  C21      1.0000 0.65917  0.87063  0.28643  Biso   1.000  C
  C22      1.0000 0.60037  0.83833  0.33433  Biso   1.000  C
  O32      1.0000 0.66387  0.92243  0.24033  Biso   1.000  O
  O33      1.0000 0.55467  0.85443  0.36033  Biso   1.000  O
  O34      1.0000 0.15533  0.13797  0.57777  Biso   1.000  O
  C23      1.0000 0.32583  0.20397  0.61977  Biso   1.000  C
  C24      1.0000 0.26703  0.17167  0.66767  Biso   1.000  C
  O35      1.0000 0.33053  0.25577  0.57367  Biso   1.000  O
  O36      1.0000 0.22133  0.18777  0.69367  Biso   1.000  O
  O37      1.0000 0.64930  0.17800  0.91110  Biso   1.000  O
  C25      1.0000 0.54480  0.00750  0.95310  Biso   1.000  C
  C26      1.0000 0.57130  0.06630  0.00100  Biso   1.000  C
  O38      1.0000 0.59190  0.00280  0.90700  Biso   1.000  O
  O39      1.0000 0.63310  0.11200  0.02700  Biso   1.000  O
  O40      1.0000 0.31597  0.51133  0.24443  Biso   1.000  O
  C27      1.0000 0.21147  0.34083  0.28643  Biso   1.000  C
  C28      1.0000 0.23797  0.39963  0.33433  Biso   1.000  C
  O41      1.0000 0.25857  0.33613  0.24033  Biso   1.000  O
  O42      1.0000 0.29977  0.44533  0.36033  Biso   1.000  O
  O43      1.0000 0.98263  0.84467  0.57777  Biso   1.000  O
  C29      1.0000 0.87813  0.67417  0.61977  Biso   1.000  C
  C30      1.0000 0.90463  0.73297  0.66767  Biso   1.000  C
  O44      1.0000 0.92523  0.66947  0.57367  Biso   1.000  O
  O45      1.0000 0.96643  0.77867  0.69367  Biso   1.000  O
  O46      1.0000 0.52870  0.35070  0.91110  Biso   1.000  O
  C31      1.0000 0.46270  0.45520  0.95310  Biso   1.000  C
  C32      1.0000 0.49500  0.42870  0.00100  Biso   1.000  C
  O47      1.0000 0.41090  0.40810  0.90700  Biso   1.000  O
  O48      1.0000 0.47890  0.36690  0.02700  Biso   1.000  O
  O49      1.0000 0.19537  0.68403  0.24443  Biso   1.000  O
  C33      1.0000 0.12937  0.78853  0.28643  Biso   1.000  C
  C34      1.0000 0.16167  0.76203  0.33433  Biso   1.000  C
  O50      1.0000 0.07757  0.74143  0.24033  Biso   1.000  O
  O51      1.0000 0.14557  0.70023  0.36033  Biso   1.000  O
  O52      1.0000 0.86203  0.01737  0.57777  Biso   1.000  O
  C35      1.0000 0.79603  0.12187  0.61977  Biso   1.000  C
  C36      1.0000 0.82833  0.09537  0.66767  Biso   1.000  C
  O53      1.0000 0.74423  0.07477  0.57367  Biso   1.000  O
  O54      1.0000 0.81223  0.03357  0.69367  Biso   1.000  O
  O55      1.0000 0.52870  0.17800  0.91110  Biso   1.000  O
  C37      1.0000 0.46270  0.00750  0.95310  Biso   1.000  C
  C38      1.0000 0.49500  0.06630  0.00100  Biso   1.000  C
  O56      1.0000 0.41090  0.00280  0.90700  Biso   1.000  O
  O57      1.0000 0.47890  0.11200  0.02700  Biso   1.000  O
  O58      1.0000 0.19537  0.51133  0.24443  Biso   1.000  O
  C39      1.0000 0.12937  0.34083  0.28643  Biso   1.000  C
  C40      1.0000 0.16167  0.39963  0.33433  Biso   1.000  C
  O59      1.0000 0.07757  0.33613  0.24033  Biso   1.000  O
  O60      1.0000 0.14557  0.44533  0.36033  Biso   1.000  O
  O61      1.0000 0.86203  0.84467  0.57777  Biso   1.000  O
  C41      1.0000 0.79603  0.67417  0.61977  Biso   1.000  C
  C42      1.0000 0.82833  0.73297  0.66767  Biso   1.000  C
  O62      1.0000 0.74423  0.66947  0.57367  Biso   1.000  O
  O63      1.0000 0.81223  0.77867  0.69367  Biso   1.000  O
  O64      1.0000 0.82200  0.35070  0.91110  Biso   1.000  O
  C43      1.0000 0.99250  0.45520  0.95310  Biso   1.000  C
  C44      1.0000 0.93370  0.42870  0.00100  Biso   1.000  C
  O65      1.0000 0.99720  0.40810  0.90700  Biso   1.000  O
  O66      1.0000 0.88800  0.36690  0.02700  Biso   1.000  O
  O67      1.0000 0.48867  0.68403  0.24443  Biso   1.000  O
  C45      1.0000 0.65917  0.78853  0.28643  Biso   1.000  C
  C46      1.0000 0.60037  0.76203  0.33433  Biso   1.000  C
  O68      1.0000 0.66387  0.74143  0.24033  Biso   1.000  O
  O69      1.0000 0.55467  0.70023  0.36033  Biso   1.000  O
  O70      1.0000 0.15533  0.01737  0.57777  Biso   1.000  O
  C47      1.0000 0.32583  0.12187  0.61977  Biso   1.000  C
  C48      1.0000 0.26703  0.09537  0.66767  Biso   1.000  C
  O71      1.0000 0.33053  0.07477  0.57367  Biso   1.000  O
  O72      1.0000 0.22133  0.03357  0.69367  Biso   1.000  O
  O73      1.0000 0.64930  0.47130  0.91110  Biso   1.000  O
  C49      1.0000 0.54480  0.53730  0.95310  Biso   1.000  C
  C50      1.0000 0.57130  0.50500  0.00100  Biso   1.000  C
  O74      1.0000 0.59190  0.58910  0.90700  Biso   1.000  O
  O75      1.0000 0.63310  0.52110  0.02700  Biso   1.000  O
  O76      1.0000 0.31597  0.80463  0.24443  Biso   1.000  O
  C51      1.0000 0.21147  0.87063  0.28643  Biso   1.000  C
  C52      1.0000 0.23797  0.83833  0.33433  Biso   1.000  C
  O77      1.0000 0.25857  0.92243  0.24033  Biso   1.000  O
  O78      1.0000 0.29977  0.85443  0.36033  Biso   1.000  O
  O79      1.0000 0.98263  0.13797  0.57777  Biso   1.000  O
  C53      1.0000 0.87813  0.20397  0.61977  Biso   1.000  C
  C54      1.0000 0.90463  0.17167  0.66767  Biso   1.000  C
  O80      1.0000 0.92523  0.25577  0.57367  Biso   1.000  O
  O81      1.0000 0.96643  0.18777  0.69367  Biso   1.000  O
  O82      1.0000 0.17800  0.52870  0.08890  Biso   1.000  O
  C55      1.0000 0.00750  0.46270  0.04690  Biso   1.000  C
  C56      1.0000 0.06630  0.49500  0.99900  Biso   1.000  C
  O83      1.0000 0.00280  0.41090  0.09300  Biso   1.000  O
  O84      1.0000 0.11200  0.47890  0.97300  Biso   1.000  O
  O85      1.0000 0.84467  0.86203  0.42223  Biso   1.000  O
  C57      1.0000 0.67417  0.79603  0.38023  Biso   1.000  C
  C58      1.0000 0.73297  0.82833  0.33233  Biso   1.000  C
  O86      1.0000 0.66947  0.74423  0.42633  Biso   1.000  O
  O87      1.0000 0.77867  0.81223  0.30633  Biso   1.000  O
  O88      1.0000 0.51133  0.19537  0.75557  Biso   1.000  O
  C59      1.0000 0.34083  0.12937  0.71357  Biso   1.000  C
  C60      1.0000 0.39963  0.16167  0.66567  Biso   1.000  C
  O89      1.0000 0.33613  0.07757  0.75967  Biso   1.000  O
  O90      1.0000 0.44533  0.14557  0.63967  Biso   1.000  O
  O91      1.0000 0.35070  0.82200  0.08890  Biso   1.000  O
  C61      1.0000 0.45520  0.99250  0.04690  Biso   1.000  C
  C62      1.0000 0.42870  0.93370  0.99900  Biso   1.000  C
  O92      1.0000 0.40810  0.99720  0.09300  Biso   1.000  O
  O93      1.0000 0.36690  0.88800  0.97300  Biso   1.000  O
  O94      1.0000 0.01737  0.15533  0.42223  Biso   1.000  O
  C63      1.0000 0.12187  0.32583  0.38023  Biso   1.000  C
  C64      1.0000 0.09537  0.26703  0.33233  Biso   1.000  C
  O95      1.0000 0.07477  0.33053  0.42633  Biso   1.000  O
  O96      1.0000 0.03357  0.22133  0.30633  Biso   1.000  O
  O97      1.0000 0.68403  0.48867  0.75557  Biso   1.000  O
  C65      1.0000 0.78853  0.65917  0.71357  Biso   1.000  C
  C66      1.0000 0.76203  0.60037  0.66567  Biso   1.000  C
  O98      1.0000 0.74143  0.66387  0.75967  Biso   1.000  O
  O99      1.0000 0.70023  0.55467  0.63967  Biso   1.000  O
  O100     1.0000 0.47130  0.64930  0.08890  Biso   1.000  O
  C67      1.0000 0.53730  0.54480  0.04690  Biso   1.000  C
  C68      1.0000 0.50500  0.57130  0.99900  Biso   1.000  C
  O101     1.0000 0.58910  0.59190  0.09300  Biso   1.000  O
  O102     1.0000 0.52110  0.63310  0.97300  Biso   1.000  O
  O103     1.0000 0.13797  0.98263  0.42223  Biso   1.000  O
  C69      1.0000 0.20397  0.87813  0.38023  Biso   1.000  C
  C70      1.0000 0.17167  0.90463  0.33233  Biso   1.000  C
  O104     1.0000 0.25577  0.92523  0.42633  Biso   1.000  O
  O105     1.0000 0.18777  0.96643  0.30633  Biso   1.000  O
  O106     1.0000 0.80463  0.31597  0.75557  Biso   1.000  O
  C71      1.0000 0.87063  0.21147  0.71357  Biso   1.000  C
  C72      1.0000 0.83833  0.23797  0.66567  Biso   1.000  C
  O107     1.0000 0.92243  0.25857  0.75967  Biso   1.000  O
  O108     1.0000 0.85443  0.29977  0.63967  Biso   1.000  O
  Zn1      1.0000 0.33333  0.66667  0.07962  Biso   1.000  Zn
  Zn2      1.0000 0.00000  0.00000  0.41295  Biso   1.000  Zn
  Zn3      1.0000 0.66667  0.33333  0.74629  Biso   1.000  Zn
  Zn4      1.0000 0.66667  0.33333  0.92038  Biso   1.000  Zn
  Zn5      1.0000 0.33333  0.66667  0.25371  Biso   1.000  Zn
  Zn6      1.0000 0.00000  0.00000  0.58705  Biso   1.000  Zn
  Zn7      1.0000 0.44924  0.72462  0.13770  Biso   1.000  Zn
  Zn8      1.0000 0.11591  0.05795  0.47103  Biso   1.000  Zn
  Zn9      1.0000 0.78257  0.39129  0.80437  Biso   1.000  Zn
  Zn10     1.0000 0.27538  0.72462  0.13770  Biso   1.000  Zn
  Zn11     1.0000 0.94205  0.05795  0.47103  Biso   1.000  Zn
  Zn12     1.0000 0.60871  0.39129  0.80437  Biso   1.000  Zn
  Zn13     1.0000 0.27538  0.55076  0.13770  Biso   1.000  Zn
  Zn14     1.0000 0.94205  0.88409  0.47103  Biso   1.000  Zn
  Zn15     1.0000 0.60871  0.21743  0.80437  Biso   1.000  Zn
  Zn16     1.0000 0.72462  0.44924  0.86230  Biso   1.000  Zn
  Zn17     1.0000 0.39129  0.78257  0.19563  Biso   1.000  Zn
  Zn18     1.0000 0.05795  0.11591  0.52897  Biso   1.000  Zn
  Zn19     1.0000 0.72462  0.27538  0.86230  Biso   1.000  Zn
  Zn20     1.0000 0.39129  0.60871  0.19563  Biso   1.000  Zn
  Zn21     1.0000 0.05795  0.94205  0.52897  Biso   1.000  Zn
  Zn22     1.0000 0.55076  0.27538  0.86230  Biso   1.000  Zn
  Zn23     1.0000 0.21743  0.60871  0.19563  Biso   1.000  Zn
  Zn24     1.0000 0.88409  0.94205  0.52897  Biso   1.000  Zn
  O109     1.0000 0.33333  0.66667  0.16667  Biso   1.000  O
  O110     1.0000 0.00000  0.00000  0.50000  Biso   1.000  O
  O111     1.0000 0.66667  0.33333  0.83333  Biso   1.000  O
  O112     1.0000 0.43125  0.86250  0.12950  Biso   1.000  O
  O113     1.0000 0.39100  0.78200  0.04920  Biso   1.000  O
  C73      1.0000 0.46400  0.92800  0.03850  Biso   1.000  C
  C74      1.0000 0.42590  0.85180  0.07360  Biso   1.000  C
  O114     1.0000 0.09792  0.19583  0.46283  Biso   1.000  O
  O115     1.0000 0.05767  0.11533  0.38253  Biso   1.000  O
  C75      1.0000 0.13067  0.26133  0.37183  Biso   1.000  C
  C76      1.0000 0.09257  0.18513  0.40693  Biso   1.000  C
  O116     1.0000 0.76458  0.52917  0.79617  Biso   1.000  O
  O117     1.0000 0.72433  0.44867  0.71587  Biso   1.000  O
  C77      1.0000 0.79733  0.59467  0.70517  Biso   1.000  C
  C78      1.0000 0.75923  0.51847  0.74027  Biso   1.000  C
  O118     1.0000 0.13750  0.56875  0.12950  Biso   1.000  O
  O119     1.0000 0.21800  0.60900  0.04920  Biso   1.000  O
  C79      1.0000 0.07200  0.53600  0.03850  Biso   1.000  C
  C80      1.0000 0.14820  0.57410  0.07360  Biso   1.000  C
  O120     1.0000 0.80417  0.90208  0.46283  Biso   1.000  O
  O121     1.0000 0.88467  0.94233  0.38253  Biso   1.000  O
  C81      1.0000 0.73867  0.86933  0.37183  Biso   1.000  C
  C82      1.0000 0.81487  0.90743  0.40693  Biso   1.000  C
  O122     1.0000 0.47083  0.23542  0.79617  Biso   1.000  O
  O123     1.0000 0.55133  0.27567  0.71587  Biso   1.000  O
  C83      1.0000 0.40533  0.20267  0.70517  Biso   1.000  C
  C84      1.0000 0.48153  0.24077  0.74027  Biso   1.000  C
  O124     1.0000 0.43125  0.56875  0.12950  Biso   1.000  O
  O125     1.0000 0.39100  0.60900  0.04920  Biso   1.000  O
  C85      1.0000 0.46400  0.53600  0.03850  Biso   1.000  C
  C86      1.0000 0.42590  0.57410  0.07360  Biso   1.000  C
  O126     1.0000 0.09792  0.90208  0.46283  Biso   1.000  O
  O127     1.0000 0.05767  0.94233  0.38253  Biso   1.000  O
  C87      1.0000 0.13067  0.86933  0.37183  Biso   1.000  C
  C88      1.0000 0.09257  0.90743  0.40693  Biso   1.000  C
  O128     1.0000 0.76458  0.23542  0.79617  Biso   1.000  O
  O129     1.0000 0.72433  0.27567  0.71587  Biso   1.000  O
  C89      1.0000 0.79733  0.20267  0.70517  Biso   1.000  C
  C90      1.0000 0.75923  0.24077  0.74027  Biso   1.000  C
  O130     1.0000 0.86250  0.43125  0.87050  Biso   1.000  O
  O131     1.0000 0.78200  0.39100  0.95080  Biso   1.000  O
  C91      1.0000 0.92800  0.46400  0.96150  Biso   1.000  C
  C92      1.0000 0.85180  0.42590  0.92640  Biso   1.000  C
  O132     1.0000 0.52917  0.76458  0.20383  Biso   1.000  O
  O133     1.0000 0.44867  0.72433  0.28413  Biso   1.000  O
  C93      1.0000 0.59467  0.79733  0.29483  Biso   1.000  C
  C94      1.0000 0.51847  0.75923  0.25973  Biso   1.000  C
  O134     1.0000 0.19583  0.09792  0.53717  Biso   1.000  O
  O135     1.0000 0.11533  0.05767  0.61747  Biso   1.000  O
  C95      1.0000 0.26133  0.13067  0.62817  Biso   1.000  C
  C96      1.0000 0.18513  0.09257  0.59307  Biso   1.000  C
  O136     1.0000 0.56875  0.13750  0.87050  Biso   1.000  O
  O137     1.0000 0.60900  0.21800  0.95080  Biso   1.000  O
  C97      1.0000 0.53600  0.07200  0.96150  Biso   1.000  C
  C98      1.0000 0.57410  0.14820  0.92640  Biso   1.000  C
  O138     1.0000 0.23542  0.47083  0.20383  Biso   1.000  O
  O139     1.0000 0.27567  0.55133  0.28413  Biso   1.000  O
  C99      1.0000 0.20267  0.40533  0.29483  Biso   1.000  C
  C100     1.0000 0.24077  0.48153  0.25973  Biso   1.000  C
  O140     1.0000 0.90208  0.80417  0.53717  Biso   1.000  O
  O141     1.0000 0.94233  0.88467  0.61747  Biso   1.000  O
  C101     1.0000 0.86933  0.73867  0.62817  Biso   1.000  C
  C102     1.0000 0.90743  0.81487  0.59307  Biso   1.000  C
  O142     1.0000 0.56875  0.43125  0.87050  Biso   1.000  O
  O143     1.0000 0.60900  0.39100  0.95080  Biso   1.000  O
  C103     1.0000 0.53600  0.46400  0.96150  Biso   1.000  C
  C104     1.0000 0.57410  0.42590  0.92640  Biso   1.000  C
  O144     1.0000 0.23542  0.76458  0.20383  Biso   1.000  O
  O145     1.0000 0.27567  0.72433  0.28413  Biso   1.000  O
  C105     1.0000 0.20267  0.79733  0.29483  Biso   1.000  C
  C106     1.0000 0.24077  0.75923  0.25973  Biso   1.000  C
  O146     1.0000 0.90208  0.09792  0.53717  Biso   1.000  O
  O147     1.0000 0.94233  0.05767  0.61747  Biso   1.000  O
  C107     1.0000 0.86933  0.13067  0.62817  Biso   1.000  C
  C108     1.0000 0.90743  0.09257  0.59307  Biso   1.000  C
