data_image0
_cell_length_a       14.521
_cell_length_b       7.7378
_cell_length_c       15.997
_cell_angle_alpha    90
_cell_angle_beta     106.4
_cell_angle_gamma    90

_symmetry_space_group_name_H-M    "P 1"
_symmetry_int_tables_number       1

loop_
  _symmetry_equiv_pos_as_xyz
  'x, y, z'

loop_
  _atom_site_label
  _atom_site_occupancy
  _atom_site_fract_x
  _atom_site_fract_y
  _atom_site_fract_z
  _atom_site_thermal_displace_type
  _atom_site_B_iso_or_equiv
  _atom_site_type_symbol
  C1       1.0000 0.11330  0.33630  0.14228  Biso   1.000  C
  C2       1.0000 0.13360  0.72110  0.89846  Biso   1.000  C
  C3       1.0000 0.10540  0.36030  0.04640  Biso   1.000  C
  C4       1.0000 0.12610  0.51970  0.01698  Biso   1.000  C
  H1       1.0000 0.14830  0.61140  0.05710  Biso   1.000  H
  C5       1.0000 0.11420  0.54540  0.92808  Biso   1.000  C
  C6       1.0000 0.08220  0.41090  0.87011  Biso   1.000  C
  H2       1.0000 0.07580  0.42710  0.80990  Biso   1.000  H
  C7       1.0000 0.05940  0.25240  0.89971  Biso   1.000  C
  C8       1.0000 0.07180  0.22520  0.98797  Biso   1.000  C
  H3       1.0000 0.05750  0.11590  0.00840  Biso   1.000  H
  C9       1.0000 0.30910  0.27250  0.33480  Biso   1.000  C
  H4       1.0000 0.28960  0.27440  0.27290  Biso   1.000  H
  C10      1.0000 0.38190  0.16260  0.37640  Biso   1.000  C
  H5       1.0000 0.41230  0.09010  0.34430  Biso   1.000  H
  C11      1.0000 0.40970  0.16110  0.46740  Biso   1.000  C
  C12      1.0000 0.36450  0.26830  0.51150  Biso   1.000  C
  H6       1.0000 0.38300  0.26990  0.57340  Biso   1.000  H
  C13      1.0000 0.29150  0.37450  0.46410  Biso   1.000  C
  H7       1.0000 0.26000  0.44750  0.49510  Biso   1.000  H
  C14      1.0000 0.28300  0.22080  0.34450  Biso   1.000  C
  H8       1.0000 0.24100  0.18280  0.29070  Biso   1.000  H
  C15      1.0000 0.35860  0.11440  0.38700  Biso   1.000  C
  H9       1.0000 0.36880  0.00560  0.36360  Biso   1.000  H
  C16      1.0000 0.41870  0.17370  0.46540  Biso   1.000  C
  C17      1.0000 0.40370  0.32970  0.49890  Biso   1.000  C
  H10      1.0000 0.44490  0.36970  0.55270  Biso   1.000  H
  C18      1.0000 0.32650  0.42880  0.45220  Biso   1.000  C
  H11      1.0000 0.31500  0.53810  0.47440  Biso   1.000  H
  N1       1.0000 0.02763  0.11460  0.83717  Biso   1.000  N
  H12      1.0000 0.98710  0.15860  0.78670  Biso   1.000  H
  H13      1.0000 0.99410  0.03400  0.85920  Biso   1.000  H
  N2       1.0000 0.26340  0.37940  0.37850  Biso   1.000  N
  N3       1.0000 0.48470  0.05290  0.51990  Biso   1.000  N
  N4       1.0000 0.26690  0.37220  0.37520  Biso   1.000  N
  N5       1.0000 0.50040  0.07900  0.51780  Biso   1.000  N
  O1       1.0000 0.14381  0.46980  0.18959  Biso   1.000  O
  O2       1.0000 0.09187  0.19700  0.16932  Biso   1.000  O
  O3       1.0000 0.15426  0.84210  0.95083  Biso   1.000  O
  O4       1.0000 0.12664  0.74290  0.81651  Biso   1.000  O
  Zn1      1.0000 0.14305  0.50231  0.30977  Biso   1.000  Zn
  C19      1.0000 0.88670  0.83630  0.35772  Biso   1.000  C
  C20      1.0000 0.86640  0.22110  0.60154  Biso   1.000  C
  C21      1.0000 0.89460  0.86030  0.45360  Biso   1.000  C
  C22      1.0000 0.87390  0.01970  0.48302  Biso   1.000  C
  H14      1.0000 0.85170  0.11140  0.44290  Biso   1.000  H
  C23      1.0000 0.88580  0.04540  0.57192  Biso   1.000  C
  C24      1.0000 0.91780  0.91090  0.62989  Biso   1.000  C
  H15      1.0000 0.92420  0.92710  0.69010  Biso   1.000  H
  C25      1.0000 0.94060  0.75240  0.60029  Biso   1.000  C
  C26      1.0000 0.92820  0.72520  0.51203  Biso   1.000  C
  H16      1.0000 0.94250  0.61590  0.49160  Biso   1.000  H
  C27      1.0000 0.69090  0.77250  0.16520  Biso   1.000  C
  H17      1.0000 0.71040  0.77440  0.22710  Biso   1.000  H
  C28      1.0000 0.61810  0.66260  0.12360  Biso   1.000  C
  H18      1.0000 0.58770  0.59010  0.15570  Biso   1.000  H
  C29      1.0000 0.59030  0.66110  0.03260  Biso   1.000  C
  C30      1.0000 0.63550  0.76830  0.98850  Biso   1.000  C
  H19      1.0000 0.61700  0.76990  0.92660  Biso   1.000  H
  C31      1.0000 0.70850  0.87450  0.03590  Biso   1.000  C
  H20      1.0000 0.74000  0.94750  0.00490  Biso   1.000  H
  C32      1.0000 0.71700  0.72080  0.15550  Biso   1.000  C
  H21      1.0000 0.75900  0.68280  0.20930  Biso   1.000  H
  C33      1.0000 0.64140  0.61440  0.11300  Biso   1.000  C
  H22      1.0000 0.63120  0.50560  0.13640  Biso   1.000  H
  C34      1.0000 0.58130  0.67370  0.03460  Biso   1.000  C
  C35      1.0000 0.59630  0.82970  0.00110  Biso   1.000  C
  H23      1.0000 0.55510  0.86970  0.94730  Biso   1.000  H
  C36      1.0000 0.67350  0.92880  0.04780  Biso   1.000  C
  H24      1.0000 0.68500  0.03810  0.02560  Biso   1.000  H
  N6       1.0000 0.97237  0.61460  0.66283  Biso   1.000  N
  H25      1.0000 0.01290  0.65860  0.71330  Biso   1.000  H
  H26      1.0000 0.00590  0.53400  0.64080  Biso   1.000  H
  N7       1.0000 0.73660  0.87940  0.12150  Biso   1.000  N
  N8       1.0000 0.51530  0.55290  0.98010  Biso   1.000  N
  N9       1.0000 0.73310  0.87220  0.12480  Biso   1.000  N
  N10      1.0000 0.49960  0.57900  0.98220  Biso   1.000  N
  O5       1.0000 0.85619  0.96980  0.31041  Biso   1.000  O
  O6       1.0000 0.90813  0.69700  0.33068  Biso   1.000  O
  O7       1.0000 0.84574  0.34210  0.54917  Biso   1.000  O
  O8       1.0000 0.87336  0.24290  0.68349  Biso   1.000  O
  Zn2      1.0000 0.85695  0.00231  0.19023  Biso   1.000  Zn
  C37      1.0000 0.88670  0.66370  0.85772  Biso   1.000  C
  C38      1.0000 0.86640  0.27890  0.10154  Biso   1.000  C
  C39      1.0000 0.89460  0.63970  0.95360  Biso   1.000  C
  C40      1.0000 0.87390  0.48030  0.98302  Biso   1.000  C
  H27      1.0000 0.85170  0.38860  0.94290  Biso   1.000  H
  C41      1.0000 0.88580  0.45460  0.07192  Biso   1.000  C
  C42      1.0000 0.91780  0.58910  0.12989  Biso   1.000  C
  H28      1.0000 0.92420  0.57290  0.19010  Biso   1.000  H
  C43      1.0000 0.94060  0.74760  0.10029  Biso   1.000  C
  C44      1.0000 0.92820  0.77480  0.01203  Biso   1.000  C
  H29      1.0000 0.94250  0.88410  0.99160  Biso   1.000  H
  C45      1.0000 0.69090  0.72750  0.66520  Biso   1.000  C
  H30      1.0000 0.71040  0.72560  0.72710  Biso   1.000  H
  C46      1.0000 0.61810  0.83740  0.62360  Biso   1.000  C
  H31      1.0000 0.58770  0.90990  0.65570  Biso   1.000  H
  C47      1.0000 0.59030  0.83890  0.53260  Biso   1.000  C
  C48      1.0000 0.63550  0.73170  0.48850  Biso   1.000  C
  H32      1.0000 0.61700  0.73010  0.42660  Biso   1.000  H
  C49      1.0000 0.70850  0.62550  0.53590  Biso   1.000  C
  H33      1.0000 0.74000  0.55250  0.50490  Biso   1.000  H
  C50      1.0000 0.71700  0.77920  0.65550  Biso   1.000  C
  H34      1.0000 0.75900  0.81720  0.70930  Biso   1.000  H
  C51      1.0000 0.64140  0.88560  0.61300  Biso   1.000  C
  H35      1.0000 0.63120  0.99440  0.63640  Biso   1.000  H
  C52      1.0000 0.58130  0.82630  0.53460  Biso   1.000  C
  C53      1.0000 0.59630  0.67030  0.50110  Biso   1.000  C
  H36      1.0000 0.55510  0.63030  0.44730  Biso   1.000  H
  C54      1.0000 0.67350  0.57120  0.54780  Biso   1.000  C
  H37      1.0000 0.68500  0.46190  0.52560  Biso   1.000  H
  N11      1.0000 0.97237  0.88540  0.16283  Biso   1.000  N
  H38      1.0000 0.01290  0.84140  0.21330  Biso   1.000  H
  H39      1.0000 0.00590  0.96600  0.14080  Biso   1.000  H
  N12      1.0000 0.73660  0.62060  0.62150  Biso   1.000  N
  N13      1.0000 0.51530  0.94710  0.48010  Biso   1.000  N
  N14      1.0000 0.73310  0.62780  0.62480  Biso   1.000  N
  N15      1.0000 0.49960  0.92100  0.48220  Biso   1.000  N
  O9       1.0000 0.85619  0.53020  0.81041  Biso   1.000  O
  O10      1.0000 0.90813  0.80300  0.83068  Biso   1.000  O
  O11      1.0000 0.84574  0.15790  0.04917  Biso   1.000  O
  O12      1.0000 0.87336  0.25710  0.18349  Biso   1.000  O
  Zn3      1.0000 0.85695  0.49769  0.69023  Biso   1.000  Zn
  C55      1.0000 0.11330  0.16370  0.64228  Biso   1.000  C
  C56      1.0000 0.13360  0.77890  0.39846  Biso   1.000  C
  C57      1.0000 0.10540  0.13970  0.54640  Biso   1.000  C
  C58      1.0000 0.12610  0.98030  0.51698  Biso   1.000  C
  H40      1.0000 0.14830  0.88860  0.55710  Biso   1.000  H
  C59      1.0000 0.11420  0.95460  0.42808  Biso   1.000  C
  C60      1.0000 0.08220  0.08910  0.37011  Biso   1.000  C
  H41      1.0000 0.07580  0.07290  0.30990  Biso   1.000  H
  C61      1.0000 0.05940  0.24760  0.39971  Biso   1.000  C
  C62      1.0000 0.07180  0.27480  0.48797  Biso   1.000  C
  H42      1.0000 0.05750  0.38410  0.50840  Biso   1.000  H
  C63      1.0000 0.30910  0.22750  0.83480  Biso   1.000  C
  H43      1.0000 0.28960  0.22560  0.77290  Biso   1.000  H
  C64      1.0000 0.38190  0.33740  0.87640  Biso   1.000  C
  H44      1.0000 0.41230  0.40990  0.84430  Biso   1.000  H
  C65      1.0000 0.40970  0.33890  0.96740  Biso   1.000  C
  C66      1.0000 0.36450  0.23170  0.01150  Biso   1.000  C
  H45      1.0000 0.38300  0.23010  0.07340  Biso   1.000  H
  C67      1.0000 0.29150  0.12550  0.96410  Biso   1.000  C
  H46      1.0000 0.26000  0.05250  0.99510  Biso   1.000  H
  C68      1.0000 0.28300  0.27920  0.84450  Biso   1.000  C
  H47      1.0000 0.24100  0.31720  0.79070  Biso   1.000  H
  C69      1.0000 0.35860  0.38560  0.88700  Biso   1.000  C
  H48      1.0000 0.36880  0.49440  0.86360  Biso   1.000  H
  C70      1.0000 0.41870  0.32630  0.96540  Biso   1.000  C
  C71      1.0000 0.40370  0.17030  0.99890  Biso   1.000  C
  H49      1.0000 0.44490  0.13030  0.05270  Biso   1.000  H
  C72      1.0000 0.32650  0.07120  0.95220  Biso   1.000  C
  H50      1.0000 0.31500  0.96190  0.97440  Biso   1.000  H
  N16      1.0000 0.02763  0.38540  0.33717  Biso   1.000  N
  H51      1.0000 0.98710  0.34140  0.28670  Biso   1.000  H
  H52      1.0000 0.99410  0.46600  0.35920  Biso   1.000  H
  N17      1.0000 0.26340  0.12060  0.87850  Biso   1.000  N
  N18      1.0000 0.48470  0.44710  0.01990  Biso   1.000  N
  N19      1.0000 0.26690  0.12780  0.87520  Biso   1.000  N
  N20      1.0000 0.50040  0.42100  0.01780  Biso   1.000  N
  O13      1.0000 0.14381  0.03020  0.68959  Biso   1.000  O
  O14      1.0000 0.09187  0.30300  0.66932  Biso   1.000  O
  O15      1.0000 0.15426  0.65790  0.45083  Biso   1.000  O
  O16      1.0000 0.12664  0.75710  0.31651  Biso   1.000  O
  Zn4      1.0000 0.14305  0.99769  0.80977  Biso   1.000  Zn
