data_image0
_cell_length_a       17.1017
_cell_length_b       13.7034
_cell_length_c       10.0254
_cell_angle_alpha    90
_cell_angle_beta     105.429
_cell_angle_gamma    90

_symmetry_space_group_name_H-M    "P 1"
_symmetry_int_tables_number       1

loop_
  _symmetry_equiv_pos_as_xyz
  'x, y, z'

loop_
  _atom_site_label
  _atom_site_occupancy
  _atom_site_fract_x
  _atom_site_fract_y
  _atom_site_fract_z
  _atom_site_thermal_displace_type
  _atom_site_B_iso_or_equiv
  _atom_site_type_symbol
  Zn1      1.0000 0.02874  0.11544  0.60296  Biso   1.000  Zn
  Zn2      1.0000 0.52280  0.39908  0.75680  Biso   1.000  Zn
  O1       1.0000 0.60090  0.49730  0.55300  Biso   1.000  O
  O2       1.0000 0.64000  0.41210  0.75000  Biso   1.000  O
  O3       1.0000 0.76760  0.33900  0.67450  Biso   1.000  O
  O4       1.0000 0.87970  0.19910  0.78230  Biso   1.000  O
  O5       1.0000 0.93600  0.21920  0.60390  Biso   1.000  O
  O6       1.0000 0.02780  0.16910  0.42030  Biso   1.000  O
  C1       1.0000 0.64890  0.44100  0.63610  Biso   1.000  C
  C2       1.0000 0.71950  0.40780  0.59300  Biso   1.000  C
  C3       1.0000 0.74600  0.42640  0.47880  Biso   1.000  C
  H1       1.0000 0.72350  0.46960  0.40740  Biso   1.000  H
  C4       1.0000 0.81560  0.36550  0.49140  Biso   1.000  C
  H2       1.0000 0.84790  0.36210  0.43010  Biso   1.000  H
  C5       1.0000 0.82540  0.31390  0.60950  Biso   1.000  C
  C6       1.0000 0.88590  0.23750  0.67130  Biso   1.000  C
  Zn3      1.0000 0.52874  0.61544  0.60296  Biso   1.000  Zn
  Zn4      1.0000 0.02280  0.89908  0.75680  Biso   1.000  Zn
  O7       1.0000 0.10090  0.99730  0.55300  Biso   1.000  O
  O8       1.0000 0.14000  0.91210  0.75000  Biso   1.000  O
  O9       1.0000 0.26760  0.83900  0.67450  Biso   1.000  O
  O10      1.0000 0.37970  0.69910  0.78230  Biso   1.000  O
  O11      1.0000 0.43600  0.71920  0.60390  Biso   1.000  O
  O12      1.0000 0.52780  0.66910  0.42030  Biso   1.000  O
  C7       1.0000 0.14890  0.94100  0.63610  Biso   1.000  C
  C8       1.0000 0.21950  0.90780  0.59300  Biso   1.000  C
  C9       1.0000 0.24600  0.92640  0.47880  Biso   1.000  C
  H3       1.0000 0.22350  0.96960  0.40740  Biso   1.000  H
  C10      1.0000 0.31560  0.86550  0.49140  Biso   1.000  C
  H4       1.0000 0.34790  0.86210  0.43010  Biso   1.000  H
  C11      1.0000 0.32540  0.81390  0.60950  Biso   1.000  C
  C12      1.0000 0.38590  0.73750  0.67130  Biso   1.000  C
  Zn5      1.0000 0.97126  0.11544  0.89704  Biso   1.000  Zn
  Zn6      1.0000 0.47720  0.39908  0.74320  Biso   1.000  Zn
  O13      1.0000 0.39910  0.49730  0.94700  Biso   1.000  O
  O14      1.0000 0.36000  0.41210  0.75000  Biso   1.000  O
  O15      1.0000 0.23240  0.33900  0.82550  Biso   1.000  O
  O16      1.0000 0.12030  0.19910  0.71770  Biso   1.000  O
  O17      1.0000 0.06400  0.21920  0.89610  Biso   1.000  O
  O18      1.0000 0.97220  0.16910  0.07970  Biso   1.000  O
  C13      1.0000 0.35110  0.44100  0.86390  Biso   1.000  C
  C14      1.0000 0.28050  0.40780  0.90700  Biso   1.000  C
  C15      1.0000 0.25400  0.42640  0.02120  Biso   1.000  C
  H5       1.0000 0.27650  0.46960  0.09260  Biso   1.000  H
  C16      1.0000 0.18440  0.36550  0.00860  Biso   1.000  C
  H6       1.0000 0.15210  0.36210  0.06990  Biso   1.000  H
  C17      1.0000 0.17460  0.31390  0.89050  Biso   1.000  C
  C18      1.0000 0.11410  0.23750  0.82870  Biso   1.000  C
  Zn7      1.0000 0.47126  0.61544  0.89704  Biso   1.000  Zn
  Zn8      1.0000 0.97720  0.89908  0.74320  Biso   1.000  Zn
  O19      1.0000 0.89910  0.99730  0.94700  Biso   1.000  O
  O20      1.0000 0.86000  0.91210  0.75000  Biso   1.000  O
  O21      1.0000 0.73240  0.83900  0.82550  Biso   1.000  O
  O22      1.0000 0.62030  0.69910  0.71770  Biso   1.000  O
  O23      1.0000 0.56400  0.71920  0.89610  Biso   1.000  O
  O24      1.0000 0.47220  0.66910  0.07970  Biso   1.000  O
  C19      1.0000 0.85110  0.94100  0.86390  Biso   1.000  C
  C20      1.0000 0.78050  0.90780  0.90700  Biso   1.000  C
  C21      1.0000 0.75400  0.92640  0.02120  Biso   1.000  C
  H7       1.0000 0.77650  0.96960  0.09260  Biso   1.000  H
  C22      1.0000 0.68440  0.86550  0.00860  Biso   1.000  C
  H8       1.0000 0.65210  0.86210  0.06990  Biso   1.000  H
  C23      1.0000 0.67460  0.81390  0.89050  Biso   1.000  C
  C24      1.0000 0.61410  0.73750  0.82870  Biso   1.000  C
  Zn9      1.0000 0.97126  0.88456  0.39704  Biso   1.000  Zn
  Zn10     1.0000 0.47720  0.60092  0.24320  Biso   1.000  Zn
  O25      1.0000 0.39910  0.50270  0.44700  Biso   1.000  O
  O26      1.0000 0.36000  0.58790  0.25000  Biso   1.000  O
  O27      1.0000 0.23240  0.66100  0.32550  Biso   1.000  O
  O28      1.0000 0.12030  0.80090  0.21770  Biso   1.000  O
  O29      1.0000 0.06400  0.78080  0.39610  Biso   1.000  O
  O30      1.0000 0.97220  0.83090  0.57970  Biso   1.000  O
  C25      1.0000 0.35110  0.55900  0.36390  Biso   1.000  C
  C26      1.0000 0.28050  0.59220  0.40700  Biso   1.000  C
  C27      1.0000 0.25400  0.57360  0.52120  Biso   1.000  C
  H9       1.0000 0.27650  0.53040  0.59260  Biso   1.000  H
  C28      1.0000 0.18440  0.63450  0.50860  Biso   1.000  C
  H10      1.0000 0.15210  0.63790  0.56990  Biso   1.000  H
  C29      1.0000 0.17460  0.68610  0.39050  Biso   1.000  C
  C30      1.0000 0.11410  0.76250  0.32870  Biso   1.000  C
  Zn11     1.0000 0.47126  0.38456  0.39704  Biso   1.000  Zn
  Zn12     1.0000 0.97720  0.10092  0.24320  Biso   1.000  Zn
  O31      1.0000 0.89910  0.00270  0.44700  Biso   1.000  O
  O32      1.0000 0.86000  0.08790  0.25000  Biso   1.000  O
  O33      1.0000 0.73240  0.16100  0.32550  Biso   1.000  O
  O34      1.0000 0.62030  0.30090  0.21770  Biso   1.000  O
  O35      1.0000 0.56400  0.28080  0.39610  Biso   1.000  O
  O36      1.0000 0.47220  0.33090  0.57970  Biso   1.000  O
  C31      1.0000 0.85110  0.05900  0.36390  Biso   1.000  C
  C32      1.0000 0.78050  0.09220  0.40700  Biso   1.000  C
  C33      1.0000 0.75400  0.07360  0.52120  Biso   1.000  C
  H11      1.0000 0.77650  0.03040  0.59260  Biso   1.000  H
  C34      1.0000 0.68440  0.13450  0.50860  Biso   1.000  C
  H12      1.0000 0.65210  0.13790  0.56990  Biso   1.000  H
  C35      1.0000 0.67460  0.18610  0.39050  Biso   1.000  C
  C36      1.0000 0.61410  0.26250  0.32870  Biso   1.000  C
  Zn13     1.0000 0.02874  0.88456  0.10296  Biso   1.000  Zn
  Zn14     1.0000 0.52280  0.60092  0.25680  Biso   1.000  Zn
  O37      1.0000 0.60090  0.50270  0.05300  Biso   1.000  O
  O38      1.0000 0.64000  0.58790  0.25000  Biso   1.000  O
  O39      1.0000 0.76760  0.66100  0.17450  Biso   1.000  O
  O40      1.0000 0.87970  0.80090  0.28230  Biso   1.000  O
  O41      1.0000 0.93600  0.78080  0.10390  Biso   1.000  O
  O42      1.0000 0.02780  0.83090  0.92030  Biso   1.000  O
  C37      1.0000 0.64890  0.55900  0.13610  Biso   1.000  C
  C38      1.0000 0.71950  0.59220  0.09300  Biso   1.000  C
  C39      1.0000 0.74600  0.57360  0.97880  Biso   1.000  C
  H13      1.0000 0.72350  0.53040  0.90740  Biso   1.000  H
  C40      1.0000 0.81560  0.63450  0.99140  Biso   1.000  C
  H14      1.0000 0.84790  0.63790  0.93010  Biso   1.000  H
  C41      1.0000 0.82540  0.68610  0.10950  Biso   1.000  C
  C42      1.0000 0.88590  0.76250  0.17130  Biso   1.000  C
  Zn15     1.0000 0.52874  0.38456  0.10296  Biso   1.000  Zn
  Zn16     1.0000 0.02280  0.10092  0.25680  Biso   1.000  Zn
  O43      1.0000 0.10090  0.00270  0.05300  Biso   1.000  O
  O44      1.0000 0.14000  0.08790  0.25000  Biso   1.000  O
  O45      1.0000 0.26760  0.16100  0.17450  Biso   1.000  O
  O46      1.0000 0.37970  0.30090  0.28230  Biso   1.000  O
  O47      1.0000 0.43600  0.28080  0.10390  Biso   1.000  O
  O48      1.0000 0.52780  0.33090  0.92030  Biso   1.000  O
  C43      1.0000 0.14890  0.05900  0.13610  Biso   1.000  C
  C44      1.0000 0.21950  0.09220  0.09300  Biso   1.000  C
  C45      1.0000 0.24600  0.07360  0.97880  Biso   1.000  C
  H15      1.0000 0.22350  0.03040  0.90740  Biso   1.000  H
  C46      1.0000 0.31560  0.13450  0.99140  Biso   1.000  C
  H16      1.0000 0.34790  0.13790  0.93010  Biso   1.000  H
  C47      1.0000 0.32540  0.18610  0.10950  Biso   1.000  C
  C48      1.0000 0.38590  0.26250  0.17130  Biso   1.000  C
  O49      1.0000 0.00000  0.03610  0.75000  Biso   1.000  O
  O50      1.0000 0.50000  0.53610  0.75000  Biso   1.000  O
  O51      1.0000 0.00000  0.96390  0.25000  Biso   1.000  O
  O52      1.0000 0.50000  0.46390  0.25000  Biso   1.000  O
