data_image0
_cell_length_a       19.8319
_cell_length_b       19.8319
_cell_length_c       15.2208
_cell_angle_alpha    90
_cell_angle_beta     90
_cell_angle_gamma    120

_symmetry_space_group_name_H-M    "P 1"
_symmetry_int_tables_number       1

loop_
  _symmetry_equiv_pos_as_xyz
  'x, y, z'

loop_
  _atom_site_label
  _atom_site_occupancy
  _atom_site_fract_x
  _atom_site_fract_y
  _atom_site_fract_z
  _atom_site_thermal_displace_type
  _atom_site_B_iso_or_equiv
  _atom_site_type_symbol
  C1       1.0000 0.46140  0.60650  0.41660  Biso   1.000  C
  C2       1.0000 0.42970  0.47150  0.45480  Biso   1.000  C
  C3       1.0000 0.48100  0.55100  0.46220  Biso   1.000  C
  C4       1.0000 0.55120  0.58040  0.50630  Biso   1.000  C
  C5       1.0000 0.27520  0.42810  0.48090  Biso   1.000  C
  H1       1.0000 0.22290  0.40740  0.45630  Biso   1.000  H
  H2       1.0000 0.29190  0.47890  0.50800  Biso   1.000  H
  H3       1.0000 0.27450  0.39210  0.52550  Biso   1.000  H
  C6       1.0000 0.58320  0.70510  0.61080  Biso   1.000  C
  H4       1.0000 0.60560  0.76170  0.61500  Biso   1.000  H
  H5       1.0000 0.60090  0.68680  0.66070  Biso   1.000  H
  H6       1.0000 0.52630  0.67970  0.61160  Biso   1.000  H
  C7       1.0000 0.31920  0.50680  0.08540  Biso   1.000  C
  C8       1.0000 0.32680  0.46000  0.01420  Biso   1.000  C
  C9       1.0000 0.30770  0.38310  0.02720  Biso   1.000  C
  C10      1.0000 0.32450  0.34410  0.96260  Biso   1.000  C
  C11      1.0000 0.36040  0.38210  0.88500  Biso   1.000  C
  C12      1.0000 0.37940  0.45900  0.87200  Biso   1.000  C
  C13      1.0000 0.36270  0.49800  0.93660  Biso   1.000  C
  S1       1.0000 0.25780  0.33570  0.12260  Biso   1.000  S
  S2       1.0000 0.30610  0.24690  0.97950  Biso   1.000  S
  S3       1.0000 0.42590  0.50920  0.77420  Biso   1.000  S
  S4       1.0000 0.38680  0.59620  0.92680  Biso   1.000  S
  C14      1.0000 0.38790  0.34120  0.82330  Biso   1.000  C
  O1       1.0000 0.34420  0.29590  0.76640  Biso   1.000  O
  O2       1.0000 0.45560  0.36100  0.83210  Biso   1.000  O
  C15      1.0000 0.33440  0.34170  0.18920  Biso   1.000  C
  H7       1.0000 0.36650  0.32690  0.15440  Biso   1.000  H
  H8       1.0000 0.31220  0.30630  0.23930  Biso   1.000  H
  H9       1.0000 0.36650  0.39520  0.21050  Biso   1.000  H
  C16      1.0000 0.20810  0.19190  0.94500  Biso   1.000  C
  H10      1.0000 0.19020  0.13630  0.95050  Biso   1.000  H
  H11      1.0000 0.17550  0.20510  0.98100  Biso   1.000  H
  H12      1.0000 0.20420  0.20390  0.88300  Biso   1.000  H
  C17      1.0000 0.37300  0.44490  0.69040  Biso   1.000  C
  H13      1.0000 0.39590  0.46880  0.63350  Biso   1.000  H
  H14      1.0000 0.37570  0.39700  0.69720  Biso   1.000  H
  H15      1.0000 0.31910  0.43260  0.69300  Biso   1.000  H
  C18      1.0000 0.48940  0.64540  0.93570  Biso   1.000  C
  H16      1.0000 0.51000  0.70170  0.93110  Biso   1.000  H
  H17      1.0000 0.50410  0.63340  0.99260  Biso   1.000  H
  H18      1.0000 0.51090  0.62840  0.88830  Biso   1.000  H
  C19      1.0000 0.31970  0.45560  0.00730  Biso   1.000  C
  C20      1.0000 0.29090  0.37670  0.02220  Biso   1.000  C
  C21      1.0000 0.27310  0.32610  0.95160  Biso   1.000  C
  C22      1.0000 0.28410  0.35430  0.86620  Biso   1.000  C
  C23      1.0000 0.31280  0.43320  0.85120  Biso   1.000  C
  C24      1.0000 0.33070  0.48380  0.92180  Biso   1.000  C
  C25      1.0000 0.26270  0.30000  0.78400  Biso   1.000  C
  O3       1.0000 0.31860  0.28900  0.76500  Biso   1.000  O
  O4       1.0000 0.20210  0.27680  0.73780  Biso   1.000  O
  O5       1.0000 0.54000  0.63900  0.15000  Biso   1.000  O
  H19      1.0000 0.52700  0.59800  0.12000  Biso   1.000  H
  H20      1.0000 0.58800  0.66300  0.15200  Biso   1.000  H
  S5       1.0000 0.35880  0.58410  0.90490  Biso   1.000  S
  C26      1.0000 0.31760  0.22540  0.01600  Biso   1.000  C
  H21      1.0000 0.30520  0.17190  0.02820  Biso   1.000  H
  H22      1.0000 0.36270  0.25050  0.97700  Biso   1.000  H
  H23      1.0000 0.32970  0.25440  0.07170  Biso   1.000  H
  S6       1.0000 0.23710  0.22450  0.96620  Biso   1.000  S
  S7       1.0000 0.27640  0.34400  0.13900  Biso   1.000  S
  S8       1.0000 0.32250  0.47000  0.73580  Biso   1.000  S
  C27      1.0000 0.37300  0.38100  0.17080  Biso   1.000  C
  H24      1.0000 0.40690  0.40180  0.11930  Biso   1.000  H
  H25      1.0000 0.37930  0.33940  0.19720  Biso   1.000  H
  H26      1.0000 0.38720  0.42270  0.21390  Biso   1.000  H
  C28      1.0000 0.42020  0.49900  0.71800  Biso   1.000  C
  H27      1.0000 0.43530  0.52070  0.65880  Biso   1.000  H
  H28      1.0000 0.45240  0.53930  0.76140  Biso   1.000  H
  H29      1.0000 0.42790  0.45440  0.72470  Biso   1.000  H
  C29      1.0000 0.46020  0.63090  0.91400  Biso   1.000  C
  H30      1.0000 0.48220  0.68710  0.90580  Biso   1.000  H
  H31      1.0000 0.47430  0.62110  0.97240  Biso   1.000  H
  H32      1.0000 0.48090  0.61090  0.86910  Biso   1.000  H
  Eu1      1.0000 0.44228  0.66051  0.21252  Biso   1.000  Eu
  O6       1.0000 0.48240  0.62230  0.33900  Biso   1.000  O
  O7       1.0000 0.42450  0.63140  0.45900  Biso   1.000  O
  O8       1.0000 0.32570  0.58340  0.30110  Biso   1.000  O
  H33      1.0000 0.32260  0.53450  0.32350  Biso   1.000  H
  O9       1.0000 0.34640  0.68460  0.57500  Biso   1.000  O
  H34      1.0000 0.36920  0.67070  0.61150  Biso   1.000  H
  H35      1.0000 0.32770  0.70730  0.60440  Biso   1.000  H
  O10      1.0000 0.25650  0.50480  0.09660  Biso   1.000  O
  O11      1.0000 0.37920  0.54360  0.12920  Biso   1.000  O
  S9       1.0000 0.34209  0.43902  0.39451  Biso   1.000  S
  S10      1.0000 0.61332  0.68241  0.51310  Biso   1.000  S
  C30      1.0000 0.39350  0.85490  0.41660  Biso   1.000  C
  C31      1.0000 0.52850  0.95820  0.45480  Biso   1.000  C
  C32      1.0000 0.44900  0.93000  0.46220  Biso   1.000  C
  C33      1.0000 0.41960  0.97080  0.50630  Biso   1.000  C
  C34      1.0000 0.57190  0.84710  0.48090  Biso   1.000  C
  H36      1.0000 0.59260  0.81550  0.45630  Biso   1.000  H
  H37      1.0000 0.52110  0.81300  0.50800  Biso   1.000  H
  H38      1.0000 0.60790  0.88240  0.52550  Biso   1.000  H
  C35      1.0000 0.29490  0.87810  0.61080  Biso   1.000  C
  H39      1.0000 0.23830  0.84390  0.61500  Biso   1.000  H
  H40      1.0000 0.31320  0.91410  0.66070  Biso   1.000  H
  H41      1.0000 0.32030  0.84660  0.61160  Biso   1.000  H
  C36      1.0000 0.49320  0.81240  0.08540  Biso   1.000  C
  C37      1.0000 0.54000  0.86680  0.01420  Biso   1.000  C
  C38      1.0000 0.61690  0.92460  0.02720  Biso   1.000  C
  C39      1.0000 0.65590  0.98040  0.96260  Biso   1.000  C
  C40      1.0000 0.61790  0.97830  0.88500  Biso   1.000  C
  C41      1.0000 0.54100  0.92040  0.87200  Biso   1.000  C
  C42      1.0000 0.50200  0.86470  0.93660  Biso   1.000  C
  S11      1.0000 0.66430  0.92210  0.12260  Biso   1.000  S
  S12      1.0000 0.75310  0.05920  0.97950  Biso   1.000  S
  S13      1.0000 0.49080  0.91670  0.77420  Biso   1.000  S
  S14      1.0000 0.40380  0.79060  0.92680  Biso   1.000  S
  C43      1.0000 0.65880  0.04670  0.82330  Biso   1.000  C
  O12      1.0000 0.70410  0.04830  0.76640  Biso   1.000  O
  O13      1.0000 0.63900  0.09460  0.83210  Biso   1.000  O
  C44      1.0000 0.65830  0.99270  0.18920  Biso   1.000  C
  H42      1.0000 0.67310  0.03960  0.15440  Biso   1.000  H
  H43      1.0000 0.69370  0.00590  0.23930  Biso   1.000  H
  H44      1.0000 0.60480  0.97130  0.21050  Biso   1.000  H
  C45      1.0000 0.80810  0.01620  0.94500  Biso   1.000  C
  H45      1.0000 0.86370  0.05390  0.95050  Biso   1.000  H
  H46      1.0000 0.79490  0.97040  0.98100  Biso   1.000  H
  H47      1.0000 0.79610  0.00030  0.88300  Biso   1.000  H
  C46      1.0000 0.55510  0.92810  0.69040  Biso   1.000  C
  H48      1.0000 0.53120  0.92710  0.63350  Biso   1.000  H
  H49      1.0000 0.60300  0.97870  0.69720  Biso   1.000  H
  H50      1.0000 0.56740  0.88650  0.69300  Biso   1.000  H
  C47      1.0000 0.35460  0.84400  0.93570  Biso   1.000  C
  H51      1.0000 0.29830  0.80830  0.93110  Biso   1.000  H
  H52      1.0000 0.36660  0.87070  0.99260  Biso   1.000  H
  H53      1.0000 0.37160  0.88250  0.88830  Biso   1.000  H
  C48      1.0000 0.54440  0.86410  0.00730  Biso   1.000  C
  C49      1.0000 0.62330  0.91420  0.02220  Biso   1.000  C
  C50      1.0000 0.67390  0.94700  0.95160  Biso   1.000  C
  C51      1.0000 0.64570  0.92980  0.86620  Biso   1.000  C
  C52      1.0000 0.56680  0.87960  0.85120  Biso   1.000  C
  C53      1.0000 0.51620  0.84690  0.92180  Biso   1.000  C
  C54      1.0000 0.70000  0.96270  0.78400  Biso   1.000  C
  O14      1.0000 0.71100  0.02960  0.76500  Biso   1.000  O
  O15      1.0000 0.72320  0.92530  0.73780  Biso   1.000  O
  O16      1.0000 0.36100  0.90100  0.15000  Biso   1.000  O
  H54      1.0000 0.40200  0.92900  0.12000  Biso   1.000  H
  H55      1.0000 0.33700  0.92500  0.15200  Biso   1.000  H
  S15      1.0000 0.41590  0.77470  0.90490  Biso   1.000  S
  C55      1.0000 0.77460  0.09220  0.01600  Biso   1.000  C
  H56      1.0000 0.82810  0.13330  0.02820  Biso   1.000  H
  H57      1.0000 0.74950  0.11220  0.97700  Biso   1.000  H
  H58      1.0000 0.74560  0.07530  0.07170  Biso   1.000  H
  S16      1.0000 0.77550  0.01260  0.96620  Biso   1.000  S
  S17      1.0000 0.65600  0.93240  0.13900  Biso   1.000  S
  S18      1.0000 0.53000  0.85250  0.73580  Biso   1.000  S
  C56      1.0000 0.61900  0.99200  0.17080  Biso   1.000  C
  H59      1.0000 0.59820  0.00510  0.11930  Biso   1.000  H
  H60      1.0000 0.66060  0.03990  0.19720  Biso   1.000  H
  H61      1.0000 0.57730  0.96450  0.21390  Biso   1.000  H
  C57      1.0000 0.50100  0.92120  0.71800  Biso   1.000  C
  H62      1.0000 0.47930  0.91460  0.65880  Biso   1.000  H
  H63      1.0000 0.46070  0.91310  0.76140  Biso   1.000  H
  H64      1.0000 0.54560  0.97350  0.72470  Biso   1.000  H
  C58      1.0000 0.36910  0.82930  0.91400  Biso   1.000  C
  H65      1.0000 0.31290  0.79510  0.90580  Biso   1.000  H
  H66      1.0000 0.37890  0.85320  0.97240  Biso   1.000  H
  H67      1.0000 0.38910  0.87000  0.86910  Biso   1.000  H
  Eu2      1.0000 0.33949  0.78177  0.21252  Biso   1.000  Eu
  O17      1.0000 0.37770  0.86010  0.33900  Biso   1.000  O
  O18      1.0000 0.36860  0.79310  0.45900  Biso   1.000  O
  O19      1.0000 0.41660  0.74230  0.30110  Biso   1.000  O
  H68      1.0000 0.46550  0.78810  0.32350  Biso   1.000  H
  O20      1.0000 0.31540  0.66180  0.57500  Biso   1.000  O
  H69      1.0000 0.32930  0.69850  0.61150  Biso   1.000  H
  H70      1.0000 0.29270  0.62040  0.60440  Biso   1.000  H
  O21      1.0000 0.49520  0.75170  0.09660  Biso   1.000  O
  O22      1.0000 0.45640  0.83560  0.12920  Biso   1.000  O
  S19      1.0000 0.56098  0.90307  0.39451  Biso   1.000  S
  S20      1.0000 0.31759  0.93091  0.51310  Biso   1.000  S
  C59      1.0000 0.14510  0.53860  0.41660  Biso   1.000  C
  C60      1.0000 0.04180  0.57030  0.45480  Biso   1.000  C
  C61      1.0000 0.07000  0.51900  0.46220  Biso   1.000  C
  C62      1.0000 0.02920  0.44880  0.50630  Biso   1.000  C
  C63      1.0000 0.15290  0.72480  0.48090  Biso   1.000  C
  H71      1.0000 0.18450  0.77710  0.45630  Biso   1.000  H
  H72      1.0000 0.18700  0.70810  0.50800  Biso   1.000  H
  H73      1.0000 0.11760  0.72550  0.52550  Biso   1.000  H
  C64      1.0000 0.12190  0.41680  0.61080  Biso   1.000  C
  H74      1.0000 0.15610  0.39440  0.61500  Biso   1.000  H
  H75      1.0000 0.08590  0.39910  0.66070  Biso   1.000  H
  H76      1.0000 0.15340  0.47370  0.61160  Biso   1.000  H
  C65      1.0000 0.18760  0.68080  0.08540  Biso   1.000  C
  C66      1.0000 0.13320  0.67320  0.01420  Biso   1.000  C
  C67      1.0000 0.07540  0.69230  0.02720  Biso   1.000  C
  C68      1.0000 0.01960  0.67550  0.96260  Biso   1.000  C
  C69      1.0000 0.02170  0.63960  0.88500  Biso   1.000  C
  C70      1.0000 0.07960  0.62060  0.87200  Biso   1.000  C
  C71      1.0000 0.13530  0.63730  0.93660  Biso   1.000  C
  S21      1.0000 0.07790  0.74220  0.12260  Biso   1.000  S
  S22      1.0000 0.94080  0.69390  0.97950  Biso   1.000  S
  S23      1.0000 0.08330  0.57410  0.77420  Biso   1.000  S
  S24      1.0000 0.20940  0.61320  0.92680  Biso   1.000  S
  C72      1.0000 0.95330  0.61210  0.82330  Biso   1.000  C
  O23      1.0000 0.95170  0.65580  0.76640  Biso   1.000  O
  O24      1.0000 0.90540  0.54440  0.83210  Biso   1.000  O
  C73      1.0000 0.00730  0.66560  0.18920  Biso   1.000  C
  H77      1.0000 0.96040  0.63350  0.15440  Biso   1.000  H
  H78      1.0000 0.99410  0.68780  0.23930  Biso   1.000  H
  H79      1.0000 0.02870  0.63350  0.21050  Biso   1.000  H
  C74      1.0000 0.98380  0.79190  0.94500  Biso   1.000  C
  H80      1.0000 0.94610  0.80980  0.95050  Biso   1.000  H
  H81      1.0000 0.02960  0.82450  0.98100  Biso   1.000  H
  H82      1.0000 0.99970  0.79580  0.88300  Biso   1.000  H
  C75      1.0000 0.07190  0.62700  0.69040  Biso   1.000  C
  H83      1.0000 0.07290  0.60410  0.63350  Biso   1.000  H
  H84      1.0000 0.02130  0.62430  0.69720  Biso   1.000  H
  H85      1.0000 0.11350  0.68090  0.69300  Biso   1.000  H
  C76      1.0000 0.15600  0.51060  0.93570  Biso   1.000  C
  H86      1.0000 0.19170  0.49000  0.93110  Biso   1.000  H
  H87      1.0000 0.12930  0.49590  0.99260  Biso   1.000  H
  H88      1.0000 0.11750  0.48910  0.88830  Biso   1.000  H
  C77      1.0000 0.13590  0.68030  0.00730  Biso   1.000  C
  C78      1.0000 0.08580  0.70910  0.02220  Biso   1.000  C
  C79      1.0000 0.05300  0.72690  0.95160  Biso   1.000  C
  C80      1.0000 0.07020  0.71590  0.86620  Biso   1.000  C
  C81      1.0000 0.12040  0.68720  0.85120  Biso   1.000  C
  C82      1.0000 0.15310  0.66930  0.92180  Biso   1.000  C
  C83      1.0000 0.03730  0.73730  0.78400  Biso   1.000  C
  O25      1.0000 0.97040  0.68140  0.76500  Biso   1.000  O
  O26      1.0000 0.07470  0.79790  0.73780  Biso   1.000  O
  O27      1.0000 0.09900  0.46000  0.15000  Biso   1.000  O
  H89      1.0000 0.07100  0.47300  0.12000  Biso   1.000  H
  H90      1.0000 0.07500  0.41200  0.15200  Biso   1.000  H
  S25      1.0000 0.22530  0.64120  0.90490  Biso   1.000  S
  C84      1.0000 0.90780  0.68240  0.01600  Biso   1.000  C
  H91      1.0000 0.86670  0.69480  0.02820  Biso   1.000  H
  H92      1.0000 0.88780  0.63730  0.97700  Biso   1.000  H
  H93      1.0000 0.92470  0.67030  0.07170  Biso   1.000  H
  S26      1.0000 0.98740  0.76290  0.96620  Biso   1.000  S
  S27      1.0000 0.06760  0.72360  0.13900  Biso   1.000  S
  S28      1.0000 0.14750  0.67750  0.73580  Biso   1.000  S
  C85      1.0000 0.00800  0.62700  0.17080  Biso   1.000  C
  H94      1.0000 0.99490  0.59310  0.11930  Biso   1.000  H
  H95      1.0000 0.96010  0.62070  0.19720  Biso   1.000  H
  H96      1.0000 0.03550  0.61280  0.21390  Biso   1.000  H
  C86      1.0000 0.07880  0.57980  0.71800  Biso   1.000  C
  H97      1.0000 0.08540  0.56470  0.65880  Biso   1.000  H
  H98      1.0000 0.08690  0.54760  0.76140  Biso   1.000  H
  H99      1.0000 0.02650  0.57210  0.72470  Biso   1.000  H
  C87      1.0000 0.17070  0.53980  0.91400  Biso   1.000  C
  H100     1.0000 0.20490  0.51780  0.90580  Biso   1.000  H
  H101     1.0000 0.14680  0.52570  0.97240  Biso   1.000  H
  H102     1.0000 0.13000  0.51910  0.86910  Biso   1.000  H
  Eu3      1.0000 0.21823  0.55772  0.21252  Biso   1.000  Eu
  O28      1.0000 0.13990  0.51760  0.33900  Biso   1.000  O
  O29      1.0000 0.20690  0.57550  0.45900  Biso   1.000  O
  O30      1.0000 0.25770  0.67430  0.30110  Biso   1.000  O
  H103     1.0000 0.21190  0.67740  0.32350  Biso   1.000  H
  O31      1.0000 0.33820  0.65360  0.57500  Biso   1.000  O
  H104     1.0000 0.30150  0.63080  0.61150  Biso   1.000  H
  H105     1.0000 0.37960  0.67230  0.60440  Biso   1.000  H
  O32      1.0000 0.24830  0.74350  0.09660  Biso   1.000  O
  O33      1.0000 0.16440  0.62080  0.12920  Biso   1.000  O
  S29      1.0000 0.09693  0.65791  0.39451  Biso   1.000  S
  S30      1.0000 0.06909  0.38668  0.51310  Biso   1.000  S
  C88      1.0000 0.53860  0.39350  0.58340  Biso   1.000  C
  C89      1.0000 0.57030  0.52850  0.54520  Biso   1.000  C
  C90      1.0000 0.51900  0.44900  0.53780  Biso   1.000  C
  C91      1.0000 0.44880  0.41960  0.49370  Biso   1.000  C
  C92      1.0000 0.72480  0.57190  0.51910  Biso   1.000  C
  H106     1.0000 0.77710  0.59260  0.54370  Biso   1.000  H
  H107     1.0000 0.70810  0.52110  0.49200  Biso   1.000  H
  H108     1.0000 0.72550  0.60790  0.47450  Biso   1.000  H
  C93      1.0000 0.41680  0.29490  0.38920  Biso   1.000  C
  H109     1.0000 0.39440  0.23830  0.38500  Biso   1.000  H
  H110     1.0000 0.39910  0.31320  0.33930  Biso   1.000  H
  H111     1.0000 0.47370  0.32030  0.38840  Biso   1.000  H
  C94      1.0000 0.68080  0.49320  0.91460  Biso   1.000  C
  C95      1.0000 0.67320  0.54000  0.98580  Biso   1.000  C
  C96      1.0000 0.69230  0.61690  0.97280  Biso   1.000  C
  C97      1.0000 0.67550  0.65590  0.03740  Biso   1.000  C
  C98      1.0000 0.63960  0.61790  0.11500  Biso   1.000  C
  C99      1.0000 0.62060  0.54100  0.12800  Biso   1.000  C
  C100     1.0000 0.63730  0.50200  0.06340  Biso   1.000  C
  S31      1.0000 0.74220  0.66430  0.87740  Biso   1.000  S
  S32      1.0000 0.69390  0.75310  0.02050  Biso   1.000  S
  S33      1.0000 0.57410  0.49080  0.22580  Biso   1.000  S
  S34      1.0000 0.61320  0.40380  0.07320  Biso   1.000  S
  C101     1.0000 0.61210  0.65880  0.17670  Biso   1.000  C
  O34      1.0000 0.65580  0.70410  0.23360  Biso   1.000  O
  O35      1.0000 0.54440  0.63900  0.16790  Biso   1.000  O
  C102     1.0000 0.66560  0.65830  0.81080  Biso   1.000  C
  H112     1.0000 0.63350  0.67310  0.84560  Biso   1.000  H
  H113     1.0000 0.68780  0.69370  0.76070  Biso   1.000  H
  H114     1.0000 0.63350  0.60480  0.78950  Biso   1.000  H
  C103     1.0000 0.79190  0.80810  0.05500  Biso   1.000  C
  H115     1.0000 0.80980  0.86370  0.04950  Biso   1.000  H
  H116     1.0000 0.82450  0.79490  0.01900  Biso   1.000  H
  H117     1.0000 0.79580  0.79610  0.11700  Biso   1.000  H
  C104     1.0000 0.62700  0.55510  0.30960  Biso   1.000  C
  H118     1.0000 0.60410  0.53120  0.36650  Biso   1.000  H
  H119     1.0000 0.62430  0.60300  0.30280  Biso   1.000  H
  H120     1.0000 0.68090  0.56740  0.30700  Biso   1.000  H
  C105     1.0000 0.51060  0.35460  0.06430  Biso   1.000  C
  H121     1.0000 0.49000  0.29830  0.06890  Biso   1.000  H
  H122     1.0000 0.49590  0.36660  0.00740  Biso   1.000  H
  H123     1.0000 0.48910  0.37160  0.11170  Biso   1.000  H
  C106     1.0000 0.68030  0.54440  0.99270  Biso   1.000  C
  C107     1.0000 0.70910  0.62330  0.97780  Biso   1.000  C
  C108     1.0000 0.72690  0.67390  0.04840  Biso   1.000  C
  C109     1.0000 0.71590  0.64570  0.13380  Biso   1.000  C
  C110     1.0000 0.68720  0.56680  0.14880  Biso   1.000  C
  C111     1.0000 0.66930  0.51620  0.07820  Biso   1.000  C
  C112     1.0000 0.73730  0.70000  0.21600  Biso   1.000  C
  O36      1.0000 0.68140  0.71100  0.23500  Biso   1.000  O
  O37      1.0000 0.79790  0.72320  0.26220  Biso   1.000  O
  O38      1.0000 0.46000  0.36100  0.85000  Biso   1.000  O
  H124     1.0000 0.47300  0.40200  0.88000  Biso   1.000  H
  H125     1.0000 0.41200  0.33700  0.84800  Biso   1.000  H
  S35      1.0000 0.64120  0.41590  0.09510  Biso   1.000  S
  C113     1.0000 0.68240  0.77460  0.98400  Biso   1.000  C
  H126     1.0000 0.69480  0.82810  0.97180  Biso   1.000  H
  H127     1.0000 0.63730  0.74950  0.02300  Biso   1.000  H
  H128     1.0000 0.67030  0.74560  0.92830  Biso   1.000  H
  S36      1.0000 0.76290  0.77550  0.03380  Biso   1.000  S
  S37      1.0000 0.72360  0.65600  0.86100  Biso   1.000  S
  S38      1.0000 0.67750  0.53000  0.26420  Biso   1.000  S
  C114     1.0000 0.62700  0.61900  0.82920  Biso   1.000  C
  H129     1.0000 0.59310  0.59820  0.88070  Biso   1.000  H
  H130     1.0000 0.62070  0.66060  0.80280  Biso   1.000  H
  H131     1.0000 0.61280  0.57730  0.78610  Biso   1.000  H
  C115     1.0000 0.57980  0.50100  0.28200  Biso   1.000  C
  H132     1.0000 0.56470  0.47930  0.34120  Biso   1.000  H
  H133     1.0000 0.54760  0.46070  0.23860  Biso   1.000  H
  H134     1.0000 0.57210  0.54560  0.27530  Biso   1.000  H
  C116     1.0000 0.53980  0.36910  0.08600  Biso   1.000  C
  H135     1.0000 0.51780  0.31290  0.09420  Biso   1.000  H
  H136     1.0000 0.52570  0.37890  0.02760  Biso   1.000  H
  H137     1.0000 0.51910  0.38910  0.13090  Biso   1.000  H
  Eu4      1.0000 0.55772  0.33949  0.78748  Biso   1.000  Eu
  O39      1.0000 0.51760  0.37770  0.66100  Biso   1.000  O
  O40      1.0000 0.57550  0.36860  0.54100  Biso   1.000  O
  O41      1.0000 0.67430  0.41660  0.69890  Biso   1.000  O
  H138     1.0000 0.67740  0.46550  0.67650  Biso   1.000  H
  O42      1.0000 0.65360  0.31540  0.42500  Biso   1.000  O
  H139     1.0000 0.63080  0.32930  0.38850  Biso   1.000  H
  H140     1.0000 0.67230  0.29270  0.39560  Biso   1.000  H
  O43      1.0000 0.74350  0.49520  0.90340  Biso   1.000  O
  O44      1.0000 0.62080  0.45640  0.87080  Biso   1.000  O
  S39      1.0000 0.65791  0.56098  0.60549  Biso   1.000  S
  S40      1.0000 0.38668  0.31759  0.48690  Biso   1.000  S
  C117     1.0000 0.60650  0.14510  0.58340  Biso   1.000  C
  C118     1.0000 0.47150  0.04180  0.54520  Biso   1.000  C
  C119     1.0000 0.55100  0.07000  0.53780  Biso   1.000  C
  C120     1.0000 0.58040  0.02920  0.49370  Biso   1.000  C
  C121     1.0000 0.42810  0.15290  0.51910  Biso   1.000  C
  H141     1.0000 0.40740  0.18450  0.54370  Biso   1.000  H
  H142     1.0000 0.47890  0.18700  0.49200  Biso   1.000  H
  H143     1.0000 0.39210  0.11760  0.47450  Biso   1.000  H
  C122     1.0000 0.70510  0.12190  0.38920  Biso   1.000  C
  H144     1.0000 0.76170  0.15610  0.38500  Biso   1.000  H
  H145     1.0000 0.68680  0.08590  0.33930  Biso   1.000  H
  H146     1.0000 0.67970  0.15340  0.38840  Biso   1.000  H
  C123     1.0000 0.50680  0.18760  0.91460  Biso   1.000  C
  C124     1.0000 0.46000  0.13320  0.98580  Biso   1.000  C
  C125     1.0000 0.38310  0.07540  0.97280  Biso   1.000  C
  C126     1.0000 0.34410  0.01960  0.03740  Biso   1.000  C
  C127     1.0000 0.38210  0.02170  0.11500  Biso   1.000  C
  C128     1.0000 0.45900  0.07960  0.12800  Biso   1.000  C
  C129     1.0000 0.49800  0.13530  0.06340  Biso   1.000  C
  S41      1.0000 0.33570  0.07790  0.87740  Biso   1.000  S
  S42      1.0000 0.24690  0.94080  0.02050  Biso   1.000  S
  S43      1.0000 0.50920  0.08330  0.22580  Biso   1.000  S
  S44      1.0000 0.59620  0.20940  0.07320  Biso   1.000  S
  C130     1.0000 0.34120  0.95330  0.17670  Biso   1.000  C
  O45      1.0000 0.29590  0.95170  0.23360  Biso   1.000  O
  O46      1.0000 0.36100  0.90540  0.16790  Biso   1.000  O
  C131     1.0000 0.34170  0.00730  0.81080  Biso   1.000  C
  H147     1.0000 0.32690  0.96040  0.84560  Biso   1.000  H
  H148     1.0000 0.30630  0.99410  0.76070  Biso   1.000  H
  H149     1.0000 0.39520  0.02870  0.78950  Biso   1.000  H
  C132     1.0000 0.19190  0.98380  0.05500  Biso   1.000  C
  H150     1.0000 0.13630  0.94610  0.04950  Biso   1.000  H
  H151     1.0000 0.20510  0.02960  0.01900  Biso   1.000  H
  H152     1.0000 0.20390  0.99970  0.11700  Biso   1.000  H
  C133     1.0000 0.44490  0.07190  0.30960  Biso   1.000  C
  H153     1.0000 0.46880  0.07290  0.36650  Biso   1.000  H
  H154     1.0000 0.39700  0.02130  0.30280  Biso   1.000  H
  H155     1.0000 0.43260  0.11350  0.30700  Biso   1.000  H
  C134     1.0000 0.64540  0.15600  0.06430  Biso   1.000  C
  H156     1.0000 0.70170  0.19170  0.06890  Biso   1.000  H
  H157     1.0000 0.63340  0.12930  0.00740  Biso   1.000  H
  H158     1.0000 0.62840  0.11750  0.11170  Biso   1.000  H
  C135     1.0000 0.45560  0.13590  0.99270  Biso   1.000  C
  C136     1.0000 0.37670  0.08580  0.97780  Biso   1.000  C
  C137     1.0000 0.32610  0.05300  0.04840  Biso   1.000  C
  C138     1.0000 0.35430  0.07020  0.13380  Biso   1.000  C
  C139     1.0000 0.43320  0.12040  0.14880  Biso   1.000  C
  C140     1.0000 0.48380  0.15310  0.07820  Biso   1.000  C
  C141     1.0000 0.30000  0.03730  0.21600  Biso   1.000  C
  O47      1.0000 0.28900  0.97040  0.23500  Biso   1.000  O
  O48      1.0000 0.27680  0.07470  0.26220  Biso   1.000  O
  O49      1.0000 0.63900  0.09900  0.85000  Biso   1.000  O
  H159     1.0000 0.59800  0.07100  0.88000  Biso   1.000  H
  H160     1.0000 0.66300  0.07500  0.84800  Biso   1.000  H
  S45      1.0000 0.58410  0.22530  0.09510  Biso   1.000  S
  C142     1.0000 0.22540  0.90780  0.98400  Biso   1.000  C
  H161     1.0000 0.17190  0.86670  0.97180  Biso   1.000  H
  H162     1.0000 0.25050  0.88780  0.02300  Biso   1.000  H
  H163     1.0000 0.25440  0.92470  0.92830  Biso   1.000  H
  S46      1.0000 0.22450  0.98740  0.03380  Biso   1.000  S
  S47      1.0000 0.34400  0.06760  0.86100  Biso   1.000  S
  S48      1.0000 0.47000  0.14750  0.26420  Biso   1.000  S
  C143     1.0000 0.38100  0.00800  0.82920  Biso   1.000  C
  H164     1.0000 0.40180  0.99490  0.88070  Biso   1.000  H
  H165     1.0000 0.33940  0.96010  0.80280  Biso   1.000  H
  H166     1.0000 0.42270  0.03550  0.78610  Biso   1.000  H
  C144     1.0000 0.49900  0.07880  0.28200  Biso   1.000  C
  H167     1.0000 0.52070  0.08540  0.34120  Biso   1.000  H
  H168     1.0000 0.53930  0.08690  0.23860  Biso   1.000  H
  H169     1.0000 0.45440  0.02650  0.27530  Biso   1.000  H
  C145     1.0000 0.63090  0.17070  0.08600  Biso   1.000  C
  H170     1.0000 0.68710  0.20490  0.09420  Biso   1.000  H
  H171     1.0000 0.62110  0.14680  0.02760  Biso   1.000  H
  H172     1.0000 0.61090  0.13000  0.13090  Biso   1.000  H
  Eu5      1.0000 0.66051  0.21823  0.78748  Biso   1.000  Eu
  O50      1.0000 0.62230  0.13990  0.66100  Biso   1.000  O
  O51      1.0000 0.63140  0.20690  0.54100  Biso   1.000  O
  O52      1.0000 0.58340  0.25770  0.69890  Biso   1.000  O
  H173     1.0000 0.53450  0.21190  0.67650  Biso   1.000  H
  O53      1.0000 0.68460  0.33820  0.42500  Biso   1.000  O
  H174     1.0000 0.67070  0.30150  0.38850  Biso   1.000  H
  H175     1.0000 0.70730  0.37960  0.39560  Biso   1.000  H
  O54      1.0000 0.50480  0.24830  0.90340  Biso   1.000  O
  O55      1.0000 0.54360  0.16440  0.87080  Biso   1.000  O
  S49      1.0000 0.43902  0.09693  0.60549  Biso   1.000  S
  S50      1.0000 0.68241  0.06909  0.48690  Biso   1.000  S
  C146     1.0000 0.85490  0.46140  0.58340  Biso   1.000  C
  C147     1.0000 0.95820  0.42970  0.54520  Biso   1.000  C
  C148     1.0000 0.93000  0.48100  0.53780  Biso   1.000  C
  C149     1.0000 0.97080  0.55120  0.49370  Biso   1.000  C
  C150     1.0000 0.84710  0.27520  0.51910  Biso   1.000  C
  H176     1.0000 0.81550  0.22290  0.54370  Biso   1.000  H
  H177     1.0000 0.81300  0.29190  0.49200  Biso   1.000  H
  H178     1.0000 0.88240  0.27450  0.47450  Biso   1.000  H
  C151     1.0000 0.87810  0.58320  0.38920  Biso   1.000  C
  H179     1.0000 0.84390  0.60560  0.38500  Biso   1.000  H
  H180     1.0000 0.91410  0.60090  0.33930  Biso   1.000  H
  H181     1.0000 0.84660  0.52630  0.38840  Biso   1.000  H
  C152     1.0000 0.81240  0.31920  0.91460  Biso   1.000  C
  C153     1.0000 0.86680  0.32680  0.98580  Biso   1.000  C
  C154     1.0000 0.92460  0.30770  0.97280  Biso   1.000  C
  C155     1.0000 0.98040  0.32450  0.03740  Biso   1.000  C
  C156     1.0000 0.97830  0.36040  0.11500  Biso   1.000  C
  C157     1.0000 0.92040  0.37940  0.12800  Biso   1.000  C
  C158     1.0000 0.86470  0.36270  0.06340  Biso   1.000  C
  S51      1.0000 0.92210  0.25780  0.87740  Biso   1.000  S
  S52      1.0000 0.05920  0.30610  0.02050  Biso   1.000  S
  S53      1.0000 0.91670  0.42590  0.22580  Biso   1.000  S
  S54      1.0000 0.79060  0.38680  0.07320  Biso   1.000  S
  C159     1.0000 0.04670  0.38790  0.17670  Biso   1.000  C
  O56      1.0000 0.04830  0.34420  0.23360  Biso   1.000  O
  O57      1.0000 0.09460  0.45560  0.16790  Biso   1.000  O
  C160     1.0000 0.99270  0.33440  0.81080  Biso   1.000  C
  H182     1.0000 0.03960  0.36650  0.84560  Biso   1.000  H
  H183     1.0000 0.00590  0.31220  0.76070  Biso   1.000  H
  H184     1.0000 0.97130  0.36650  0.78950  Biso   1.000  H
  C161     1.0000 0.01620  0.20810  0.05500  Biso   1.000  C
  H185     1.0000 0.05390  0.19020  0.04950  Biso   1.000  H
  H186     1.0000 0.97040  0.17550  0.01900  Biso   1.000  H
  H187     1.0000 0.00030  0.20420  0.11700  Biso   1.000  H
  C162     1.0000 0.92810  0.37300  0.30960  Biso   1.000  C
  H188     1.0000 0.92710  0.39590  0.36650  Biso   1.000  H
  H189     1.0000 0.97870  0.37570  0.30280  Biso   1.000  H
  H190     1.0000 0.88650  0.31910  0.30700  Biso   1.000  H
  C163     1.0000 0.84400  0.48940  0.06430  Biso   1.000  C
  H191     1.0000 0.80830  0.51000  0.06890  Biso   1.000  H
  H192     1.0000 0.87070  0.50410  0.00740  Biso   1.000  H
  H193     1.0000 0.88250  0.51090  0.11170  Biso   1.000  H
  C164     1.0000 0.86410  0.31970  0.99270  Biso   1.000  C
  C165     1.0000 0.91420  0.29090  0.97780  Biso   1.000  C
  C166     1.0000 0.94700  0.27310  0.04840  Biso   1.000  C
  C167     1.0000 0.92980  0.28410  0.13380  Biso   1.000  C
  C168     1.0000 0.87960  0.31280  0.14880  Biso   1.000  C
  C169     1.0000 0.84690  0.33070  0.07820  Biso   1.000  C
  C170     1.0000 0.96270  0.26270  0.21600  Biso   1.000  C
  O58      1.0000 0.02960  0.31860  0.23500  Biso   1.000  O
  O59      1.0000 0.92530  0.20210  0.26220  Biso   1.000  O
  O60      1.0000 0.90100  0.54000  0.85000  Biso   1.000  O
  H194     1.0000 0.92900  0.52700  0.88000  Biso   1.000  H
  H195     1.0000 0.92500  0.58800  0.84800  Biso   1.000  H
  S55      1.0000 0.77470  0.35880  0.09510  Biso   1.000  S
  C171     1.0000 0.09220  0.31760  0.98400  Biso   1.000  C
  H196     1.0000 0.13330  0.30520  0.97180  Biso   1.000  H
  H197     1.0000 0.11220  0.36270  0.02300  Biso   1.000  H
  H198     1.0000 0.07530  0.32970  0.92830  Biso   1.000  H
  S56      1.0000 0.01260  0.23710  0.03380  Biso   1.000  S
  S57      1.0000 0.93240  0.27640  0.86100  Biso   1.000  S
  S58      1.0000 0.85250  0.32250  0.26420  Biso   1.000  S
  C172     1.0000 0.99200  0.37300  0.82920  Biso   1.000  C
  H199     1.0000 0.00510  0.40690  0.88070  Biso   1.000  H
  H200     1.0000 0.03990  0.37930  0.80280  Biso   1.000  H
  H201     1.0000 0.96450  0.38720  0.78610  Biso   1.000  H
  C173     1.0000 0.92120  0.42020  0.28200  Biso   1.000  C
  H202     1.0000 0.91460  0.43530  0.34120  Biso   1.000  H
  H203     1.0000 0.91310  0.45240  0.23860  Biso   1.000  H
  H204     1.0000 0.97350  0.42790  0.27530  Biso   1.000  H
  C174     1.0000 0.82930  0.46020  0.08600  Biso   1.000  C
  H205     1.0000 0.79510  0.48220  0.09420  Biso   1.000  H
  H206     1.0000 0.85320  0.47430  0.02760  Biso   1.000  H
  H207     1.0000 0.87000  0.48090  0.13090  Biso   1.000  H
  Eu6      1.0000 0.78177  0.44228  0.78748  Biso   1.000  Eu
  O61      1.0000 0.86010  0.48240  0.66100  Biso   1.000  O
  O62      1.0000 0.79310  0.42450  0.54100  Biso   1.000  O
  O63      1.0000 0.74230  0.32570  0.69890  Biso   1.000  O
  H208     1.0000 0.78810  0.32260  0.67650  Biso   1.000  H
  O64      1.0000 0.66180  0.34640  0.42500  Biso   1.000  O
  H209     1.0000 0.69850  0.36920  0.38850  Biso   1.000  H
  H210     1.0000 0.62040  0.32770  0.39560  Biso   1.000  H
  O65      1.0000 0.75170  0.25650  0.90340  Biso   1.000  O
  O66      1.0000 0.83560  0.37920  0.87080  Biso   1.000  O
  S59      1.0000 0.90307  0.34209  0.60549  Biso   1.000  S
  S60      1.0000 0.93091  0.61332  0.48690  Biso   1.000  S
  Eu7      1.0000 0.33333  0.66667  0.41665  Biso   1.000  Eu
  O67      1.0000 0.33333  0.66667  0.15200  Biso   1.000  O
  H211     1.0000 0.33333  0.66667  0.08630  Biso   1.000  H
  Eu8      1.0000 0.66667  0.33333  0.58335  Biso   1.000  Eu
  O68      1.0000 0.66667  0.33333  0.84800  Biso   1.000  O
  H212     1.0000 0.66667  0.33333  0.91370  Biso   1.000  H
