data_image0
_cell_length_a       10.1085
_cell_length_b       18.918
_cell_length_c       11.0438
_cell_angle_alpha    90
_cell_angle_beta     110.984
_cell_angle_gamma    90

_symmetry_space_group_name_H-M    "P 1"
_symmetry_int_tables_number       1

loop_
  _symmetry_equiv_pos_as_xyz
  'x, y, z'

loop_
  _atom_site_label
  _atom_site_occupancy
  _atom_site_fract_x
  _atom_site_fract_y
  _atom_site_fract_z
  _atom_site_thermal_displace_type
  _atom_site_B_iso_or_equiv
  _atom_site_type_symbol
  Cd1      1.0000 0.66494  0.06026  0.06119  Biso   1.000  Cd
  O1       1.0000 0.55680  0.11600  0.18580  Biso   1.000  O
  O2       1.0000 0.40500  0.03980  0.06590  Biso   1.000  O
  O3       1.0000 0.70190  0.17660  0.91830  Biso   1.000  O
  O4       1.0000 0.55580  0.10370  0.85460  Biso   1.000  O
  O5       1.0000 0.59030  0.19990  0.97170  Biso   1.000  O
  O6       1.0000 0.51090  0.12150  0.88900  Biso   1.000  O
  O7       1.0000 0.90340  0.04970  0.08670  Biso   1.000  O
  O8       1.0000 0.86090  0.14050  0.18780  Biso   1.000  O
  C1       1.0000 0.94670  0.09920  0.15950  Biso   1.000  C
  C2       1.0000 0.10170  0.11520  0.21970  Biso   1.000  C
  C3       1.0000 0.19390  0.08940  0.16300  Biso   1.000  C
  H1       1.0000 0.16020  0.06070  0.08990  Biso   1.000  H
  C4       1.0000 0.15170  0.15620  0.33190  Biso   1.000  C
  H2       1.0000 0.08900  0.17320  0.36930  Biso   1.000  H
  C5       1.0000 0.29500  0.17130  0.38740  Biso   1.000  C
  C6       1.0000 0.38690  0.14710  0.32850  Biso   1.000  C
  H3       1.0000 0.48280  0.15810  0.36460  Biso   1.000  H
  C7       1.0000 0.33690  0.10660  0.21570  Biso   1.000  C
  C8       1.0000 0.35410  0.21370  0.50980  Biso   1.000  C
  C9       1.0000 0.42200  0.17740  0.62720  Biso   1.000  C
  H4       1.0000 0.42120  0.12820  0.62680  Biso   1.000  H
  C10      1.0000 0.49030  0.21250  0.74400  Biso   1.000  C
  C11      1.0000 0.56180  0.16880  0.86310  Biso   1.000  C
  C12      1.0000 0.43900  0.08490  0.15110  Biso   1.000  C
  Cd2      1.0000 0.33506  0.56026  0.93881  Biso   1.000  Cd
  O9       1.0000 0.44320  0.61600  0.81420  Biso   1.000  O
  O10      1.0000 0.59500  0.53980  0.93410  Biso   1.000  O
  O11      1.0000 0.29810  0.67660  0.08170  Biso   1.000  O
  O12      1.0000 0.44420  0.60370  0.14540  Biso   1.000  O
  O13      1.0000 0.40970  0.69990  0.02830  Biso   1.000  O
  O14      1.0000 0.48910  0.62150  0.11100  Biso   1.000  O
  O15      1.0000 0.09660  0.54970  0.91330  Biso   1.000  O
  O16      1.0000 0.13910  0.64050  0.81220  Biso   1.000  O
  C13      1.0000 0.05330  0.59920  0.84050  Biso   1.000  C
  C14      1.0000 0.89830  0.61520  0.78030  Biso   1.000  C
  C15      1.0000 0.80610  0.58940  0.83700  Biso   1.000  C
  H5       1.0000 0.83980  0.56070  0.91010  Biso   1.000  H
  C16      1.0000 0.84830  0.65620  0.66810  Biso   1.000  C
  H6       1.0000 0.91100  0.67320  0.63070  Biso   1.000  H
  C17      1.0000 0.70500  0.67130  0.61260  Biso   1.000  C
  C18      1.0000 0.61310  0.64710  0.67150  Biso   1.000  C
  H7       1.0000 0.51720  0.65810  0.63540  Biso   1.000  H
  C19      1.0000 0.66310  0.60660  0.78430  Biso   1.000  C
  C20      1.0000 0.64590  0.71370  0.49020  Biso   1.000  C
  C21      1.0000 0.57800  0.67740  0.37280  Biso   1.000  C
  H8       1.0000 0.57880  0.62820  0.37320  Biso   1.000  H
  C22      1.0000 0.50970  0.71250  0.25600  Biso   1.000  C
  C23      1.0000 0.43820  0.66880  0.13690  Biso   1.000  C
  C24      1.0000 0.56100  0.58490  0.84890  Biso   1.000  C
  Cd3      1.0000 0.33506  0.93974  0.93881  Biso   1.000  Cd
  O17      1.0000 0.44320  0.88400  0.81420  Biso   1.000  O
  O18      1.0000 0.59500  0.96020  0.93410  Biso   1.000  O
  O19      1.0000 0.29810  0.82340  0.08170  Biso   1.000  O
  O20      1.0000 0.44420  0.89630  0.14540  Biso   1.000  O
  O21      1.0000 0.40970  0.80010  0.02830  Biso   1.000  O
  O22      1.0000 0.48910  0.87850  0.11100  Biso   1.000  O
  O23      1.0000 0.09660  0.95030  0.91330  Biso   1.000  O
  O24      1.0000 0.13910  0.85950  0.81220  Biso   1.000  O
  C25      1.0000 0.05330  0.90080  0.84050  Biso   1.000  C
  C26      1.0000 0.89830  0.88480  0.78030  Biso   1.000  C
  C27      1.0000 0.80610  0.91060  0.83700  Biso   1.000  C
  H9       1.0000 0.83980  0.93930  0.91010  Biso   1.000  H
  C28      1.0000 0.84830  0.84380  0.66810  Biso   1.000  C
  H10      1.0000 0.91100  0.82680  0.63070  Biso   1.000  H
  C29      1.0000 0.70500  0.82870  0.61260  Biso   1.000  C
  C30      1.0000 0.61310  0.85290  0.67150  Biso   1.000  C
  H11      1.0000 0.51720  0.84190  0.63540  Biso   1.000  H
  C31      1.0000 0.66310  0.89340  0.78430  Biso   1.000  C
  C32      1.0000 0.64590  0.78630  0.49020  Biso   1.000  C
  C33      1.0000 0.57800  0.82260  0.37280  Biso   1.000  C
  H12      1.0000 0.57880  0.87180  0.37320  Biso   1.000  H
  C34      1.0000 0.50970  0.78750  0.25600  Biso   1.000  C
  C35      1.0000 0.43820  0.83120  0.13690  Biso   1.000  C
  C36      1.0000 0.56100  0.91510  0.84890  Biso   1.000  C
  Cd4      1.0000 0.66494  0.43974  0.06119  Biso   1.000  Cd
  O25      1.0000 0.55680  0.38400  0.18580  Biso   1.000  O
  O26      1.0000 0.40500  0.46020  0.06590  Biso   1.000  O
  O27      1.0000 0.70190  0.32340  0.91830  Biso   1.000  O
  O28      1.0000 0.55580  0.39630  0.85460  Biso   1.000  O
  O29      1.0000 0.59030  0.30010  0.97170  Biso   1.000  O
  O30      1.0000 0.51090  0.37850  0.88900  Biso   1.000  O
  O31      1.0000 0.90340  0.45030  0.08670  Biso   1.000  O
  O32      1.0000 0.86090  0.35950  0.18780  Biso   1.000  O
  C37      1.0000 0.94670  0.40080  0.15950  Biso   1.000  C
  C38      1.0000 0.10170  0.38480  0.21970  Biso   1.000  C
  C39      1.0000 0.19390  0.41060  0.16300  Biso   1.000  C
  H13      1.0000 0.16020  0.43930  0.08990  Biso   1.000  H
  C40      1.0000 0.15170  0.34380  0.33190  Biso   1.000  C
  H14      1.0000 0.08900  0.32680  0.36930  Biso   1.000  H
  C41      1.0000 0.29500  0.32870  0.38740  Biso   1.000  C
  C42      1.0000 0.38690  0.35290  0.32850  Biso   1.000  C
  H15      1.0000 0.48280  0.34190  0.36460  Biso   1.000  H
  C43      1.0000 0.33690  0.39340  0.21570  Biso   1.000  C
  C44      1.0000 0.35410  0.28630  0.50980  Biso   1.000  C
  C45      1.0000 0.42200  0.32260  0.62720  Biso   1.000  C
  H16      1.0000 0.42120  0.37180  0.62680  Biso   1.000  H
  C46      1.0000 0.49030  0.28750  0.74400  Biso   1.000  C
  C47      1.0000 0.56180  0.33120  0.86310  Biso   1.000  C
  C48      1.0000 0.43900  0.41510  0.15110  Biso   1.000  C
  Cd5      1.0000 0.79802  0.25000  0.09910  Biso   1.000  Cd
  Cd6      1.0000 0.20198  0.75000  0.90090  Biso   1.000  Cd
