data_image0
_cell_length_a       12.398
_cell_length_b       33.496
_cell_length_c       12.868
_cell_angle_alpha    90
_cell_angle_beta     96.64
_cell_angle_gamma    90

_symmetry_space_group_name_H-M    "P 1"
_symmetry_int_tables_number       1

loop_
  _symmetry_equiv_pos_as_xyz
  'x, y, z'

loop_
  _atom_site_label
  _atom_site_occupancy
  _atom_site_fract_x
  _atom_site_fract_y
  _atom_site_fract_z
  _atom_site_thermal_displace_type
  _atom_site_B_iso_or_equiv
  _atom_site_type_symbol
  Fe1      1.0000 0.69786  0.06952  0.60443  Biso   1.000  Fe
  C1       1.0000 0.79150  0.15021  0.73260  Biso   1.000  C
  H1       1.0000 0.73170  0.15670  0.67730  Biso   1.000  H
  H2       1.0000 0.81640  0.17540  0.76790  Biso   1.000  H
  N1       1.0000 0.69650  0.08985  0.77170  Biso   1.000  N
  N2       1.0000 0.75150  0.12308  0.80870  Biso   1.000  N
  C2       1.0000 0.75800  0.12560  0.91250  Biso   1.000  C
  C3       1.0000 0.70390  0.09340  0.94680  Biso   1.000  C
  C4       1.0000 0.66730  0.07123  0.85630  Biso   1.000  C
  C5       1.0000 0.60670  0.03280  0.84670  Biso   1.000  C
  H3       1.0000 0.55610  0.03300  0.78230  Biso   1.000  H
  H4       1.0000 0.56600  0.02950  0.90700  Biso   1.000  H
  H5       1.0000 0.65810  0.01070  0.84440  Biso   1.000  H
  C6       1.0000 0.81620  0.16030  0.97200  Biso   1.000  C
  H6       1.0000 0.79330  0.18550  0.93770  Biso   1.000  H
  H7       1.0000 0.89490  0.15710  0.97250  Biso   1.000  H
  H8       1.0000 0.79800  0.16050  0.04410  Biso   1.000  H
  C7       1.0000 0.69080  0.08320  0.05650  Biso   1.000  C
  C8       1.0000 0.67850  0.11110  0.12810  Biso   1.000  C
  H9       1.0000 0.67920  0.13840  0.10760  Biso   1.000  H
  C9       1.0000 0.76430  0.08970  0.12890  Biso   1.000  C
  H10      1.0000 0.82790  0.10370  0.11550  Biso   1.000  H
  C10      1.0000 0.66460  0.10230  0.23170  Biso   1.000  C
  H11      1.0000 0.65520  0.12310  0.28010  Biso   1.000  H
  C11      1.0000 0.75300  0.07640  0.22960  Biso   1.000  C
  H12      1.0000 0.81610  0.07740  0.27910  Biso   1.000  H
  C12      1.0000 0.66460  0.06257  0.26300  Biso   1.000  C
  C13      1.0000 0.68650  0.03340  0.19790  Biso   1.000  C
  H13      1.0000 0.69070  0.00650  0.22170  Biso   1.000  H
  C14      1.0000 0.56770  0.05950  0.17910  Biso   1.000  C
  H14      1.0000 0.49980  0.05020  0.19680  Biso   1.000  H
  C15      1.0000 0.70330  0.04230  0.09400  Biso   1.000  C
  H15      1.0000 0.72280  0.02180  0.04880  Biso   1.000  H
  C16      1.0000 0.57900  0.07050  0.07560  Biso   1.000  C
  H16      1.0000 0.52000  0.06980  0.02160  Biso   1.000  H
  C17      1.0000 0.65130  0.05323  0.37350  Biso   1.000  C
  O1       1.0000 0.69500  0.07557  0.44310  Biso   1.000  O
  O2       1.0000 0.60240  0.02273  0.39320  Biso   1.000  O
  N3       1.0000 0.85810  0.10005  0.62370  Biso   1.000  N
  N4       1.0000 0.88080  0.13215  0.68530  Biso   1.000  N
  C18      1.0000 0.98690  0.14015  0.69910  Biso   1.000  C
  C19      1.0000 0.03710  0.11200  0.64300  Biso   1.000  C
  C20      1.0000 0.95180  0.08719  0.59770  Biso   1.000  C
  C21      1.0000 0.03500  0.17490  0.76220  Biso   1.000  C
  H17      1.0000 0.11120  0.17820  0.75020  Biso   1.000  H
  H18      1.0000 0.03090  0.16990  0.83660  Biso   1.000  H
  H19      1.0000 0.99450  0.19920  0.74080  Biso   1.000  H
  C22      1.0000 0.96010  0.05210  0.52840  Biso   1.000  C
  H20      1.0000 0.96890  0.02780  0.57080  Biso   1.000  H
  H21      1.0000 0.02300  0.05540  0.48950  Biso   1.000  H
  H22      1.0000 0.89390  0.05010  0.47910  Biso   1.000  H
  C23      1.0000 0.15230  0.10800  0.63140  Biso   1.000  C
  C24      1.0000 0.21220  0.13960  0.60170  Biso   1.000  C
  H23      1.0000 0.17910  0.16500  0.58840  Biso   1.000  H
  C25      1.0000 0.32320  0.13430  0.59100  Biso   1.000  C
  H24      1.0000 0.36480  0.15640  0.57220  Biso   1.000  H
  C26      1.0000 0.37180  0.09810  0.60690  Biso   1.000  C
  C27      1.0000 0.31050  0.06560  0.63610  Biso   1.000  C
  H25      1.0000 0.34300  0.04000  0.64640  Biso   1.000  H
  C28      1.0000 0.20280  0.07110  0.64980  Biso   1.000  C
  H26      1.0000 0.16220  0.04930  0.67220  Biso   1.000  H
  C29      1.0000 0.48850  0.09141  0.59510  Biso   1.000  C
  O3       1.0000 0.52540  0.05596  0.59470  Biso   1.000  O
  O4       1.0000 0.55080  0.12109  0.58920  Biso   1.000  O
  N5       1.0000 0.11320  0.79391  0.73580  Biso   1.000  N
  N6       1.0000 0.04900  0.78510  0.81600  Biso   1.000  N
  C30      1.0000 0.97450  0.81370  0.82260  Biso   1.000  C
  C31      1.0000 0.98780  0.84170  0.74920  Biso   1.000  C
  C32      1.0000 0.07470  0.82800  0.69350  Biso   1.000  C
  C33      1.0000 0.11200  0.84820  0.60490  Biso   1.000  C
  H27      1.0000 0.17800  0.86330  0.62820  Biso   1.000  H
  H28      1.0000 0.05550  0.86640  0.57400  Biso   1.000  H
  H29      1.0000 0.12780  0.82840  0.55260  Biso   1.000  H
  C34      1.0000 0.89170  0.81260  0.90060  Biso   1.000  C
  H30      1.0000 0.85340  0.83820  0.89950  Biso   1.000  H
  H31      1.0000 0.92890  0.80770  0.97090  Biso   1.000  H
  H32      1.0000 0.83940  0.79110  0.88170  Biso   1.000  H
  C35      1.0000 0.92080  0.87730  0.72420  Biso   1.000  C
  C36      1.0000 0.80900  0.87340  0.68810  Biso   1.000  C
  H33      1.0000 0.77570  0.84780  0.68280  Biso   1.000  H
  C37      1.0000 0.74750  0.90810  0.66010  Biso   1.000  C
  H34      1.0000 0.67310  0.90570  0.63350  Biso   1.000  H
  C38      1.0000 0.79290  0.94467  0.67070  Biso   1.000  C
  C39      1.0000 0.89620  0.94880  0.71360  Biso   1.000  C
  H35      1.0000 0.92570  0.97480  0.72540  Biso   1.000  H
  C40      1.0000 0.96080  0.91560  0.74130  Biso   1.000  C
  H36      1.0000 0.03350  0.91930  0.77230  Biso   1.000  H
  C41      1.0000 0.72490  0.98022  0.63350  Biso   1.000  C
  O5       1.0000 0.62910  0.97401  0.59570  Biso   1.000  O
  O6       1.0000 0.76500  0.01371  0.64630  Biso   1.000  O
  Fe2      1.0000 0.30214  0.56952  0.39557  Biso   1.000  Fe
  C42      1.0000 0.20850  0.65021  0.26740  Biso   1.000  C
  H37      1.0000 0.26830  0.65670  0.32270  Biso   1.000  H
  H38      1.0000 0.18360  0.67540  0.23210  Biso   1.000  H
  N7       1.0000 0.30350  0.58985  0.22830  Biso   1.000  N
  N8       1.0000 0.24850  0.62308  0.19130  Biso   1.000  N
  C43      1.0000 0.24200  0.62560  0.08750  Biso   1.000  C
  C44      1.0000 0.29610  0.59340  0.05320  Biso   1.000  C
  C45      1.0000 0.33270  0.57123  0.14370  Biso   1.000  C
  C46      1.0000 0.39330  0.53280  0.15330  Biso   1.000  C
  H39      1.0000 0.44390  0.53300  0.21770  Biso   1.000  H
  H40      1.0000 0.43400  0.52950  0.09300  Biso   1.000  H
  H41      1.0000 0.34190  0.51070  0.15560  Biso   1.000  H
  C47      1.0000 0.18380  0.66030  0.02800  Biso   1.000  C
  H42      1.0000 0.20670  0.68550  0.06230  Biso   1.000  H
  H43      1.0000 0.10510  0.65710  0.02750  Biso   1.000  H
  H44      1.0000 0.20200  0.66050  0.95590  Biso   1.000  H
  C48      1.0000 0.30920  0.58320  0.94350  Biso   1.000  C
  C49      1.0000 0.32150  0.61110  0.87190  Biso   1.000  C
  H45      1.0000 0.32080  0.63840  0.89240  Biso   1.000  H
  C50      1.0000 0.23570  0.58970  0.87110  Biso   1.000  C
  H46      1.0000 0.17210  0.60370  0.88450  Biso   1.000  H
  C51      1.0000 0.33540  0.60230  0.76830  Biso   1.000  C
  H47      1.0000 0.34480  0.62310  0.71990  Biso   1.000  H
  C52      1.0000 0.24700  0.57640  0.77040  Biso   1.000  C
  H48      1.0000 0.18390  0.57740  0.72090  Biso   1.000  H
  C53      1.0000 0.33540  0.56257  0.73700  Biso   1.000  C
  C54      1.0000 0.31350  0.53340  0.80210  Biso   1.000  C
  H49      1.0000 0.30930  0.50650  0.77830  Biso   1.000  H
  C55      1.0000 0.43230  0.55950  0.82090  Biso   1.000  C
  H50      1.0000 0.50020  0.55020  0.80320  Biso   1.000  H
  C56      1.0000 0.29670  0.54230  0.90600  Biso   1.000  C
  H51      1.0000 0.27720  0.52180  0.95120  Biso   1.000  H
  C57      1.0000 0.42100  0.57050  0.92440  Biso   1.000  C
  H52      1.0000 0.48000  0.56980  0.97840  Biso   1.000  H
  C58      1.0000 0.34870  0.55323  0.62650  Biso   1.000  C
  O7       1.0000 0.30500  0.57557  0.55690  Biso   1.000  O
  O8       1.0000 0.39760  0.52273  0.60680  Biso   1.000  O
  N9       1.0000 0.14190  0.60005  0.37630  Biso   1.000  N
  N10      1.0000 0.11920  0.63215  0.31470  Biso   1.000  N
  C59      1.0000 0.01310  0.64015  0.30090  Biso   1.000  C
  C60      1.0000 0.96290  0.61200  0.35700  Biso   1.000  C
  C61      1.0000 0.04820  0.58719  0.40230  Biso   1.000  C
  C62      1.0000 0.96500  0.67490  0.23780  Biso   1.000  C
  H53      1.0000 0.88880  0.67820  0.24980  Biso   1.000  H
  H54      1.0000 0.96910  0.66990  0.16340  Biso   1.000  H
  H55      1.0000 0.00550  0.69920  0.25920  Biso   1.000  H
  C63      1.0000 0.03990  0.55210  0.47160  Biso   1.000  C
  H56      1.0000 0.03110  0.52780  0.42920  Biso   1.000  H
  H57      1.0000 0.97700  0.55540  0.51050  Biso   1.000  H
  H58      1.0000 0.10610  0.55010  0.52090  Biso   1.000  H
  C64      1.0000 0.84770  0.60800  0.36860  Biso   1.000  C
  C65      1.0000 0.78780  0.63960  0.39830  Biso   1.000  C
  H59      1.0000 0.82090  0.66500  0.41160  Biso   1.000  H
  C66      1.0000 0.67680  0.63430  0.40900  Biso   1.000  C
  H60      1.0000 0.63520  0.65640  0.42780  Biso   1.000  H
  C67      1.0000 0.62820  0.59810  0.39310  Biso   1.000  C
  C68      1.0000 0.68950  0.56560  0.36390  Biso   1.000  C
  H61      1.0000 0.65700  0.54000  0.35360  Biso   1.000  H
  C69      1.0000 0.79720  0.57110  0.35020  Biso   1.000  C
  H62      1.0000 0.83780  0.54930  0.32780  Biso   1.000  H
  C70      1.0000 0.51150  0.59141  0.40490  Biso   1.000  C
  O9       1.0000 0.47460  0.55596  0.40530  Biso   1.000  O
  O10      1.0000 0.44920  0.62109  0.41080  Biso   1.000  O
  N11      1.0000 0.88680  0.29391  0.26420  Biso   1.000  N
  N12      1.0000 0.95100  0.28510  0.18400  Biso   1.000  N
  C71      1.0000 0.02550  0.31370  0.17740  Biso   1.000  C
  C72      1.0000 0.01220  0.34170  0.25080  Biso   1.000  C
  C73      1.0000 0.92530  0.32800  0.30650  Biso   1.000  C
  C74      1.0000 0.88800  0.34820  0.39510  Biso   1.000  C
  H63      1.0000 0.82200  0.36330  0.37180  Biso   1.000  H
  H64      1.0000 0.94450  0.36640  0.42600  Biso   1.000  H
  H65      1.0000 0.87220  0.32840  0.44740  Biso   1.000  H
  C75      1.0000 0.10830  0.31260  0.09940  Biso   1.000  C
  H66      1.0000 0.14660  0.33820  0.10050  Biso   1.000  H
  H67      1.0000 0.07110  0.30770  0.02910  Biso   1.000  H
  H68      1.0000 0.16060  0.29110  0.11830  Biso   1.000  H
  C76      1.0000 0.07920  0.37730  0.27580  Biso   1.000  C
  C77      1.0000 0.19100  0.37340  0.31190  Biso   1.000  C
  H69      1.0000 0.22430  0.34780  0.31720  Biso   1.000  H
  C78      1.0000 0.25250  0.40810  0.33990  Biso   1.000  C
  H70      1.0000 0.32690  0.40570  0.36650  Biso   1.000  H
  C79      1.0000 0.20710  0.44467  0.32930  Biso   1.000  C
  C80      1.0000 0.10380  0.44880  0.28640  Biso   1.000  C
  H71      1.0000 0.07430  0.47480  0.27460  Biso   1.000  H
  C81      1.0000 0.03920  0.41560  0.25870  Biso   1.000  C
  H72      1.0000 0.96650  0.41930  0.22770  Biso   1.000  H
  C82      1.0000 0.27510  0.48022  0.36650  Biso   1.000  C
  O11      1.0000 0.37090  0.47401  0.40430  Biso   1.000  O
  O12      1.0000 0.23500  0.51371  0.35370  Biso   1.000  O
  Fe3      1.0000 0.30214  0.93048  0.39557  Biso   1.000  Fe
  C83      1.0000 0.20850  0.84979  0.26740  Biso   1.000  C
  H73      1.0000 0.26830  0.84330  0.32270  Biso   1.000  H
  H74      1.0000 0.18360  0.82460  0.23210  Biso   1.000  H
  N13      1.0000 0.30350  0.91015  0.22830  Biso   1.000  N
  N14      1.0000 0.24850  0.87692  0.19130  Biso   1.000  N
  C84      1.0000 0.24200  0.87440  0.08750  Biso   1.000  C
  C85      1.0000 0.29610  0.90660  0.05320  Biso   1.000  C
  C86      1.0000 0.33270  0.92877  0.14370  Biso   1.000  C
  C87      1.0000 0.39330  0.96720  0.15330  Biso   1.000  C
  H75      1.0000 0.44390  0.96700  0.21770  Biso   1.000  H
  H76      1.0000 0.43400  0.97050  0.09300  Biso   1.000  H
  H77      1.0000 0.34190  0.98930  0.15560  Biso   1.000  H
  C88      1.0000 0.18380  0.83970  0.02800  Biso   1.000  C
  H78      1.0000 0.20670  0.81450  0.06230  Biso   1.000  H
  H79      1.0000 0.10510  0.84290  0.02750  Biso   1.000  H
  H80      1.0000 0.20200  0.83950  0.95590  Biso   1.000  H
  C89      1.0000 0.30920  0.91680  0.94350  Biso   1.000  C
  C90      1.0000 0.32150  0.88890  0.87190  Biso   1.000  C
  H81      1.0000 0.32080  0.86160  0.89240  Biso   1.000  H
  C91      1.0000 0.23570  0.91030  0.87110  Biso   1.000  C
  H82      1.0000 0.17210  0.89630  0.88450  Biso   1.000  H
  C92      1.0000 0.33540  0.89770  0.76830  Biso   1.000  C
  H83      1.0000 0.34480  0.87690  0.71990  Biso   1.000  H
  C93      1.0000 0.24700  0.92360  0.77040  Biso   1.000  C
  H84      1.0000 0.18390  0.92260  0.72090  Biso   1.000  H
  C94      1.0000 0.33540  0.93743  0.73700  Biso   1.000  C
  C95      1.0000 0.31350  0.96660  0.80210  Biso   1.000  C
  H85      1.0000 0.30930  0.99350  0.77830  Biso   1.000  H
  C96      1.0000 0.43230  0.94050  0.82090  Biso   1.000  C
  H86      1.0000 0.50020  0.94980  0.80320  Biso   1.000  H
  C97      1.0000 0.29670  0.95770  0.90600  Biso   1.000  C
  H87      1.0000 0.27720  0.97820  0.95120  Biso   1.000  H
  C98      1.0000 0.42100  0.92950  0.92440  Biso   1.000  C
  H88      1.0000 0.48000  0.93020  0.97840  Biso   1.000  H
  C99      1.0000 0.34870  0.94677  0.62650  Biso   1.000  C
  O13      1.0000 0.30500  0.92443  0.55690  Biso   1.000  O
  O14      1.0000 0.39760  0.97727  0.60680  Biso   1.000  O
  N15      1.0000 0.14190  0.89995  0.37630  Biso   1.000  N
  N16      1.0000 0.11920  0.86785  0.31470  Biso   1.000  N
  C100     1.0000 0.01310  0.85985  0.30090  Biso   1.000  C
  C101     1.0000 0.96290  0.88800  0.35700  Biso   1.000  C
  C102     1.0000 0.04820  0.91281  0.40230  Biso   1.000  C
  C103     1.0000 0.96500  0.82510  0.23780  Biso   1.000  C
  H89      1.0000 0.88880  0.82180  0.24980  Biso   1.000  H
  H90      1.0000 0.96910  0.83010  0.16340  Biso   1.000  H
  H91      1.0000 0.00550  0.80080  0.25920  Biso   1.000  H
  C104     1.0000 0.03990  0.94790  0.47160  Biso   1.000  C
  H92      1.0000 0.03110  0.97220  0.42920  Biso   1.000  H
  H93      1.0000 0.97700  0.94460  0.51050  Biso   1.000  H
  H94      1.0000 0.10610  0.94990  0.52090  Biso   1.000  H
  C105     1.0000 0.84770  0.89200  0.36860  Biso   1.000  C
  C106     1.0000 0.78780  0.86040  0.39830  Biso   1.000  C
  H95      1.0000 0.82090  0.83500  0.41160  Biso   1.000  H
  C107     1.0000 0.67680  0.86570  0.40900  Biso   1.000  C
  H96      1.0000 0.63520  0.84360  0.42780  Biso   1.000  H
  C108     1.0000 0.62820  0.90190  0.39310  Biso   1.000  C
  C109     1.0000 0.68950  0.93440  0.36390  Biso   1.000  C
  H97      1.0000 0.65700  0.96000  0.35360  Biso   1.000  H
  C110     1.0000 0.79720  0.92890  0.35020  Biso   1.000  C
  H98      1.0000 0.83780  0.95070  0.32780  Biso   1.000  H
  C111     1.0000 0.51150  0.90859  0.40490  Biso   1.000  C
  O15      1.0000 0.47460  0.94404  0.40530  Biso   1.000  O
  O16      1.0000 0.44920  0.87891  0.41080  Biso   1.000  O
  N17      1.0000 0.88680  0.20609  0.26420  Biso   1.000  N
  N18      1.0000 0.95100  0.21490  0.18400  Biso   1.000  N
  C112     1.0000 0.02550  0.18630  0.17740  Biso   1.000  C
  C113     1.0000 0.01220  0.15830  0.25080  Biso   1.000  C
  C114     1.0000 0.92530  0.17200  0.30650  Biso   1.000  C
  C115     1.0000 0.88800  0.15180  0.39510  Biso   1.000  C
  H99      1.0000 0.82200  0.13670  0.37180  Biso   1.000  H
  H100     1.0000 0.94450  0.13360  0.42600  Biso   1.000  H
  H101     1.0000 0.87220  0.17160  0.44740  Biso   1.000  H
  C116     1.0000 0.10830  0.18740  0.09940  Biso   1.000  C
  H102     1.0000 0.14660  0.16180  0.10050  Biso   1.000  H
  H103     1.0000 0.07110  0.19230  0.02910  Biso   1.000  H
  H104     1.0000 0.16060  0.20890  0.11830  Biso   1.000  H
  C117     1.0000 0.07920  0.12270  0.27580  Biso   1.000  C
  C118     1.0000 0.19100  0.12660  0.31190  Biso   1.000  C
  H105     1.0000 0.22430  0.15220  0.31720  Biso   1.000  H
  C119     1.0000 0.25250  0.09190  0.33990  Biso   1.000  C
  H106     1.0000 0.32690  0.09430  0.36650  Biso   1.000  H
  C120     1.0000 0.20710  0.05533  0.32930  Biso   1.000  C
  C121     1.0000 0.10380  0.05120  0.28640  Biso   1.000  C
  H107     1.0000 0.07430  0.02520  0.27460  Biso   1.000  H
  C122     1.0000 0.03920  0.08440  0.25870  Biso   1.000  C
  H108     1.0000 0.96650  0.08070  0.22770  Biso   1.000  H
  C123     1.0000 0.27510  0.01978  0.36650  Biso   1.000  C
  O17      1.0000 0.37090  0.02599  0.40430  Biso   1.000  O
  O18      1.0000 0.23500  0.98629  0.35370  Biso   1.000  O
  Fe4      1.0000 0.69786  0.43048  0.60443  Biso   1.000  Fe
  C124     1.0000 0.79150  0.34979  0.73260  Biso   1.000  C
  H109     1.0000 0.73170  0.34330  0.67730  Biso   1.000  H
  H110     1.0000 0.81640  0.32460  0.76790  Biso   1.000  H
  N19      1.0000 0.69650  0.41015  0.77170  Biso   1.000  N
  N20      1.0000 0.75150  0.37692  0.80870  Biso   1.000  N
  C125     1.0000 0.75800  0.37440  0.91250  Biso   1.000  C
  C126     1.0000 0.70390  0.40660  0.94680  Biso   1.000  C
  C127     1.0000 0.66730  0.42877  0.85630  Biso   1.000  C
  C128     1.0000 0.60670  0.46720  0.84670  Biso   1.000  C
  H111     1.0000 0.55610  0.46700  0.78230  Biso   1.000  H
  H112     1.0000 0.56600  0.47050  0.90700  Biso   1.000  H
  H113     1.0000 0.65810  0.48930  0.84440  Biso   1.000  H
  C129     1.0000 0.81620  0.33970  0.97200  Biso   1.000  C
  H114     1.0000 0.79330  0.31450  0.93770  Biso   1.000  H
  H115     1.0000 0.89490  0.34290  0.97250  Biso   1.000  H
  H116     1.0000 0.79800  0.33950  0.04410  Biso   1.000  H
  C130     1.0000 0.69080  0.41680  0.05650  Biso   1.000  C
  C131     1.0000 0.67850  0.38890  0.12810  Biso   1.000  C
  H117     1.0000 0.67920  0.36160  0.10760  Biso   1.000  H
  C132     1.0000 0.76430  0.41030  0.12890  Biso   1.000  C
  H118     1.0000 0.82790  0.39630  0.11550  Biso   1.000  H
  C133     1.0000 0.66460  0.39770  0.23170  Biso   1.000  C
  H119     1.0000 0.65520  0.37690  0.28010  Biso   1.000  H
  C134     1.0000 0.75300  0.42360  0.22960  Biso   1.000  C
  H120     1.0000 0.81610  0.42260  0.27910  Biso   1.000  H
  C135     1.0000 0.66460  0.43743  0.26300  Biso   1.000  C
  C136     1.0000 0.68650  0.46660  0.19790  Biso   1.000  C
  H121     1.0000 0.69070  0.49350  0.22170  Biso   1.000  H
  C137     1.0000 0.56770  0.44050  0.17910  Biso   1.000  C
  H122     1.0000 0.49980  0.44980  0.19680  Biso   1.000  H
  C138     1.0000 0.70330  0.45770  0.09400  Biso   1.000  C
  H123     1.0000 0.72280  0.47820  0.04880  Biso   1.000  H
  C139     1.0000 0.57900  0.42950  0.07560  Biso   1.000  C
  H124     1.0000 0.52000  0.43020  0.02160  Biso   1.000  H
  C140     1.0000 0.65130  0.44677  0.37350  Biso   1.000  C
  O19      1.0000 0.69500  0.42443  0.44310  Biso   1.000  O
  O20      1.0000 0.60240  0.47727  0.39320  Biso   1.000  O
  N21      1.0000 0.85810  0.39995  0.62370  Biso   1.000  N
  N22      1.0000 0.88080  0.36785  0.68530  Biso   1.000  N
  C141     1.0000 0.98690  0.35985  0.69910  Biso   1.000  C
  C142     1.0000 0.03710  0.38800  0.64300  Biso   1.000  C
  C143     1.0000 0.95180  0.41281  0.59770  Biso   1.000  C
  C144     1.0000 0.03500  0.32510  0.76220  Biso   1.000  C
  H125     1.0000 0.11120  0.32180  0.75020  Biso   1.000  H
  H126     1.0000 0.03090  0.33010  0.83660  Biso   1.000  H
  H127     1.0000 0.99450  0.30080  0.74080  Biso   1.000  H
  C145     1.0000 0.96010  0.44790  0.52840  Biso   1.000  C
  H128     1.0000 0.96890  0.47220  0.57080  Biso   1.000  H
  H129     1.0000 0.02300  0.44460  0.48950  Biso   1.000  H
  H130     1.0000 0.89390  0.44990  0.47910  Biso   1.000  H
  C146     1.0000 0.15230  0.39200  0.63140  Biso   1.000  C
  C147     1.0000 0.21220  0.36040  0.60170  Biso   1.000  C
  H131     1.0000 0.17910  0.33500  0.58840  Biso   1.000  H
  C148     1.0000 0.32320  0.36570  0.59100  Biso   1.000  C
  H132     1.0000 0.36480  0.34360  0.57220  Biso   1.000  H
  C149     1.0000 0.37180  0.40190  0.60690  Biso   1.000  C
  C150     1.0000 0.31050  0.43440  0.63610  Biso   1.000  C
  H133     1.0000 0.34300  0.46000  0.64640  Biso   1.000  H
  C151     1.0000 0.20280  0.42890  0.64980  Biso   1.000  C
  H134     1.0000 0.16220  0.45070  0.67220  Biso   1.000  H
  C152     1.0000 0.48850  0.40859  0.59510  Biso   1.000  C
  O21      1.0000 0.52540  0.44404  0.59470  Biso   1.000  O
  O22      1.0000 0.55080  0.37891  0.58920  Biso   1.000  O
  N23      1.0000 0.11320  0.70609  0.73580  Biso   1.000  N
  N24      1.0000 0.04900  0.71490  0.81600  Biso   1.000  N
  C153     1.0000 0.97450  0.68630  0.82260  Biso   1.000  C
  C154     1.0000 0.98780  0.65830  0.74920  Biso   1.000  C
  C155     1.0000 0.07470  0.67200  0.69350  Biso   1.000  C
  C156     1.0000 0.11200  0.65180  0.60490  Biso   1.000  C
  H135     1.0000 0.17800  0.63670  0.62820  Biso   1.000  H
  H136     1.0000 0.05550  0.63360  0.57400  Biso   1.000  H
  H137     1.0000 0.12780  0.67160  0.55260  Biso   1.000  H
  C157     1.0000 0.89170  0.68740  0.90060  Biso   1.000  C
  H138     1.0000 0.85340  0.66180  0.89950  Biso   1.000  H
  H139     1.0000 0.92890  0.69230  0.97090  Biso   1.000  H
  H140     1.0000 0.83940  0.70890  0.88170  Biso   1.000  H
  C158     1.0000 0.92080  0.62270  0.72420  Biso   1.000  C
  C159     1.0000 0.80900  0.62660  0.68810  Biso   1.000  C
  H141     1.0000 0.77570  0.65220  0.68280  Biso   1.000  H
  C160     1.0000 0.74750  0.59190  0.66010  Biso   1.000  C
  H142     1.0000 0.67310  0.59430  0.63350  Biso   1.000  H
  C161     1.0000 0.79290  0.55533  0.67070  Biso   1.000  C
  C162     1.0000 0.89620  0.55120  0.71360  Biso   1.000  C
  H143     1.0000 0.92570  0.52520  0.72540  Biso   1.000  H
  C163     1.0000 0.96080  0.58440  0.74130  Biso   1.000  C
  H144     1.0000 0.03350  0.58070  0.77230  Biso   1.000  H
  C164     1.0000 0.72490  0.51978  0.63350  Biso   1.000  C
  O23      1.0000 0.62910  0.52599  0.59570  Biso   1.000  O
  O24      1.0000 0.76500  0.48629  0.64630  Biso   1.000  O
  Fe5      1.0000 0.50000  0.00000  0.50000  Biso   1.000  Fe
  Fe6      1.0000 0.50000  0.50000  0.50000  Biso   1.000  Fe
  Fe7      1.0000 0.21931  0.75000  0.69427  Biso   1.000  Fe
  Cl1      1.0000 0.35020  0.75000  0.85040  Biso   1.000  Cl
  C165     1.0000 0.06980  0.75000  0.87920  Biso   1.000  C
  H145     1.0000 0.02250  0.75000  0.93610  Biso   1.000  H
  H146     1.0000 0.14630  0.75000  0.91130  Biso   1.000  H
  Fe8      1.0000 0.78069  0.25000  0.30573  Biso   1.000  Fe
  Cl2      1.0000 0.64980  0.25000  0.14960  Biso   1.000  Cl
  C166     1.0000 0.93020  0.25000  0.12080  Biso   1.000  C
  H147     1.0000 0.97750  0.25000  0.06390  Biso   1.000  H
  H148     1.0000 0.85370  0.25000  0.08870  Biso   1.000  H
