data_image0
_cell_length_a       20.594
_cell_length_b       20.594
_cell_length_c       6.5304
_cell_angle_alpha    90
_cell_angle_beta     90
_cell_angle_gamma    120

_symmetry_space_group_name_H-M    "P 1"
_symmetry_int_tables_number       1

loop_
  _symmetry_equiv_pos_as_xyz
  'x, y, z'

loop_
  _atom_site_label
  _atom_site_occupancy
  _atom_site_fract_x
  _atom_site_fract_y
  _atom_site_fract_z
  _atom_site_thermal_displace_type
  _atom_site_B_iso_or_equiv
  _atom_site_type_symbol
  O1       1.0000 0.44390  0.27690  0.80800  Biso   1.000  O
  O2       1.0000 0.56470  0.29830  0.43000  Biso   1.000  O
  O3       1.0000 0.52830  0.30290  0.44900  Biso   1.000  O
  O4       1.0000 0.43380  0.27100  0.28800  Biso   1.000  O
  O5       1.0000 0.72310  0.16700  0.80800  Biso   1.000  O
  O6       1.0000 0.70170  0.26640  0.43000  Biso   1.000  O
  O7       1.0000 0.69710  0.22540  0.44900  Biso   1.000  O
  O8       1.0000 0.72900  0.16280  0.28800  Biso   1.000  O
  O9       1.0000 0.83300  0.55610  0.80800  Biso   1.000  O
  O10      1.0000 0.73360  0.43530  0.43000  Biso   1.000  O
  O11      1.0000 0.77460  0.47170  0.44900  Biso   1.000  O
  O12      1.0000 0.83720  0.56620  0.28800  Biso   1.000  O
  O13      1.0000 0.44390  0.27690  0.69200  Biso   1.000  O
  O14      1.0000 0.56470  0.29830  0.07000  Biso   1.000  O
  O15      1.0000 0.52830  0.30290  0.05100  Biso   1.000  O
  O16      1.0000 0.43380  0.27100  0.21200  Biso   1.000  O
  O17      1.0000 0.72310  0.16700  0.69200  Biso   1.000  O
  O18      1.0000 0.70170  0.26640  0.07000  Biso   1.000  O
  O19      1.0000 0.69710  0.22540  0.05100  Biso   1.000  O
  O20      1.0000 0.72900  0.16280  0.21200  Biso   1.000  O
  O21      1.0000 0.83300  0.55610  0.69200  Biso   1.000  O
  O22      1.0000 0.73360  0.43530  0.07000  Biso   1.000  O
  O23      1.0000 0.77460  0.47170  0.05100  Biso   1.000  O
  O24      1.0000 0.83720  0.56620  0.21200  Biso   1.000  O
  O25      1.0000 0.27690  0.44390  0.19200  Biso   1.000  O
  O26      1.0000 0.29830  0.56470  0.57000  Biso   1.000  O
  O27      1.0000 0.30290  0.52830  0.55100  Biso   1.000  O
  O28      1.0000 0.27100  0.43380  0.71200  Biso   1.000  O
  O29      1.0000 0.16700  0.72310  0.19200  Biso   1.000  O
  O30      1.0000 0.26640  0.70170  0.57000  Biso   1.000  O
  O31      1.0000 0.22540  0.69710  0.55100  Biso   1.000  O
  O32      1.0000 0.16280  0.72900  0.71200  Biso   1.000  O
  O33      1.0000 0.55610  0.83300  0.19200  Biso   1.000  O
  O34      1.0000 0.43530  0.73360  0.57000  Biso   1.000  O
  O35      1.0000 0.47170  0.77460  0.55100  Biso   1.000  O
  O36      1.0000 0.56620  0.83720  0.71200  Biso   1.000  O
  O37      1.0000 0.27690  0.44390  0.30800  Biso   1.000  O
  O38      1.0000 0.29830  0.56470  0.93000  Biso   1.000  O
  O39      1.0000 0.30290  0.52830  0.94900  Biso   1.000  O
  O40      1.0000 0.27100  0.43380  0.78800  Biso   1.000  O
  O41      1.0000 0.16700  0.72310  0.30800  Biso   1.000  O
  O42      1.0000 0.26640  0.70170  0.93000  Biso   1.000  O
  O43      1.0000 0.22540  0.69710  0.94900  Biso   1.000  O
  O44      1.0000 0.16280  0.72900  0.78800  Biso   1.000  O
  O45      1.0000 0.55610  0.83300  0.30800  Biso   1.000  O
  O46      1.0000 0.43530  0.73360  0.93000  Biso   1.000  O
  O47      1.0000 0.47170  0.77460  0.94900  Biso   1.000  O
  O48      1.0000 0.56620  0.83720  0.78800  Biso   1.000  O
  Co1      1.0000 0.55508  0.30242  0.75000  Biso   1.000  Co
  Co2      1.0000 0.69758  0.25266  0.75000  Biso   1.000  Co
  Co3      1.0000 0.74734  0.44492  0.75000  Biso   1.000  Co
  Co4      1.0000 0.30242  0.55508  0.25000  Biso   1.000  Co
  Co5      1.0000 0.25266  0.69758  0.25000  Biso   1.000  Co
  Co6      1.0000 0.44492  0.74734  0.25000  Biso   1.000  Co
  Co7      1.0000 0.66667  0.33333  0.25000  Biso   1.000  Co
  Co8      1.0000 0.33333  0.66667  0.75000  Biso   1.000  Co
  O49      1.0000 0.66667  0.33333  0.68400  Biso   1.000  O
  H1       1.0000 0.66667  0.33333  0.55510  Biso   1.000  H
  O50      1.0000 0.66667  0.33333  0.81600  Biso   1.000  O
  H2       1.0000 0.66667  0.33333  0.94490  Biso   1.000  H
  O51      1.0000 0.33333  0.66667  0.31600  Biso   1.000  O
  H3       1.0000 0.33333  0.66667  0.44490  Biso   1.000  H
  O52      1.0000 0.33333  0.66667  0.18400  Biso   1.000  O
  H4       1.0000 0.33333  0.66667  0.05510  Biso   1.000  H
  C1       1.0000 0.47030  0.16540  0.25000  Biso   1.000  C
  C2       1.0000 0.39680  0.11050  0.25000  Biso   1.000  C
  H5       1.0000 0.35960  0.12500  0.25000  Biso   1.000  H
  C3       1.0000 0.37370  0.03520  0.25000  Biso   1.000  C
  H6       1.0000 0.32200  0.99840  0.25000  Biso   1.000  H
  C4       1.0000 0.42990  0.01430  0.25000  Biso   1.000  C
  C5       1.0000 0.50230  0.06820  0.25000  Biso   1.000  C
  H7       1.0000 0.53940  0.05360  0.25000  Biso   1.000  H
  C6       1.0000 0.52540  0.14270  0.25000  Biso   1.000  C
  H8       1.0000 0.57730  0.17910  0.25000  Biso   1.000  H
  C7       1.0000 0.33790  0.87510  0.25000  Biso   1.000  C
  H9       1.0000 0.29370  0.87870  0.25000  Biso   1.000  H
  C8       1.0000 0.45080  0.90450  0.25000  Biso   1.000  C
  H10      1.0000 0.50410  0.93260  0.25000  Biso   1.000  H
  N1       1.0000 0.40670  0.93450  0.25000  Biso   1.000  N
  N2       1.0000 0.33740  0.81210  0.25000  Biso   1.000  N
  N3       1.0000 0.41120  0.83110  0.25000  Biso   1.000  N
  P1       1.0000 0.50400  0.26340  0.25000  Biso   1.000  P
  C9       1.0000 0.83460  0.30490  0.25000  Biso   1.000  C
  C10      1.0000 0.88950  0.28630  0.25000  Biso   1.000  C
  H11      1.0000 0.87500  0.23460  0.25000  Biso   1.000  H
  C11      1.0000 0.96480  0.33850  0.25000  Biso   1.000  C
  H12      1.0000 0.00160  0.32360  0.25000  Biso   1.000  H
  C12      1.0000 0.98570  0.41560  0.25000  Biso   1.000  C
  C13      1.0000 0.93180  0.43410  0.25000  Biso   1.000  C
  H13      1.0000 0.94640  0.48580  0.25000  Biso   1.000  H
  C14      1.0000 0.85730  0.38270  0.25000  Biso   1.000  C
  H14      1.0000 0.82090  0.39820  0.25000  Biso   1.000  H
  C15      1.0000 0.12490  0.46280  0.25000  Biso   1.000  C
  H15      1.0000 0.12130  0.41500  0.25000  Biso   1.000  H
  C16      1.0000 0.09550  0.54630  0.25000  Biso   1.000  C
  H16      1.0000 0.06740  0.57150  0.25000  Biso   1.000  H
  N4       1.0000 0.06550  0.47220  0.25000  Biso   1.000  N
  N5       1.0000 0.18790  0.52530  0.25000  Biso   1.000  N
  N6       1.0000 0.16890  0.58010  0.25000  Biso   1.000  N
  P2       1.0000 0.73660  0.24060  0.25000  Biso   1.000  P
  C17      1.0000 0.69510  0.52970  0.25000  Biso   1.000  C
  C18      1.0000 0.71370  0.60320  0.25000  Biso   1.000  C
  H17      1.0000 0.76540  0.64040  0.25000  Biso   1.000  H
  C19      1.0000 0.66150  0.62630  0.25000  Biso   1.000  C
  H18      1.0000 0.67640  0.67800  0.25000  Biso   1.000  H
  C20      1.0000 0.58440  0.57010  0.25000  Biso   1.000  C
  C21      1.0000 0.56590  0.49770  0.25000  Biso   1.000  C
  H19      1.0000 0.51420  0.46060  0.25000  Biso   1.000  H
  C22      1.0000 0.61730  0.47460  0.25000  Biso   1.000  C
  H20      1.0000 0.60180  0.42270  0.25000  Biso   1.000  H
  C23      1.0000 0.53720  0.66210  0.25000  Biso   1.000  C
  H21      1.0000 0.58500  0.70630  0.25000  Biso   1.000  H
  C24      1.0000 0.45370  0.54920  0.25000  Biso   1.000  C
  H22      1.0000 0.42850  0.49590  0.25000  Biso   1.000  H
  N7       1.0000 0.52780  0.59330  0.25000  Biso   1.000  N
  N8       1.0000 0.47470  0.66260  0.25000  Biso   1.000  N
  N9       1.0000 0.41990  0.58880  0.25000  Biso   1.000  N
  P3       1.0000 0.75940  0.49600  0.25000  Biso   1.000  P
  C25      1.0000 0.16540  0.47030  0.75000  Biso   1.000  C
  C26      1.0000 0.11050  0.39680  0.75000  Biso   1.000  C
  H23      1.0000 0.12500  0.35960  0.75000  Biso   1.000  H
  C27      1.0000 0.03520  0.37370  0.75000  Biso   1.000  C
  H24      1.0000 0.99840  0.32200  0.75000  Biso   1.000  H
  C28      1.0000 0.01430  0.42990  0.75000  Biso   1.000  C
  C29      1.0000 0.06820  0.50230  0.75000  Biso   1.000  C
  H25      1.0000 0.05360  0.53940  0.75000  Biso   1.000  H
  C30      1.0000 0.14270  0.52540  0.75000  Biso   1.000  C
  H26      1.0000 0.17910  0.57730  0.75000  Biso   1.000  H
  C31      1.0000 0.87510  0.33790  0.75000  Biso   1.000  C
  H27      1.0000 0.87870  0.29370  0.75000  Biso   1.000  H
  C32      1.0000 0.90450  0.45080  0.75000  Biso   1.000  C
  H28      1.0000 0.93260  0.50410  0.75000  Biso   1.000  H
  N10      1.0000 0.93450  0.40670  0.75000  Biso   1.000  N
  N11      1.0000 0.81210  0.33740  0.75000  Biso   1.000  N
  N12      1.0000 0.83110  0.41120  0.75000  Biso   1.000  N
  P4       1.0000 0.26340  0.50400  0.75000  Biso   1.000  P
  C33      1.0000 0.30490  0.83460  0.75000  Biso   1.000  C
  C34      1.0000 0.28630  0.88950  0.75000  Biso   1.000  C
  H29      1.0000 0.23460  0.87500  0.75000  Biso   1.000  H
  C35      1.0000 0.33850  0.96480  0.75000  Biso   1.000  C
  H30      1.0000 0.32360  0.00160  0.75000  Biso   1.000  H
  C36      1.0000 0.41560  0.98570  0.75000  Biso   1.000  C
  C37      1.0000 0.43410  0.93180  0.75000  Biso   1.000  C
  H31      1.0000 0.48580  0.94640  0.75000  Biso   1.000  H
  C38      1.0000 0.38270  0.85730  0.75000  Biso   1.000  C
  H32      1.0000 0.39820  0.82090  0.75000  Biso   1.000  H
  C39      1.0000 0.46280  0.12490  0.75000  Biso   1.000  C
  H33      1.0000 0.41500  0.12130  0.75000  Biso   1.000  H
  C40      1.0000 0.54630  0.09550  0.75000  Biso   1.000  C
  H34      1.0000 0.57150  0.06740  0.75000  Biso   1.000  H
  N13      1.0000 0.47220  0.06550  0.75000  Biso   1.000  N
  N14      1.0000 0.52530  0.18790  0.75000  Biso   1.000  N
  N15      1.0000 0.58010  0.16890  0.75000  Biso   1.000  N
  P5       1.0000 0.24060  0.73660  0.75000  Biso   1.000  P
  C41      1.0000 0.52970  0.69510  0.75000  Biso   1.000  C
  C42      1.0000 0.60320  0.71370  0.75000  Biso   1.000  C
  H35      1.0000 0.64040  0.76540  0.75000  Biso   1.000  H
  C43      1.0000 0.62630  0.66150  0.75000  Biso   1.000  C
  H36      1.0000 0.67800  0.67640  0.75000  Biso   1.000  H
  C44      1.0000 0.57010  0.58440  0.75000  Biso   1.000  C
  C45      1.0000 0.49770  0.56590  0.75000  Biso   1.000  C
  H37      1.0000 0.46060  0.51420  0.75000  Biso   1.000  H
  C46      1.0000 0.47460  0.61730  0.75000  Biso   1.000  C
  H38      1.0000 0.42270  0.60180  0.75000  Biso   1.000  H
  C47      1.0000 0.66210  0.53720  0.75000  Biso   1.000  C
  H39      1.0000 0.70630  0.58500  0.75000  Biso   1.000  H
  C48      1.0000 0.54920  0.45370  0.75000  Biso   1.000  C
  H40      1.0000 0.49590  0.42850  0.75000  Biso   1.000  H
  N16      1.0000 0.59330  0.52780  0.75000  Biso   1.000  N
  N17      1.0000 0.66260  0.47470  0.75000  Biso   1.000  N
  N18      1.0000 0.58880  0.41990  0.75000  Biso   1.000  N
  P6       1.0000 0.49600  0.75940  0.75000  Biso   1.000  P
