data_image0
_cell_length_a       27.41
_cell_length_b       27.41
_cell_length_c       6.7279
_cell_angle_alpha    90
_cell_angle_beta     90
_cell_angle_gamma    120

_symmetry_space_group_name_H-M    "P 1"
_symmetry_int_tables_number       1

loop_
  _symmetry_equiv_pos_as_xyz
  'x, y, z'

loop_
  _atom_site_label
  _atom_site_occupancy
  _atom_site_fract_x
  _atom_site_fract_y
  _atom_site_fract_z
  _atom_site_thermal_displace_type
  _atom_site_B_iso_or_equiv
  _atom_site_type_symbol
  Cd1      1.0000 0.30384  0.03606  0.67980  Biso   1.000  Cd
  P1       1.0000 0.42730  0.03880  0.53000  Biso   1.000  P
  O1       1.0000 0.48150  0.08640  0.46200  Biso   1.000  O
  O2       1.0000 0.39620  0.05540  0.67800  Biso   1.000  O
  O3       1.0000 0.39010  0.00740  0.35500  Biso   1.000  O
  N1       1.0000 0.45900  0.00200  0.87000  Biso   1.000  N
  C1       1.0000 0.44060  0.98590  0.65600  Biso   1.000  C
  C2       1.0000 0.45100  0.94620  0.94800  Biso   1.000  C
  C3       1.0000 0.52230  0.04280  0.84500  Biso   1.000  C
  Cd2      1.0000 0.97051  0.36939  0.01313  Biso   1.000  Cd
  P2       1.0000 0.09397  0.37213  0.86333  Biso   1.000  P
  O4       1.0000 0.14817  0.41973  0.79533  Biso   1.000  O
  O5       1.0000 0.06287  0.38873  0.01133  Biso   1.000  O
  O6       1.0000 0.05677  0.34073  0.68833  Biso   1.000  O
  N2       1.0000 0.12567  0.33533  0.20333  Biso   1.000  N
  C4       1.0000 0.10727  0.31923  0.98933  Biso   1.000  C
  C5       1.0000 0.11767  0.27953  0.28133  Biso   1.000  C
  C6       1.0000 0.18897  0.37613  0.17833  Biso   1.000  C
  Cd3      1.0000 0.63717  0.70273  0.34647  Biso   1.000  Cd
  P3       1.0000 0.76063  0.70547  0.19667  Biso   1.000  P
  O7       1.0000 0.81483  0.75307  0.12867  Biso   1.000  O
  O8       1.0000 0.72953  0.72207  0.34467  Biso   1.000  O
  O9       1.0000 0.72343  0.67407  0.02167  Biso   1.000  O
  N3       1.0000 0.79233  0.66867  0.53667  Biso   1.000  N
  C7       1.0000 0.77393  0.65257  0.32267  Biso   1.000  C
  C8       1.0000 0.78433  0.61287  0.61467  Biso   1.000  C
  C9       1.0000 0.85563  0.70947  0.51167  Biso   1.000  C
  Cd4      1.0000 0.96394  0.26778  0.67980  Biso   1.000  Cd
  P4       1.0000 0.96120  0.38850  0.53000  Biso   1.000  P
  O10      1.0000 0.91360  0.39510  0.46200  Biso   1.000  O
  O11      1.0000 0.94460  0.34080  0.67800  Biso   1.000  O
  O12      1.0000 0.99260  0.38270  0.35500  Biso   1.000  O
  N4       1.0000 0.99800  0.45700  0.87000  Biso   1.000  N
  C10      1.0000 0.01410  0.45470  0.65600  Biso   1.000  C
  C11      1.0000 0.05380  0.50480  0.94800  Biso   1.000  C
  C12      1.0000 0.95720  0.47950  0.84500  Biso   1.000  C
  Cd5      1.0000 0.63061  0.60111  0.01313  Biso   1.000  Cd
  P5       1.0000 0.62787  0.72183  0.86333  Biso   1.000  P
  O13      1.0000 0.58027  0.72843  0.79533  Biso   1.000  O
  O14      1.0000 0.61127  0.67413  0.01133  Biso   1.000  O
  O15      1.0000 0.65927  0.71603  0.68833  Biso   1.000  O
  N5       1.0000 0.66467  0.79033  0.20333  Biso   1.000  N
  C13      1.0000 0.68077  0.78803  0.98933  Biso   1.000  C
  C14      1.0000 0.72047  0.83813  0.28133  Biso   1.000  C
  C15      1.0000 0.62387  0.81283  0.17833  Biso   1.000  C
  Cd6      1.0000 0.29727  0.93445  0.34647  Biso   1.000  Cd
  P6       1.0000 0.29453  0.05517  0.19667  Biso   1.000  P
  O16      1.0000 0.24693  0.06177  0.12867  Biso   1.000  O
  O17      1.0000 0.27793  0.00747  0.34467  Biso   1.000  O
  O18      1.0000 0.32593  0.04937  0.02167  Biso   1.000  O
  N6       1.0000 0.33133  0.12367  0.53667  Biso   1.000  N
  C16      1.0000 0.34743  0.12137  0.32267  Biso   1.000  C
  C17      1.0000 0.38713  0.17147  0.61467  Biso   1.000  C
  C18      1.0000 0.29053  0.14617  0.51167  Biso   1.000  C
  Cd7      1.0000 0.73222  0.69616  0.67980  Biso   1.000  Cd
  P7       1.0000 0.61150  0.57270  0.53000  Biso   1.000  P
  O19      1.0000 0.60490  0.51850  0.46200  Biso   1.000  O
  O20      1.0000 0.65920  0.60380  0.67800  Biso   1.000  O
  O21      1.0000 0.61730  0.60990  0.35500  Biso   1.000  O
  N7       1.0000 0.54300  0.54100  0.87000  Biso   1.000  N
  C19      1.0000 0.54530  0.55940  0.65600  Biso   1.000  C
  C20      1.0000 0.49520  0.54900  0.94800  Biso   1.000  C
  C21      1.0000 0.52050  0.47770  0.84500  Biso   1.000  C
  Cd8      1.0000 0.39889  0.02949  0.01313  Biso   1.000  Cd
  P8       1.0000 0.27817  0.90603  0.86333  Biso   1.000  P
  O22      1.0000 0.27157  0.85183  0.79533  Biso   1.000  O
  O23      1.0000 0.32587  0.93713  0.01133  Biso   1.000  O
  O24      1.0000 0.28397  0.94323  0.68833  Biso   1.000  O
  N8       1.0000 0.20967  0.87433  0.20333  Biso   1.000  N
  C22      1.0000 0.21197  0.89273  0.98933  Biso   1.000  C
  C23      1.0000 0.16187  0.88233  0.28133  Biso   1.000  C
  C24      1.0000 0.18717  0.81103  0.17833  Biso   1.000  C
  Cd9      1.0000 0.06555  0.36283  0.34647  Biso   1.000  Cd
  P9       1.0000 0.94483  0.23937  0.19667  Biso   1.000  P
  O25      1.0000 0.93823  0.18517  0.12867  Biso   1.000  O
  O26      1.0000 0.99253  0.27047  0.34467  Biso   1.000  O
  O27      1.0000 0.95063  0.27657  0.02167  Biso   1.000  O
  N9       1.0000 0.87633  0.20767  0.53667  Biso   1.000  N
  C25      1.0000 0.87863  0.22607  0.32267  Biso   1.000  C
  C26      1.0000 0.82853  0.21567  0.61467  Biso   1.000  C
  C27      1.0000 0.85383  0.14437  0.51167  Biso   1.000  C
  Cd10     1.0000 0.69616  0.96394  0.32020  Biso   1.000  Cd
  P10      1.0000 0.57270  0.96120  0.47000  Biso   1.000  P
  O28      1.0000 0.51850  0.91360  0.53800  Biso   1.000  O
  O29      1.0000 0.60380  0.94460  0.32200  Biso   1.000  O
  O30      1.0000 0.60990  0.99260  0.64500  Biso   1.000  O
  N10      1.0000 0.54100  0.99800  0.13000  Biso   1.000  N
  C28      1.0000 0.55940  0.01410  0.34400  Biso   1.000  C
  C29      1.0000 0.54900  0.05380  0.05200  Biso   1.000  C
  C30      1.0000 0.47770  0.95720  0.15500  Biso   1.000  C
  Cd11     1.0000 0.36283  0.29727  0.65353  Biso   1.000  Cd
  P11      1.0000 0.23937  0.29453  0.80333  Biso   1.000  P
  O31      1.0000 0.18517  0.24693  0.87133  Biso   1.000  O
  O32      1.0000 0.27047  0.27793  0.65533  Biso   1.000  O
  O33      1.0000 0.27657  0.32593  0.97833  Biso   1.000  O
  N11      1.0000 0.20767  0.33133  0.46333  Biso   1.000  N
  C31      1.0000 0.22607  0.34743  0.67733  Biso   1.000  C
  C32      1.0000 0.21567  0.38713  0.38533  Biso   1.000  C
  C33      1.0000 0.14437  0.29053  0.48833  Biso   1.000  C
  Cd12     1.0000 0.02949  0.63061  0.98687  Biso   1.000  Cd
  P12      1.0000 0.90603  0.62787  0.13667  Biso   1.000  P
  O34      1.0000 0.85183  0.58027  0.20467  Biso   1.000  O
  O35      1.0000 0.93713  0.61127  0.98867  Biso   1.000  O
  O36      1.0000 0.94323  0.65927  0.31167  Biso   1.000  O
  N12      1.0000 0.87433  0.66467  0.79667  Biso   1.000  N
  C34      1.0000 0.89273  0.68077  0.01067  Biso   1.000  C
  C35      1.0000 0.88233  0.72047  0.71867  Biso   1.000  C
  C36      1.0000 0.81103  0.62387  0.82167  Biso   1.000  C
  Cd13     1.0000 0.03606  0.73222  0.32020  Biso   1.000  Cd
  P13      1.0000 0.03880  0.61150  0.47000  Biso   1.000  P
  O37      1.0000 0.08640  0.60490  0.53800  Biso   1.000  O
  O38      1.0000 0.05540  0.65920  0.32200  Biso   1.000  O
  O39      1.0000 0.00740  0.61730  0.64500  Biso   1.000  O
  N13      1.0000 0.00200  0.54300  0.13000  Biso   1.000  N
  C37      1.0000 0.98590  0.54530  0.34400  Biso   1.000  C
  C38      1.0000 0.94620  0.49520  0.05200  Biso   1.000  C
  C39      1.0000 0.04280  0.52050  0.15500  Biso   1.000  C
  Cd14     1.0000 0.70273  0.06555  0.65353  Biso   1.000  Cd
  P14      1.0000 0.70547  0.94483  0.80333  Biso   1.000  P
  O40      1.0000 0.75307  0.93823  0.87133  Biso   1.000  O
  O41      1.0000 0.72207  0.99253  0.65533  Biso   1.000  O
  O42      1.0000 0.67407  0.95063  0.97833  Biso   1.000  O
  N14      1.0000 0.66867  0.87633  0.46333  Biso   1.000  N
  C40      1.0000 0.65257  0.87863  0.67733  Biso   1.000  C
  C41      1.0000 0.61287  0.82853  0.38533  Biso   1.000  C
  C42      1.0000 0.70947  0.85383  0.48833  Biso   1.000  C
  Cd15     1.0000 0.36939  0.39889  0.98687  Biso   1.000  Cd
  P15      1.0000 0.37213  0.27817  0.13667  Biso   1.000  P
  O43      1.0000 0.41973  0.27157  0.20467  Biso   1.000  O
  O44      1.0000 0.38873  0.32587  0.98867  Biso   1.000  O
  O45      1.0000 0.34073  0.28397  0.31167  Biso   1.000  O
  N15      1.0000 0.33533  0.20967  0.79667  Biso   1.000  N
  C43      1.0000 0.31923  0.21197  0.01067  Biso   1.000  C
  C44      1.0000 0.27953  0.16187  0.71867  Biso   1.000  C
  C45      1.0000 0.37613  0.18717  0.82167  Biso   1.000  C
  Cd16     1.0000 0.26778  0.30384  0.32020  Biso   1.000  Cd
  P16      1.0000 0.38850  0.42730  0.47000  Biso   1.000  P
  O46      1.0000 0.39510  0.48150  0.53800  Biso   1.000  O
  O47      1.0000 0.34080  0.39620  0.32200  Biso   1.000  O
  O48      1.0000 0.38270  0.39010  0.64500  Biso   1.000  O
  N16      1.0000 0.45700  0.45900  0.13000  Biso   1.000  N
  C46      1.0000 0.45470  0.44060  0.34400  Biso   1.000  C
  C47      1.0000 0.50480  0.45100  0.05200  Biso   1.000  C
  C48      1.0000 0.47950  0.52230  0.15500  Biso   1.000  C
  Cd17     1.0000 0.93445  0.63717  0.65353  Biso   1.000  Cd
  P17      1.0000 0.05517  0.76063  0.80333  Biso   1.000  P
  O49      1.0000 0.06177  0.81483  0.87133  Biso   1.000  O
  O50      1.0000 0.00747  0.72953  0.65533  Biso   1.000  O
  O51      1.0000 0.04937  0.72343  0.97833  Biso   1.000  O
  N17      1.0000 0.12367  0.79233  0.46333  Biso   1.000  N
  C49      1.0000 0.12137  0.77393  0.67733  Biso   1.000  C
  C50      1.0000 0.17147  0.78433  0.38533  Biso   1.000  C
  C51      1.0000 0.14617  0.85563  0.48833  Biso   1.000  C
  Cd18     1.0000 0.60111  0.97051  0.98687  Biso   1.000  Cd
  P18      1.0000 0.72183  0.09397  0.13667  Biso   1.000  P
  O52      1.0000 0.72843  0.14817  0.20467  Biso   1.000  O
  O53      1.0000 0.67413  0.06287  0.98867  Biso   1.000  O
  O54      1.0000 0.71603  0.05677  0.31167  Biso   1.000  O
  N18      1.0000 0.79033  0.12567  0.79667  Biso   1.000  N
  C52      1.0000 0.78803  0.10727  0.01067  Biso   1.000  C
  C53      1.0000 0.83813  0.11767  0.71867  Biso   1.000  C
  C54      1.0000 0.81283  0.18897  0.82167  Biso   1.000  C
