data_image0
_cell_length_a       18.8059
_cell_length_b       18.8059
_cell_length_c       37.6262
_cell_angle_alpha    90
_cell_angle_beta     90
_cell_angle_gamma    120

_symmetry_space_group_name_H-M    "P 1"
_symmetry_int_tables_number       1

loop_
  _symmetry_equiv_pos_as_xyz
  'x, y, z'

loop_
  _atom_site_label
  _atom_site_occupancy
  _atom_site_fract_x
  _atom_site_fract_y
  _atom_site_fract_z
  _atom_site_thermal_displace_type
  _atom_site_B_iso_or_equiv
  _atom_site_type_symbol
  O1       1.0000 0.44419  0.14920  0.17148  Biso   1.000  O
  O2       1.0000 0.36669  0.11030  0.12259  Biso   1.000  O
  C1       1.0000 0.42710  0.12100  0.14070  Biso   1.000  C
  C2       1.0000 0.48620  0.10000  0.12331  Biso   1.000  C
  C3       1.0000 0.47220  0.07060  0.08789  Biso   1.000  C
  H1       1.0000 0.42450  0.06090  0.07620  Biso   1.000  H
  C4       1.0000 0.57470  0.04330  0.01280  Biso   1.000  C
  H2       1.0000 0.63030  0.07650  0.02070  Biso   1.000  H
  N1       1.0000 0.43890  0.98090  0.02240  Biso   1.000  N
  O3       1.0000 0.11086  0.48253  0.50481  Biso   1.000  O
  O4       1.0000 0.03336  0.44363  0.45592  Biso   1.000  O
  C5       1.0000 0.09377  0.45433  0.47403  Biso   1.000  C
  C6       1.0000 0.15287  0.43333  0.45664  Biso   1.000  C
  C7       1.0000 0.13887  0.40393  0.42122  Biso   1.000  C
  H3       1.0000 0.09117  0.39423  0.40953  Biso   1.000  H
  C8       1.0000 0.24137  0.37663  0.34613  Biso   1.000  C
  H4       1.0000 0.29697  0.40983  0.35403  Biso   1.000  H
  N2       1.0000 0.10557  0.31423  0.35573  Biso   1.000  N
  O5       1.0000 0.77752  0.81587  0.83815  Biso   1.000  O
  O6       1.0000 0.70002  0.77697  0.78926  Biso   1.000  O
  C9       1.0000 0.76043  0.78767  0.80737  Biso   1.000  C
  C10      1.0000 0.81953  0.76667  0.78998  Biso   1.000  C
  C11      1.0000 0.80553  0.73727  0.75456  Biso   1.000  C
  H5       1.0000 0.75783  0.72757  0.74287  Biso   1.000  H
  C12      1.0000 0.90803  0.70997  0.67947  Biso   1.000  C
  H6       1.0000 0.96363  0.74317  0.68737  Biso   1.000  H
  N3       1.0000 0.77223  0.64757  0.68907  Biso   1.000  N
  O7       1.0000 0.85080  0.29499  0.17148  Biso   1.000  O
  O8       1.0000 0.88970  0.25639  0.12259  Biso   1.000  O
  C13      1.0000 0.87900  0.30610  0.14070  Biso   1.000  C
  C14      1.0000 0.90000  0.38620  0.12331  Biso   1.000  C
  C15      1.0000 0.92940  0.40160  0.08789  Biso   1.000  C
  H7       1.0000 0.93910  0.36360  0.07620  Biso   1.000  H
  C16      1.0000 0.95670  0.53140  0.01280  Biso   1.000  C
  H8       1.0000 0.92350  0.55380  0.02070  Biso   1.000  H
  N4       1.0000 0.01910  0.45800  0.02240  Biso   1.000  N
  O9       1.0000 0.51747  0.62832  0.50481  Biso   1.000  O
  O10      1.0000 0.55637  0.58972  0.45592  Biso   1.000  O
  C17      1.0000 0.54567  0.63943  0.47403  Biso   1.000  C
  C18      1.0000 0.56667  0.71953  0.45664  Biso   1.000  C
  C19      1.0000 0.59607  0.73493  0.42122  Biso   1.000  C
  H9       1.0000 0.60577  0.69693  0.40953  Biso   1.000  H
  C20      1.0000 0.62337  0.86473  0.34613  Biso   1.000  C
  H10      1.0000 0.59017  0.88713  0.35403  Biso   1.000  H
  N5       1.0000 0.68577  0.79133  0.35573  Biso   1.000  N
  O11      1.0000 0.18413  0.96166  0.83815  Biso   1.000  O
  O12      1.0000 0.22303  0.92306  0.78926  Biso   1.000  O
  C21      1.0000 0.21233  0.97277  0.80737  Biso   1.000  C
  C22      1.0000 0.23333  0.05287  0.78998  Biso   1.000  C
  C23      1.0000 0.26273  0.06827  0.75456  Biso   1.000  C
  H11      1.0000 0.27243  0.03027  0.74287  Biso   1.000  H
  C24      1.0000 0.29003  0.19807  0.67947  Biso   1.000  C
  H12      1.0000 0.25683  0.22047  0.68737  Biso   1.000  H
  N6       1.0000 0.35243  0.12467  0.68907  Biso   1.000  N
  O13      1.0000 0.70501  0.55581  0.17148  Biso   1.000  O
  O14      1.0000 0.74361  0.63331  0.12259  Biso   1.000  O
  C25      1.0000 0.69390  0.57290  0.14070  Biso   1.000  C
  C26      1.0000 0.61380  0.51380  0.12331  Biso   1.000  C
  C27      1.0000 0.59840  0.52780  0.08789  Biso   1.000  C
  H13      1.0000 0.63640  0.57550  0.07620  Biso   1.000  H
  C28      1.0000 0.46860  0.42530  0.01280  Biso   1.000  C
  H14      1.0000 0.44620  0.36970  0.02070  Biso   1.000  H
  N7       1.0000 0.54200  0.56110  0.02240  Biso   1.000  N
  O15      1.0000 0.37168  0.88914  0.50481  Biso   1.000  O
  O16      1.0000 0.41028  0.96664  0.45592  Biso   1.000  O
  C29      1.0000 0.36057  0.90623  0.47403  Biso   1.000  C
  C30      1.0000 0.28047  0.84713  0.45664  Biso   1.000  C
  C31      1.0000 0.26507  0.86113  0.42122  Biso   1.000  C
  H15      1.0000 0.30307  0.90883  0.40953  Biso   1.000  H
  C32      1.0000 0.13527  0.75863  0.34613  Biso   1.000  C
  H16      1.0000 0.11287  0.70303  0.35403  Biso   1.000  H
  N8       1.0000 0.20867  0.89443  0.35573  Biso   1.000  N
  O17      1.0000 0.03834  0.22248  0.83815  Biso   1.000  O
  O18      1.0000 0.07694  0.29998  0.78926  Biso   1.000  O
  C33      1.0000 0.02723  0.23957  0.80737  Biso   1.000  C
  C34      1.0000 0.94713  0.18047  0.78998  Biso   1.000  C
  C35      1.0000 0.93173  0.19447  0.75456  Biso   1.000  C
  H17      1.0000 0.96973  0.24217  0.74287  Biso   1.000  H
  C36      1.0000 0.80193  0.09197  0.67947  Biso   1.000  C
  H18      1.0000 0.77953  0.03637  0.68737  Biso   1.000  H
  N9       1.0000 0.87533  0.22777  0.68907  Biso   1.000  N
  O19      1.0000 0.14920  0.44419  0.82852  Biso   1.000  O
  O20      1.0000 0.11030  0.36669  0.87741  Biso   1.000  O
  C37      1.0000 0.12100  0.42710  0.85930  Biso   1.000  C
  C38      1.0000 0.10000  0.48620  0.87669  Biso   1.000  C
  C39      1.0000 0.07060  0.47220  0.91211  Biso   1.000  C
  H19      1.0000 0.06090  0.42450  0.92380  Biso   1.000  H
  C40      1.0000 0.04330  0.57470  0.98720  Biso   1.000  C
  H20      1.0000 0.07650  0.63030  0.97930  Biso   1.000  H
  N10      1.0000 0.98090  0.43890  0.97760  Biso   1.000  N
  O21      1.0000 0.81587  0.77752  0.16185  Biso   1.000  O
  O22      1.0000 0.77697  0.70002  0.21074  Biso   1.000  O
  C41      1.0000 0.78767  0.76043  0.19263  Biso   1.000  C
  C42      1.0000 0.76667  0.81953  0.21002  Biso   1.000  C
  C43      1.0000 0.73727  0.80553  0.24544  Biso   1.000  C
  H21      1.0000 0.72757  0.75783  0.25713  Biso   1.000  H
  C44      1.0000 0.70997  0.90803  0.32053  Biso   1.000  C
  H22      1.0000 0.74317  0.96363  0.31263  Biso   1.000  H
  N11      1.0000 0.64757  0.77223  0.31093  Biso   1.000  N
  O23      1.0000 0.48253  0.11086  0.49519  Biso   1.000  O
  O24      1.0000 0.44363  0.03336  0.54408  Biso   1.000  O
  C45      1.0000 0.45433  0.09377  0.52597  Biso   1.000  C
  C46      1.0000 0.43333  0.15287  0.54336  Biso   1.000  C
  C47      1.0000 0.40393  0.13887  0.57878  Biso   1.000  C
  H23      1.0000 0.39423  0.09117  0.59047  Biso   1.000  H
  C48      1.0000 0.37663  0.24137  0.65387  Biso   1.000  C
  H24      1.0000 0.40983  0.29697  0.64597  Biso   1.000  H
  N12      1.0000 0.31423  0.10557  0.64427  Biso   1.000  N
  O25      1.0000 0.29499  0.85080  0.82852  Biso   1.000  O
  O26      1.0000 0.25639  0.88970  0.87741  Biso   1.000  O
  C49      1.0000 0.30610  0.87900  0.85930  Biso   1.000  C
  C50      1.0000 0.38620  0.90000  0.87669  Biso   1.000  C
  C51      1.0000 0.40160  0.92940  0.91211  Biso   1.000  C
  H25      1.0000 0.36360  0.93910  0.92380  Biso   1.000  H
  C52      1.0000 0.53140  0.95670  0.98720  Biso   1.000  C
  H26      1.0000 0.55380  0.92350  0.97930  Biso   1.000  H
  N13      1.0000 0.45800  0.01910  0.97760  Biso   1.000  N
  O27      1.0000 0.96166  0.18413  0.16185  Biso   1.000  O
  O28      1.0000 0.92306  0.22303  0.21074  Biso   1.000  O
  C53      1.0000 0.97277  0.21233  0.19263  Biso   1.000  C
  C54      1.0000 0.05287  0.23333  0.21002  Biso   1.000  C
  C55      1.0000 0.06827  0.26273  0.24544  Biso   1.000  C
  H27      1.0000 0.03027  0.27243  0.25713  Biso   1.000  H
  C56      1.0000 0.19807  0.29003  0.32053  Biso   1.000  C
  H28      1.0000 0.22047  0.25683  0.31263  Biso   1.000  H
  N14      1.0000 0.12467  0.35243  0.31093  Biso   1.000  N
  O29      1.0000 0.62832  0.51747  0.49519  Biso   1.000  O
  O30      1.0000 0.58972  0.55637  0.54408  Biso   1.000  O
  C57      1.0000 0.63943  0.54567  0.52597  Biso   1.000  C
  C58      1.0000 0.71953  0.56667  0.54336  Biso   1.000  C
  C59      1.0000 0.73493  0.59607  0.57878  Biso   1.000  C
  H29      1.0000 0.69693  0.60577  0.59047  Biso   1.000  H
  C60      1.0000 0.86473  0.62337  0.65387  Biso   1.000  C
  H30      1.0000 0.88713  0.59017  0.64597  Biso   1.000  H
  N15      1.0000 0.79133  0.68577  0.64427  Biso   1.000  N
  O31      1.0000 0.55581  0.70501  0.82852  Biso   1.000  O
  O32      1.0000 0.63331  0.74361  0.87741  Biso   1.000  O
  C61      1.0000 0.57290  0.69390  0.85930  Biso   1.000  C
  C62      1.0000 0.51380  0.61380  0.87669  Biso   1.000  C
  C63      1.0000 0.52780  0.59840  0.91211  Biso   1.000  C
  H31      1.0000 0.57550  0.63640  0.92380  Biso   1.000  H
  C64      1.0000 0.42530  0.46860  0.98720  Biso   1.000  C
  H32      1.0000 0.36970  0.44620  0.97930  Biso   1.000  H
  N16      1.0000 0.56110  0.54200  0.97760  Biso   1.000  N
  O33      1.0000 0.22248  0.03834  0.16185  Biso   1.000  O
  O34      1.0000 0.29998  0.07694  0.21074  Biso   1.000  O
  C65      1.0000 0.23957  0.02723  0.19263  Biso   1.000  C
  C66      1.0000 0.18047  0.94713  0.21002  Biso   1.000  C
  C67      1.0000 0.19447  0.93173  0.24544  Biso   1.000  C
  H33      1.0000 0.24217  0.96973  0.25713  Biso   1.000  H
  C68      1.0000 0.09197  0.80193  0.32053  Biso   1.000  C
  H34      1.0000 0.03637  0.77953  0.31263  Biso   1.000  H
  N17      1.0000 0.22777  0.87533  0.31093  Biso   1.000  N
  O35      1.0000 0.88914  0.37168  0.49519  Biso   1.000  O
  O36      1.0000 0.96664  0.41028  0.54408  Biso   1.000  O
  C69      1.0000 0.90623  0.36057  0.52597  Biso   1.000  C
  C70      1.0000 0.84713  0.28047  0.54336  Biso   1.000  C
  C71      1.0000 0.86113  0.26507  0.57878  Biso   1.000  C
  H35      1.0000 0.90883  0.30307  0.59047  Biso   1.000  H
  C72      1.0000 0.75863  0.13527  0.65387  Biso   1.000  C
  H36      1.0000 0.70303  0.11287  0.64597  Biso   1.000  H
  N18      1.0000 0.89443  0.20867  0.64427  Biso   1.000  N
  O37      1.0000 0.55581  0.85080  0.82852  Biso   1.000  O
  O38      1.0000 0.63331  0.88970  0.87741  Biso   1.000  O
  C73      1.0000 0.57290  0.87900  0.85930  Biso   1.000  C
  C74      1.0000 0.51380  0.90000  0.87669  Biso   1.000  C
  C75      1.0000 0.52780  0.92940  0.91211  Biso   1.000  C
  H37      1.0000 0.57550  0.93910  0.92380  Biso   1.000  H
  C76      1.0000 0.42530  0.95670  0.98720  Biso   1.000  C
  H38      1.0000 0.36970  0.92350  0.97930  Biso   1.000  H
  N19      1.0000 0.56110  0.01910  0.97760  Biso   1.000  N
  O39      1.0000 0.22248  0.18413  0.16185  Biso   1.000  O
  O40      1.0000 0.29998  0.22303  0.21074  Biso   1.000  O
  C77      1.0000 0.23957  0.21233  0.19263  Biso   1.000  C
  C78      1.0000 0.18047  0.23333  0.21002  Biso   1.000  C
  C79      1.0000 0.19447  0.26273  0.24544  Biso   1.000  C
  H39      1.0000 0.24217  0.27243  0.25713  Biso   1.000  H
  C80      1.0000 0.09197  0.29003  0.32053  Biso   1.000  C
  H40      1.0000 0.03637  0.25683  0.31263  Biso   1.000  H
  N20      1.0000 0.22777  0.35243  0.31093  Biso   1.000  N
  O41      1.0000 0.88914  0.51747  0.49519  Biso   1.000  O
  O42      1.0000 0.96664  0.55637  0.54408  Biso   1.000  O
  C81      1.0000 0.90623  0.54567  0.52597  Biso   1.000  C
  C82      1.0000 0.84713  0.56667  0.54336  Biso   1.000  C
  C83      1.0000 0.86113  0.59607  0.57878  Biso   1.000  C
  H41      1.0000 0.90883  0.60577  0.59047  Biso   1.000  H
  C84      1.0000 0.75863  0.62337  0.65387  Biso   1.000  C
  H42      1.0000 0.70303  0.59017  0.64597  Biso   1.000  H
  N21      1.0000 0.89443  0.68577  0.64427  Biso   1.000  N
  O43      1.0000 0.14920  0.70501  0.82852  Biso   1.000  O
  O44      1.0000 0.11030  0.74361  0.87741  Biso   1.000  O
  C85      1.0000 0.12100  0.69390  0.85930  Biso   1.000  C
  C86      1.0000 0.10000  0.61380  0.87669  Biso   1.000  C
  C87      1.0000 0.07060  0.59840  0.91211  Biso   1.000  C
  H43      1.0000 0.06090  0.63640  0.92380  Biso   1.000  H
  C88      1.0000 0.04330  0.46860  0.98720  Biso   1.000  C
  H44      1.0000 0.07650  0.44620  0.97930  Biso   1.000  H
  N22      1.0000 0.98090  0.54200  0.97760  Biso   1.000  N
  O45      1.0000 0.81587  0.03834  0.16185  Biso   1.000  O
  O46      1.0000 0.77697  0.07694  0.21074  Biso   1.000  O
  C89      1.0000 0.78767  0.02723  0.19263  Biso   1.000  C
  C90      1.0000 0.76667  0.94713  0.21002  Biso   1.000  C
  C91      1.0000 0.73727  0.93173  0.24544  Biso   1.000  C
  H45      1.0000 0.72757  0.96973  0.25713  Biso   1.000  H
  C92      1.0000 0.70997  0.80193  0.32053  Biso   1.000  C
  H46      1.0000 0.74317  0.77953  0.31263  Biso   1.000  H
  N23      1.0000 0.64757  0.87533  0.31093  Biso   1.000  N
  O47      1.0000 0.48253  0.37168  0.49519  Biso   1.000  O
  O48      1.0000 0.44363  0.41028  0.54408  Biso   1.000  O
  C93      1.0000 0.45433  0.36057  0.52597  Biso   1.000  C
  C94      1.0000 0.43333  0.28047  0.54336  Biso   1.000  C
  C95      1.0000 0.40393  0.26507  0.57878  Biso   1.000  C
  H47      1.0000 0.39423  0.30307  0.59047  Biso   1.000  H
  C96      1.0000 0.37663  0.13527  0.65387  Biso   1.000  C
  H48      1.0000 0.40983  0.11287  0.64597  Biso   1.000  H
  N24      1.0000 0.31423  0.20867  0.64427  Biso   1.000  N
  O49      1.0000 0.29499  0.44419  0.82852  Biso   1.000  O
  O50      1.0000 0.25639  0.36669  0.87741  Biso   1.000  O
  C97      1.0000 0.30610  0.42710  0.85930  Biso   1.000  C
  C98      1.0000 0.38620  0.48620  0.87669  Biso   1.000  C
  C99      1.0000 0.40160  0.47220  0.91211  Biso   1.000  C
  H49      1.0000 0.36360  0.42450  0.92380  Biso   1.000  H
  C100     1.0000 0.53140  0.57470  0.98720  Biso   1.000  C
  H50      1.0000 0.55380  0.63030  0.97930  Biso   1.000  H
  N25      1.0000 0.45800  0.43890  0.97760  Biso   1.000  N
  O51      1.0000 0.96166  0.77752  0.16185  Biso   1.000  O
  O52      1.0000 0.92306  0.70002  0.21074  Biso   1.000  O
  C101     1.0000 0.97277  0.76043  0.19263  Biso   1.000  C
  C102     1.0000 0.05287  0.81953  0.21002  Biso   1.000  C
  C103     1.0000 0.06827  0.80553  0.24544  Biso   1.000  C
  H51      1.0000 0.03027  0.75783  0.25713  Biso   1.000  H
  C104     1.0000 0.19807  0.90803  0.32053  Biso   1.000  C
  H52      1.0000 0.22047  0.96363  0.31263  Biso   1.000  H
  N26      1.0000 0.12467  0.77223  0.31093  Biso   1.000  N
  O53      1.0000 0.62832  0.11086  0.49519  Biso   1.000  O
  O54      1.0000 0.58972  0.03336  0.54408  Biso   1.000  O
  C105     1.0000 0.63943  0.09377  0.52597  Biso   1.000  C
  C106     1.0000 0.71953  0.15287  0.54336  Biso   1.000  C
  C107     1.0000 0.73493  0.13887  0.57878  Biso   1.000  C
  H53      1.0000 0.69693  0.09117  0.59047  Biso   1.000  H
  C108     1.0000 0.86473  0.24137  0.65387  Biso   1.000  C
  H54      1.0000 0.88713  0.29697  0.64597  Biso   1.000  H
  N27      1.0000 0.79133  0.10557  0.64427  Biso   1.000  N
  O55      1.0000 0.85080  0.55581  0.17148  Biso   1.000  O
  O56      1.0000 0.88970  0.63331  0.12259  Biso   1.000  O
  C109     1.0000 0.87900  0.57290  0.14070  Biso   1.000  C
  C110     1.0000 0.90000  0.51380  0.12331  Biso   1.000  C
  C111     1.0000 0.92940  0.52780  0.08789  Biso   1.000  C
  H55      1.0000 0.93910  0.57550  0.07620  Biso   1.000  H
  C112     1.0000 0.95670  0.42530  0.01280  Biso   1.000  C
  H56      1.0000 0.92350  0.36970  0.02070  Biso   1.000  H
  N28      1.0000 0.01910  0.56110  0.02240  Biso   1.000  N
  O57      1.0000 0.51747  0.88914  0.50481  Biso   1.000  O
  O58      1.0000 0.55637  0.96664  0.45592  Biso   1.000  O
  C113     1.0000 0.54567  0.90623  0.47403  Biso   1.000  C
  C114     1.0000 0.56667  0.84713  0.45664  Biso   1.000  C
  C115     1.0000 0.59607  0.86113  0.42122  Biso   1.000  C
  H57      1.0000 0.60577  0.90883  0.40953  Biso   1.000  H
  C116     1.0000 0.62337  0.75863  0.34613  Biso   1.000  C
  H58      1.0000 0.59017  0.70303  0.35403  Biso   1.000  H
  N29      1.0000 0.68577  0.89443  0.35573  Biso   1.000  N
  O59      1.0000 0.18413  0.22248  0.83815  Biso   1.000  O
  O60      1.0000 0.22303  0.29998  0.78926  Biso   1.000  O
  C117     1.0000 0.21233  0.23957  0.80737  Biso   1.000  C
  C118     1.0000 0.23333  0.18047  0.78998  Biso   1.000  C
  C119     1.0000 0.26273  0.19447  0.75456  Biso   1.000  C
  H59      1.0000 0.27243  0.24217  0.74287  Biso   1.000  H
  C120     1.0000 0.29003  0.09197  0.67947  Biso   1.000  C
  H60      1.0000 0.25683  0.03637  0.68737  Biso   1.000  H
  N30      1.0000 0.35243  0.22777  0.68907  Biso   1.000  N
  O61      1.0000 0.70501  0.14920  0.17148  Biso   1.000  O
  O62      1.0000 0.74361  0.11030  0.12259  Biso   1.000  O
  C121     1.0000 0.69390  0.12100  0.14070  Biso   1.000  C
  C122     1.0000 0.61380  0.10000  0.12331  Biso   1.000  C
  C123     1.0000 0.59840  0.07060  0.08789  Biso   1.000  C
  H61      1.0000 0.63640  0.06090  0.07620  Biso   1.000  H
  C124     1.0000 0.46860  0.04330  0.01280  Biso   1.000  C
  H62      1.0000 0.44620  0.07650  0.02070  Biso   1.000  H
  N31      1.0000 0.54200  0.98090  0.02240  Biso   1.000  N
  O63      1.0000 0.37168  0.48253  0.50481  Biso   1.000  O
  O64      1.0000 0.41028  0.44363  0.45592  Biso   1.000  O
  C125     1.0000 0.36057  0.45433  0.47403  Biso   1.000  C
  C126     1.0000 0.28047  0.43333  0.45664  Biso   1.000  C
  C127     1.0000 0.26507  0.40393  0.42122  Biso   1.000  C
  H63      1.0000 0.30307  0.39423  0.40953  Biso   1.000  H
  C128     1.0000 0.13527  0.37663  0.34613  Biso   1.000  C
  H64      1.0000 0.11287  0.40983  0.35403  Biso   1.000  H
  N32      1.0000 0.20867  0.31423  0.35573  Biso   1.000  N
  O65      1.0000 0.03834  0.81587  0.83815  Biso   1.000  O
  O66      1.0000 0.07694  0.77697  0.78926  Biso   1.000  O
  C129     1.0000 0.02723  0.78767  0.80737  Biso   1.000  C
  C130     1.0000 0.94713  0.76667  0.78998  Biso   1.000  C
  C131     1.0000 0.93173  0.73727  0.75456  Biso   1.000  C
  H65      1.0000 0.96973  0.72757  0.74287  Biso   1.000  H
  C132     1.0000 0.80193  0.70997  0.67947  Biso   1.000  C
  H66      1.0000 0.77953  0.74317  0.68737  Biso   1.000  H
  N33      1.0000 0.87533  0.64757  0.68907  Biso   1.000  N
  O67      1.0000 0.44419  0.29499  0.17148  Biso   1.000  O
  O68      1.0000 0.36669  0.25639  0.12259  Biso   1.000  O
  C133     1.0000 0.42710  0.30610  0.14070  Biso   1.000  C
  C134     1.0000 0.48620  0.38620  0.12331  Biso   1.000  C
  C135     1.0000 0.47220  0.40160  0.08789  Biso   1.000  C
  H67      1.0000 0.42450  0.36360  0.07620  Biso   1.000  H
  C136     1.0000 0.57470  0.53140  0.01280  Biso   1.000  C
  H68      1.0000 0.63030  0.55380  0.02070  Biso   1.000  H
  N34      1.0000 0.43890  0.45800  0.02240  Biso   1.000  N
  O69      1.0000 0.11086  0.62832  0.50481  Biso   1.000  O
  O70      1.0000 0.03336  0.58972  0.45592  Biso   1.000  O
  C137     1.0000 0.09377  0.63943  0.47403  Biso   1.000  C
  C138     1.0000 0.15287  0.71953  0.45664  Biso   1.000  C
  C139     1.0000 0.13887  0.73493  0.42122  Biso   1.000  C
  H69      1.0000 0.09117  0.69693  0.40953  Biso   1.000  H
  C140     1.0000 0.24137  0.86473  0.34613  Biso   1.000  C
  H70      1.0000 0.29697  0.88713  0.35403  Biso   1.000  H
  N35      1.0000 0.10557  0.79133  0.35573  Biso   1.000  N
  O71      1.0000 0.77752  0.96166  0.83815  Biso   1.000  O
  O72      1.0000 0.70002  0.92306  0.78926  Biso   1.000  O
  C141     1.0000 0.76043  0.97277  0.80737  Biso   1.000  C
  C142     1.0000 0.81953  0.05287  0.78998  Biso   1.000  C
  C143     1.0000 0.80553  0.06827  0.75456  Biso   1.000  C
  H71      1.0000 0.75783  0.03027  0.74287  Biso   1.000  H
  C144     1.0000 0.90803  0.19807  0.67947  Biso   1.000  C
  H72      1.0000 0.96363  0.22047  0.68737  Biso   1.000  H
  N36      1.0000 0.77223  0.12467  0.68907  Biso   1.000  N
  Cu1      1.0000 0.37881  0.18941  0.19586  Biso   1.000  Cu
  Cu2      1.0000 0.04548  0.52274  0.52919  Biso   1.000  Cu
  Cu3      1.0000 0.71214  0.85607  0.86252  Biso   1.000  Cu
  Cu4      1.0000 0.81059  0.18941  0.19586  Biso   1.000  Cu
  Cu5      1.0000 0.47726  0.52274  0.52919  Biso   1.000  Cu
  Cu6      1.0000 0.14393  0.85607  0.86252  Biso   1.000  Cu
  Cu7      1.0000 0.81059  0.62119  0.19586  Biso   1.000  Cu
  Cu8      1.0000 0.47726  0.95452  0.52919  Biso   1.000  Cu
  Cu9      1.0000 0.14393  0.28786  0.86252  Biso   1.000  Cu
  Cu10     1.0000 0.18941  0.37881  0.80414  Biso   1.000  Cu
  Cu11     1.0000 0.85607  0.71214  0.13748  Biso   1.000  Cu
  Cu12     1.0000 0.52274  0.04548  0.47081  Biso   1.000  Cu
  Cu13     1.0000 0.18941  0.81059  0.80414  Biso   1.000  Cu
  Cu14     1.0000 0.85607  0.14393  0.13748  Biso   1.000  Cu
  Cu15     1.0000 0.52274  0.47726  0.47081  Biso   1.000  Cu
  Cu16     1.0000 0.62119  0.81059  0.80414  Biso   1.000  Cu
  Cu17     1.0000 0.28786  0.14393  0.13748  Biso   1.000  Cu
  Cu18     1.0000 0.95452  0.47726  0.47081  Biso   1.000  Cu
  C145     1.0000 0.55740  0.11480  0.14041  Biso   1.000  C
  H73      1.0000 0.56740  0.13480  0.16360  Biso   1.000  H
  C146     1.0000 0.52820  0.05640  0.07050  Biso   1.000  C
  C147     1.0000 0.51265  0.02530  0.03430  Biso   1.000  C
  C148     1.0000 0.22407  0.44813  0.47374  Biso   1.000  C
  H74      1.0000 0.23407  0.46813  0.49693  Biso   1.000  H
  C149     1.0000 0.19487  0.38973  0.40383  Biso   1.000  C
  C150     1.0000 0.17932  0.35863  0.36763  Biso   1.000  C
  C151     1.0000 0.89073  0.78147  0.80708  Biso   1.000  C
  H75      1.0000 0.90073  0.80147  0.83027  Biso   1.000  H
  C152     1.0000 0.86153  0.72307  0.73717  Biso   1.000  C
  C153     1.0000 0.84598  0.69197  0.70097  Biso   1.000  C
  C154     1.0000 0.88520  0.44260  0.14041  Biso   1.000  C
  H76      1.0000 0.86520  0.43260  0.16360  Biso   1.000  H
  C155     1.0000 0.94360  0.47180  0.07050  Biso   1.000  C
  C156     1.0000 0.97470  0.48735  0.03430  Biso   1.000  C
  C157     1.0000 0.55187  0.77593  0.47374  Biso   1.000  C
  H77      1.0000 0.53187  0.76593  0.49693  Biso   1.000  H
  C158     1.0000 0.61027  0.80513  0.40383  Biso   1.000  C
  C159     1.0000 0.64137  0.82068  0.36763  Biso   1.000  C
  C160     1.0000 0.21853  0.10927  0.80708  Biso   1.000  C
  H78      1.0000 0.19853  0.09927  0.83027  Biso   1.000  H
  C161     1.0000 0.27693  0.13847  0.73717  Biso   1.000  C
  C162     1.0000 0.30803  0.15402  0.70097  Biso   1.000  C
  C163     1.0000 0.55740  0.44260  0.14041  Biso   1.000  C
  H79      1.0000 0.56740  0.43260  0.16360  Biso   1.000  H
  C164     1.0000 0.52820  0.47180  0.07050  Biso   1.000  C
  C165     1.0000 0.51265  0.48735  0.03430  Biso   1.000  C
  C166     1.0000 0.22407  0.77593  0.47374  Biso   1.000  C
  H80      1.0000 0.23407  0.76593  0.49693  Biso   1.000  H
  C167     1.0000 0.19487  0.80513  0.40383  Biso   1.000  C
  C168     1.0000 0.17932  0.82068  0.36763  Biso   1.000  C
  C169     1.0000 0.89073  0.10927  0.80708  Biso   1.000  C
  H81      1.0000 0.90073  0.09927  0.83027  Biso   1.000  H
  C170     1.0000 0.86153  0.13847  0.73717  Biso   1.000  C
  C171     1.0000 0.84598  0.15402  0.70097  Biso   1.000  C
  C172     1.0000 0.11480  0.55740  0.85959  Biso   1.000  C
  H82      1.0000 0.13480  0.56740  0.83640  Biso   1.000  H
  C173     1.0000 0.05640  0.52820  0.92950  Biso   1.000  C
  C174     1.0000 0.02530  0.51265  0.96570  Biso   1.000  C
  C175     1.0000 0.78147  0.89073  0.19292  Biso   1.000  C
  H83      1.0000 0.80147  0.90073  0.16973  Biso   1.000  H
  C176     1.0000 0.72307  0.86153  0.26283  Biso   1.000  C
  C177     1.0000 0.69197  0.84598  0.29903  Biso   1.000  C
  C178     1.0000 0.44813  0.22407  0.52626  Biso   1.000  C
  H84      1.0000 0.46813  0.23407  0.50307  Biso   1.000  H
  C179     1.0000 0.38973  0.19487  0.59617  Biso   1.000  C
  C180     1.0000 0.35863  0.17932  0.63237  Biso   1.000  C
  C181     1.0000 0.44260  0.88520  0.85959  Biso   1.000  C
  H85      1.0000 0.43260  0.86520  0.83640  Biso   1.000  H
  C182     1.0000 0.47180  0.94360  0.92950  Biso   1.000  C
  C183     1.0000 0.48735  0.97470  0.96570  Biso   1.000  C
  C184     1.0000 0.10927  0.21853  0.19292  Biso   1.000  C
  H86      1.0000 0.09927  0.19853  0.16973  Biso   1.000  H
  C185     1.0000 0.13847  0.27693  0.26283  Biso   1.000  C
  C186     1.0000 0.15402  0.30803  0.29903  Biso   1.000  C
  C187     1.0000 0.77593  0.55187  0.52626  Biso   1.000  C
  H87      1.0000 0.76593  0.53187  0.50307  Biso   1.000  H
  C188     1.0000 0.80513  0.61027  0.59617  Biso   1.000  C
  C189     1.0000 0.82068  0.64137  0.63237  Biso   1.000  C
  C190     1.0000 0.44260  0.55740  0.85959  Biso   1.000  C
  H88      1.0000 0.43260  0.56740  0.83640  Biso   1.000  H
  C191     1.0000 0.47180  0.52820  0.92950  Biso   1.000  C
  C192     1.0000 0.48735  0.51265  0.96570  Biso   1.000  C
  C193     1.0000 0.10927  0.89073  0.19292  Biso   1.000  C
  H89      1.0000 0.09927  0.90073  0.16973  Biso   1.000  H
  C194     1.0000 0.13847  0.86153  0.26283  Biso   1.000  C
  C195     1.0000 0.15402  0.84598  0.29903  Biso   1.000  C
  C196     1.0000 0.77593  0.22407  0.52626  Biso   1.000  C
  H90      1.0000 0.76593  0.23407  0.50307  Biso   1.000  H
  C197     1.0000 0.80513  0.19487  0.59617  Biso   1.000  C
  C198     1.0000 0.82068  0.17932  0.63237  Biso   1.000  C
