data_image0
_cell_length_a       10.9399
_cell_length_b       10.9399
_cell_length_c       9.614
_cell_angle_alpha    90
_cell_angle_beta     90
_cell_angle_gamma    90

_symmetry_space_group_name_H-M    "P 1"
_symmetry_int_tables_number       1

loop_
  _symmetry_equiv_pos_as_xyz
  'x, y, z'

loop_
  _atom_site_label
  _atom_site_occupancy
  _atom_site_fract_x
  _atom_site_fract_y
  _atom_site_fract_z
  _atom_site_thermal_displace_type
  _atom_site_B_iso_or_equiv
  _atom_site_type_symbol
  O1       1.0000 0.18272  0.01660  0.38486  Biso   1.000  O
  C1       1.0000 0.04820  0.11400  0.07990  Biso   1.000  C
  H1       1.0000 0.13100  0.12560  0.11350  Biso   1.000  H
  O2       1.0000 0.81728  0.98340  0.38486  Biso   1.000  O
  C2       1.0000 0.95180  0.88600  0.07990  Biso   1.000  C
  H2       1.0000 0.86900  0.87440  0.11350  Biso   1.000  H
  O3       1.0000 0.98340  0.18272  0.38486  Biso   1.000  O
  C3       1.0000 0.88600  0.04820  0.07990  Biso   1.000  C
  H3       1.0000 0.87440  0.13100  0.11350  Biso   1.000  H
  O4       1.0000 0.01660  0.81728  0.38486  Biso   1.000  O
  C4       1.0000 0.11400  0.95180  0.07990  Biso   1.000  C
  H4       1.0000 0.12560  0.86900  0.11350  Biso   1.000  H
  O5       1.0000 0.81728  0.01660  0.61514  Biso   1.000  O
  C5       1.0000 0.95180  0.11400  0.92010  Biso   1.000  C
  H5       1.0000 0.86900  0.12560  0.88650  Biso   1.000  H
  O6       1.0000 0.18272  0.98340  0.61514  Biso   1.000  O
  C6       1.0000 0.04820  0.88600  0.92010  Biso   1.000  C
  H6       1.0000 0.13100  0.87440  0.88650  Biso   1.000  H
  O7       1.0000 0.01660  0.18272  0.61514  Biso   1.000  O
  C7       1.0000 0.11400  0.04820  0.92010  Biso   1.000  C
  H7       1.0000 0.12560  0.13100  0.88650  Biso   1.000  H
  O8       1.0000 0.98340  0.81728  0.61514  Biso   1.000  O
  C8       1.0000 0.88600  0.95180  0.92010  Biso   1.000  C
  H8       1.0000 0.87440  0.86900  0.88650  Biso   1.000  H
  O9       1.0000 0.81728  0.98340  0.61514  Biso   1.000  O
  C9       1.0000 0.95180  0.88600  0.92010  Biso   1.000  C
  H9       1.0000 0.86900  0.87440  0.88650  Biso   1.000  H
  O10      1.0000 0.18272  0.01660  0.61514  Biso   1.000  O
  C10      1.0000 0.04820  0.11400  0.92010  Biso   1.000  C
  H10      1.0000 0.13100  0.12560  0.88650  Biso   1.000  H
  O11      1.0000 0.01660  0.81728  0.61514  Biso   1.000  O
  C11      1.0000 0.11400  0.95180  0.92010  Biso   1.000  C
  H11      1.0000 0.12560  0.86900  0.88650  Biso   1.000  H
  O12      1.0000 0.98340  0.18272  0.61514  Biso   1.000  O
  C12      1.0000 0.88600  0.04820  0.92010  Biso   1.000  C
  H12      1.0000 0.87440  0.13100  0.88650  Biso   1.000  H
  O13      1.0000 0.18272  0.98340  0.38486  Biso   1.000  O
  C13      1.0000 0.04820  0.88600  0.07990  Biso   1.000  C
  H13      1.0000 0.13100  0.87440  0.11350  Biso   1.000  H
  O14      1.0000 0.81728  0.01660  0.38486  Biso   1.000  O
  C14      1.0000 0.95180  0.11400  0.07990  Biso   1.000  C
  H14      1.0000 0.86900  0.12560  0.11350  Biso   1.000  H
  O15      1.0000 0.98340  0.81728  0.38486  Biso   1.000  O
  C15      1.0000 0.88600  0.95180  0.07990  Biso   1.000  C
  H15      1.0000 0.87440  0.86900  0.11350  Biso   1.000  H
  O16      1.0000 0.01660  0.18272  0.38486  Biso   1.000  O
  C16      1.0000 0.11400  0.04820  0.07990  Biso   1.000  C
  H16      1.0000 0.12560  0.13100  0.11350  Biso   1.000  H
  Zn1      1.0000 0.00000  0.00000  0.34992  Biso   1.000  Zn
  N1       1.0000 0.00000  0.00000  0.13370  Biso   1.000  N
  Zn2      1.0000 0.00000  0.00000  0.65008  Biso   1.000  Zn
  N2       1.0000 0.00000  0.00000  0.86630  Biso   1.000  N
  C17      1.0000 0.23530  0.00000  0.50000  Biso   1.000  C
  C18      1.0000 0.37280  0.00000  0.50000  Biso   1.000  C
  C19      1.0000 0.76470  0.00000  0.50000  Biso   1.000  C
  C20      1.0000 0.62720  0.00000  0.50000  Biso   1.000  C
  C21      1.0000 0.00000  0.23530  0.50000  Biso   1.000  C
  C22      1.0000 0.00000  0.37280  0.50000  Biso   1.000  C
  C23      1.0000 0.00000  0.76470  0.50000  Biso   1.000  C
  C24      1.0000 0.00000  0.62720  0.50000  Biso   1.000  C
  C25      1.0000 0.43672  0.00000  0.62140  Biso   1.000  C
  H17      1.0000 0.39480  0.00000  0.70550  Biso   1.000  H
  C26      1.0000 0.56328  0.00000  0.62140  Biso   1.000  C
  H18      1.0000 0.60520  0.00000  0.70550  Biso   1.000  H
  C27      1.0000 0.00000  0.43672  0.62140  Biso   1.000  C
  H19      1.0000 0.00000  0.39480  0.70550  Biso   1.000  H
  C28      1.0000 0.00000  0.56328  0.62140  Biso   1.000  C
  H20      1.0000 0.00000  0.60520  0.70550  Biso   1.000  H
  C29      1.0000 0.56328  0.00000  0.37860  Biso   1.000  C
  H21      1.0000 0.60520  0.00000  0.29450  Biso   1.000  H
  C30      1.0000 0.43672  0.00000  0.37860  Biso   1.000  C
  H22      1.0000 0.39480  0.00000  0.29450  Biso   1.000  H
  C31      1.0000 0.00000  0.43672  0.37860  Biso   1.000  C
  H23      1.0000 0.00000  0.39480  0.29450  Biso   1.000  H
  C32      1.0000 0.00000  0.56328  0.37860  Biso   1.000  C
  H24      1.0000 0.00000  0.60520  0.29450  Biso   1.000  H
  H25      1.0000 0.00000  0.18150  0.11350  Biso   1.000  H
  H26      1.0000 0.00000  0.81850  0.11350  Biso   1.000  H
  H27      1.0000 0.81850  0.00000  0.11350  Biso   1.000  H
  H28      1.0000 0.18150  0.00000  0.11350  Biso   1.000  H
  H29      1.0000 0.00000  0.18150  0.88650  Biso   1.000  H
  H30      1.0000 0.00000  0.81850  0.88650  Biso   1.000  H
  H31      1.0000 0.18150  0.00000  0.88650  Biso   1.000  H
  H32      1.0000 0.81850  0.00000  0.88650  Biso   1.000  H
