data_image0
_cell_length_a       15.7377
_cell_length_b       21.1254
_cell_length_c       11.7487
_cell_angle_alpha    90
_cell_angle_beta     90
_cell_angle_gamma    90

_symmetry_space_group_name_H-M    "P 1"
_symmetry_int_tables_number       1

loop_
  _symmetry_equiv_pos_as_xyz
  'x, y, z'

loop_
  _atom_site_label
  _atom_site_occupancy
  _atom_site_fract_x
  _atom_site_fract_y
  _atom_site_fract_z
  _atom_site_thermal_displace_type
  _atom_site_B_iso_or_equiv
  _atom_site_type_symbol
  Cd1      1.0000 0.25157  0.41183  0.36997  Biso   1.000  Cd
  C1       1.0000 0.25340  0.41260  0.93210  Biso   1.000  C
  N1       1.0000 0.24610  0.41060  0.17110  Biso   1.000  N
  N2       1.0000 0.26290  0.41330  0.56830  Biso   1.000  N
  C2       1.0000 0.25910  0.41270  0.81060  Biso   1.000  C
  O1       1.0000 0.78360  0.48020  0.35640  Biso   1.000  O
  O2       1.0000 0.87440  0.14050  0.65990  Biso   1.000  O
  O3       1.0000 0.64720  0.49660  0.38380  Biso   1.000  O
  O4       1.0000 0.99720  0.11020  0.58370  Biso   1.000  O
  C3       1.0000 0.70960  0.46070  0.36920  Biso   1.000  C
  C4       1.0000 0.22380  0.46070  0.11390  Biso   1.000  C
  H1       1.0000 0.20480  0.49580  0.15450  Biso   1.000  H
  C5       1.0000 0.47130  0.45000  0.13780  Biso   1.000  C
  H2       1.0000 0.44890  0.41590  0.17790  Biso   1.000  H
  C6       1.0000 0.47380  0.44720  0.02000  Biso   1.000  C
  H3       1.0000 0.45820  0.41050  0.98140  Biso   1.000  H
  C7       1.0000 0.27090  0.36040  0.11210  Biso   1.000  C
  H4       1.0000 0.28770  0.32440  0.15170  Biso   1.000  H
  C8       1.0000 0.22670  0.46500  0.99360  Biso   1.000  C
  H5       1.0000 0.21100  0.50220  0.95670  Biso   1.000  H
  C9       1.0000 0.03370  0.29590  0.45620  Biso   1.000  C
  C10      1.0000 0.51970  0.44910  0.65350  Biso   1.000  C
  H6       1.0000 0.53300  0.41240  0.61370  Biso   1.000  H
  C11      1.0000 0.25140  0.35780  0.74580  Biso   1.000  C
  H7       1.0000 0.24490  0.31900  0.78250  Biso   1.000  H
  C12      1.0000 0.26930  0.46830  0.74750  Biso   1.000  C
  H8       1.0000 0.27280  0.50720  0.78450  Biso   1.000  H
  C13      1.0000 0.27430  0.46550  0.62990  Biso   1.000  C
  H9       1.0000 0.28650  0.50280  0.59110  Biso   1.000  H
  C14      1.0000 0.25320  0.35960  0.62770  Biso   1.000  C
  H10      1.0000 0.24730  0.32180  0.58780  Biso   1.000  H
  C15      1.0000 0.30470  0.37160  0.63000  Biso   1.000  C
  H11      1.0000 0.33630  0.34140  0.59120  Biso   1.000  H
  C16      1.0000 0.30570  0.36840  0.74800  Biso   1.000  C
  H12      1.0000 0.33710  0.33730  0.78520  Biso   1.000  H
  C17      1.0000 0.21900  0.45640  0.73900  Biso   1.000  C
  H13      1.0000 0.18620  0.48710  0.77550  Biso   1.000  H
  C18      1.0000 0.22130  0.45980  0.62000  Biso   1.000  C
  H14      1.0000 0.19550  0.49240  0.57980  Biso   1.000  H
  O5       1.0000 0.17870  0.28850  0.40230  Biso   1.000  O
  C19      1.0000 0.52160  0.44760  0.77020  Biso   1.000  C
  H15      1.0000 0.53760  0.41090  0.80820  Biso   1.000  H
  O6       1.0000 0.11760  0.38030  0.38980  Biso   1.000  O
  C20      1.0000 0.94020  0.14920  0.60050  Biso   1.000  C
  C21      1.0000 0.27300  0.35890  0.99240  Biso   1.000  C
  H16      1.0000 0.28760  0.32180  0.95440  Biso   1.000  H
  N3       1.0000 0.76820  0.35260  0.38260  Biso   1.000  N
  C22      1.0000 0.95040  0.21500  0.55030  Biso   1.000  C
  O7       1.0000 0.77720  0.38200  0.56390  Biso   1.000  O
  C23      1.0000 0.02710  0.23540  0.50540  Biso   1.000  C
  H17      1.0000 0.07440  0.20900  0.50790  Biso   1.000  H
  C24      1.0000 0.87970  0.25360  0.54610  Biso   1.000  C
  H18      1.0000 0.82890  0.24050  0.57880  Biso   1.000  H
  C25      1.0000 0.11710  0.32220  0.41240  Biso   1.000  C
  C26      1.0000 0.88460  0.31200  0.49310  Biso   1.000  C
  C27      1.0000 0.69290  0.39010  0.36330  Biso   1.000  C
  H19      1.0000 0.64840  0.37830  0.41780  Biso   1.000  H
  C28      1.0000 0.80430  0.35220  0.48350  Biso   1.000  C
  C29      1.0000 0.96000  0.33200  0.44650  Biso   1.000  C
  H20      1.0000 0.96190  0.37030  0.40760  Biso   1.000  H
  C30      1.0000 0.66550  0.37130  0.23970  Biso   1.000  C
  H21      1.0000 0.60410  0.36870  0.23300  Biso   1.000  H
  H22      1.0000 0.68690  0.40130  0.18410  Biso   1.000  H
  H23      1.0000 0.62020  0.34010  0.24210  Biso   1.000  H
  H24      1.0000 0.64510  0.40820  0.19880  Biso   1.000  H
  C31      1.0000 0.79500  0.31770  0.28280  Biso   1.000  C
  H25      1.0000 0.82130  0.27760  0.30240  Biso   1.000  H
  H26      1.0000 0.83320  0.34220  0.23530  Biso   1.000  H
  H27      1.0000 0.78440  0.27280  0.29240  Biso   1.000  H
  H28      1.0000 0.85520  0.32400  0.26880  Biso   1.000  H
  C32      1.0000 0.70530  0.30860  0.22600  Biso   1.000  C
  H29      1.0000 0.71080  0.29750  0.14610  Biso   1.000  H
  H30      1.0000 0.67280  0.27610  0.26450  Biso   1.000  H
  C33      1.0000 0.74100  0.34500  0.18300  Biso   1.000  C
  H31      1.0000 0.77230  0.37730  0.14190  Biso   1.000  H
  H32      1.0000 0.72550  0.31150  0.12960  Biso   1.000  H
  Cd2      1.0000 0.74843  0.58817  0.36997  Biso   1.000  Cd
  C34      1.0000 0.74660  0.58740  0.93210  Biso   1.000  C
  N4       1.0000 0.75390  0.58940  0.17110  Biso   1.000  N
  N5       1.0000 0.73710  0.58670  0.56830  Biso   1.000  N
  C35      1.0000 0.74090  0.58730  0.81060  Biso   1.000  C
  O8       1.0000 0.21640  0.51980  0.35640  Biso   1.000  O
  O9       1.0000 0.12560  0.85950  0.65990  Biso   1.000  O
  O10      1.0000 0.35280  0.50340  0.38380  Biso   1.000  O
  O11      1.0000 0.00280  0.88980  0.58370  Biso   1.000  O
  C36      1.0000 0.29040  0.53930  0.36920  Biso   1.000  C
  C37      1.0000 0.77620  0.53930  0.11390  Biso   1.000  C
  H33      1.0000 0.79520  0.50420  0.15450  Biso   1.000  H
  C38      1.0000 0.52870  0.55000  0.13780  Biso   1.000  C
  H34      1.0000 0.55110  0.58410  0.17790  Biso   1.000  H
  C39      1.0000 0.52620  0.55280  0.02000  Biso   1.000  C
  H35      1.0000 0.54180  0.58950  0.98140  Biso   1.000  H
  C40      1.0000 0.72910  0.63960  0.11210  Biso   1.000  C
  H36      1.0000 0.71230  0.67560  0.15170  Biso   1.000  H
  C41      1.0000 0.77330  0.53500  0.99360  Biso   1.000  C
  H37      1.0000 0.78900  0.49780  0.95670  Biso   1.000  H
  C42      1.0000 0.96630  0.70410  0.45620  Biso   1.000  C
  C43      1.0000 0.48030  0.55090  0.65350  Biso   1.000  C
  H38      1.0000 0.46700  0.58760  0.61370  Biso   1.000  H
  C44      1.0000 0.74860  0.64220  0.74580  Biso   1.000  C
  H39      1.0000 0.75510  0.68100  0.78250  Biso   1.000  H
  C45      1.0000 0.73070  0.53170  0.74750  Biso   1.000  C
  H40      1.0000 0.72720  0.49280  0.78450  Biso   1.000  H
  C46      1.0000 0.72570  0.53450  0.62990  Biso   1.000  C
  H41      1.0000 0.71350  0.49720  0.59110  Biso   1.000  H
  C47      1.0000 0.74680  0.64040  0.62770  Biso   1.000  C
  H42      1.0000 0.75270  0.67820  0.58780  Biso   1.000  H
  C48      1.0000 0.69530  0.62840  0.63000  Biso   1.000  C
  H43      1.0000 0.66370  0.65860  0.59120  Biso   1.000  H
  C49      1.0000 0.69430  0.63160  0.74800  Biso   1.000  C
  H44      1.0000 0.66290  0.66270  0.78520  Biso   1.000  H
  C50      1.0000 0.78100  0.54360  0.73900  Biso   1.000  C
  H45      1.0000 0.81380  0.51290  0.77550  Biso   1.000  H
  C51      1.0000 0.77870  0.54020  0.62000  Biso   1.000  C
  H46      1.0000 0.80450  0.50760  0.57980  Biso   1.000  H
  O12      1.0000 0.82130  0.71150  0.40230  Biso   1.000  O
  C52      1.0000 0.47840  0.55240  0.77020  Biso   1.000  C
  H47      1.0000 0.46240  0.58910  0.80820  Biso   1.000  H
  O13      1.0000 0.88240  0.61970  0.38980  Biso   1.000  O
  C53      1.0000 0.05980  0.85080  0.60050  Biso   1.000  C
  C54      1.0000 0.72700  0.64110  0.99240  Biso   1.000  C
  H48      1.0000 0.71240  0.67820  0.95440  Biso   1.000  H
  N6       1.0000 0.23180  0.64740  0.38260  Biso   1.000  N
  C55      1.0000 0.04960  0.78500  0.55030  Biso   1.000  C
  O14      1.0000 0.22280  0.61800  0.56390  Biso   1.000  O
  C56      1.0000 0.97290  0.76460  0.50540  Biso   1.000  C
  H49      1.0000 0.92560  0.79100  0.50790  Biso   1.000  H
  C57      1.0000 0.12030  0.74640  0.54610  Biso   1.000  C
  H50      1.0000 0.17110  0.75950  0.57880  Biso   1.000  H
  C58      1.0000 0.88290  0.67780  0.41240  Biso   1.000  C
  C59      1.0000 0.11540  0.68800  0.49310  Biso   1.000  C
  C60      1.0000 0.30710  0.60990  0.36330  Biso   1.000  C
  H51      1.0000 0.35160  0.62170  0.41780  Biso   1.000  H
  C61      1.0000 0.19570  0.64780  0.48350  Biso   1.000  C
  C62      1.0000 0.04000  0.66800  0.44650  Biso   1.000  C
  H52      1.0000 0.03810  0.62970  0.40760  Biso   1.000  H
  C63      1.0000 0.33450  0.62870  0.23970  Biso   1.000  C
  H53      1.0000 0.39590  0.63130  0.23300  Biso   1.000  H
  H54      1.0000 0.31310  0.59870  0.18410  Biso   1.000  H
  H55      1.0000 0.37980  0.65990  0.24210  Biso   1.000  H
  H56      1.0000 0.35490  0.59180  0.19880  Biso   1.000  H
  C64      1.0000 0.20500  0.68230  0.28280  Biso   1.000  C
  H57      1.0000 0.17870  0.72240  0.30240  Biso   1.000  H
  H58      1.0000 0.16680  0.65780  0.23530  Biso   1.000  H
  H59      1.0000 0.21560  0.72720  0.29240  Biso   1.000  H
  H60      1.0000 0.14480  0.67600  0.26880  Biso   1.000  H
  C65      1.0000 0.29470  0.69140  0.22600  Biso   1.000  C
  H61      1.0000 0.28920  0.70250  0.14610  Biso   1.000  H
  H62      1.0000 0.32720  0.72390  0.26450  Biso   1.000  H
  C66      1.0000 0.25900  0.65500  0.18300  Biso   1.000  C
  H63      1.0000 0.22770  0.62270  0.14190  Biso   1.000  H
  H64      1.0000 0.27450  0.68850  0.12960  Biso   1.000  H
  Cd3      1.0000 0.24843  0.91183  0.63003  Biso   1.000  Cd
  C67      1.0000 0.24660  0.91260  0.06790  Biso   1.000  C
  N7       1.0000 0.25390  0.91060  0.82890  Biso   1.000  N
  N8       1.0000 0.23710  0.91330  0.43170  Biso   1.000  N
  C68      1.0000 0.24090  0.91270  0.18940  Biso   1.000  C
  O15      1.0000 0.71640  0.98020  0.64360  Biso   1.000  O
  O16      1.0000 0.62560  0.64050  0.34010  Biso   1.000  O
  O17      1.0000 0.85280  0.99660  0.61620  Biso   1.000  O
  O18      1.0000 0.50280  0.61020  0.41630  Biso   1.000  O
  C69      1.0000 0.79040  0.96070  0.63080  Biso   1.000  C
  C70      1.0000 0.27620  0.96070  0.88610  Biso   1.000  C
  H65      1.0000 0.29520  0.99580  0.84550  Biso   1.000  H
  C71      1.0000 0.02870  0.95000  0.86220  Biso   1.000  C
  H66      1.0000 0.05110  0.91590  0.82210  Biso   1.000  H
  C72      1.0000 0.02620  0.94720  0.98000  Biso   1.000  C
  H67      1.0000 0.04180  0.91050  0.01860  Biso   1.000  H
  C73      1.0000 0.22910  0.86040  0.88790  Biso   1.000  C
  H68      1.0000 0.21230  0.82440  0.84830  Biso   1.000  H
  C74      1.0000 0.27330  0.96500  0.00640  Biso   1.000  C
  H69      1.0000 0.28900  0.00220  0.04330  Biso   1.000  H
  C75      1.0000 0.46630  0.79590  0.54380  Biso   1.000  C
  C76      1.0000 0.98030  0.94910  0.34650  Biso   1.000  C
  H70      1.0000 0.96700  0.91240  0.38630  Biso   1.000  H
  C77      1.0000 0.24860  0.85780  0.25420  Biso   1.000  C
  H71      1.0000 0.25510  0.81900  0.21750  Biso   1.000  H
  C78      1.0000 0.23070  0.96830  0.25250  Biso   1.000  C
  H72      1.0000 0.22720  0.00720  0.21550  Biso   1.000  H
  C79      1.0000 0.22570  0.96550  0.37010  Biso   1.000  C
  H73      1.0000 0.21350  0.00280  0.40890  Biso   1.000  H
  C80      1.0000 0.24680  0.85960  0.37230  Biso   1.000  C
  H74      1.0000 0.25270  0.82180  0.41220  Biso   1.000  H
  C81      1.0000 0.19530  0.87160  0.37000  Biso   1.000  C
  H75      1.0000 0.16370  0.84140  0.40880  Biso   1.000  H
  C82      1.0000 0.19430  0.86840  0.25200  Biso   1.000  C
  H76      1.0000 0.16290  0.83730  0.21480  Biso   1.000  H
  C83      1.0000 0.28100  0.95640  0.26100  Biso   1.000  C
  H77      1.0000 0.31380  0.98710  0.22450  Biso   1.000  H
  C84      1.0000 0.27870  0.95980  0.38000  Biso   1.000  C
  H78      1.0000 0.30450  0.99240  0.42020  Biso   1.000  H
  O19      1.0000 0.32130  0.78850  0.59770  Biso   1.000  O
  C85      1.0000 0.97840  0.94760  0.22980  Biso   1.000  C
  H79      1.0000 0.96240  0.91090  0.19180  Biso   1.000  H
  O20      1.0000 0.38240  0.88030  0.61020  Biso   1.000  O
  C86      1.0000 0.55980  0.64920  0.39950  Biso   1.000  C
  C87      1.0000 0.22700  0.85890  0.00760  Biso   1.000  C
  H80      1.0000 0.21240  0.82180  0.04560  Biso   1.000  H
  N9       1.0000 0.73180  0.85260  0.61740  Biso   1.000  N
  C88      1.0000 0.54960  0.71500  0.44970  Biso   1.000  C
  O21      1.0000 0.72280  0.88200  0.43610  Biso   1.000  O
  C89      1.0000 0.47290  0.73540  0.49460  Biso   1.000  C
  H81      1.0000 0.42560  0.70900  0.49210  Biso   1.000  H
  C90      1.0000 0.62030  0.75360  0.45390  Biso   1.000  C
  H82      1.0000 0.67110  0.74050  0.42120  Biso   1.000  H
  C91      1.0000 0.38290  0.82220  0.58760  Biso   1.000  C
  C92      1.0000 0.61540  0.81200  0.50690  Biso   1.000  C
  C93      1.0000 0.80710  0.89010  0.63670  Biso   1.000  C
  H83      1.0000 0.85160  0.87830  0.58220  Biso   1.000  H
  C94      1.0000 0.69570  0.85220  0.51650  Biso   1.000  C
  C95      1.0000 0.54000  0.83200  0.55350  Biso   1.000  C
  H84      1.0000 0.53810  0.87030  0.59240  Biso   1.000  H
  C96      1.0000 0.83450  0.87130  0.76030  Biso   1.000  C
  H85      1.0000 0.89590  0.86870  0.76700  Biso   1.000  H
  H86      1.0000 0.81310  0.90130  0.81590  Biso   1.000  H
  H87      1.0000 0.87980  0.84010  0.75790  Biso   1.000  H
  H88      1.0000 0.85490  0.90820  0.80120  Biso   1.000  H
  C97      1.0000 0.70500  0.81770  0.71720  Biso   1.000  C
  H89      1.0000 0.67870  0.77760  0.69760  Biso   1.000  H
  H90      1.0000 0.66680  0.84220  0.76470  Biso   1.000  H
  H91      1.0000 0.71560  0.77280  0.70760  Biso   1.000  H
  H92      1.0000 0.64480  0.82400  0.73120  Biso   1.000  H
  C98      1.0000 0.79470  0.80860  0.77400  Biso   1.000  C
  H93      1.0000 0.78920  0.79750  0.85390  Biso   1.000  H
  H94      1.0000 0.82720  0.77610  0.73550  Biso   1.000  H
  C99      1.0000 0.75900  0.84500  0.81700  Biso   1.000  C
  H95      1.0000 0.72770  0.87730  0.85810  Biso   1.000  H
  H96      1.0000 0.77450  0.81150  0.87040  Biso   1.000  H
  Cd4      1.0000 0.75157  0.08817  0.63003  Biso   1.000  Cd
  C100     1.0000 0.75340  0.08740  0.06790  Biso   1.000  C
  N10      1.0000 0.74610  0.08940  0.82890  Biso   1.000  N
  N11      1.0000 0.76290  0.08670  0.43170  Biso   1.000  N
  C101     1.0000 0.75910  0.08730  0.18940  Biso   1.000  C
  O22      1.0000 0.28360  0.01980  0.64360  Biso   1.000  O
  O23      1.0000 0.37440  0.35950  0.34010  Biso   1.000  O
  O24      1.0000 0.14720  0.00340  0.61620  Biso   1.000  O
  O25      1.0000 0.49720  0.38980  0.41630  Biso   1.000  O
  C102     1.0000 0.20960  0.03930  0.63080  Biso   1.000  C
  C103     1.0000 0.72380  0.03930  0.88610  Biso   1.000  C
  H97      1.0000 0.70480  0.00420  0.84550  Biso   1.000  H
  C104     1.0000 0.97130  0.05000  0.86220  Biso   1.000  C
  H98      1.0000 0.94890  0.08410  0.82210  Biso   1.000  H
  C105     1.0000 0.97380  0.05280  0.98000  Biso   1.000  C
  H99      1.0000 0.95820  0.08950  0.01860  Biso   1.000  H
  C106     1.0000 0.77090  0.13960  0.88790  Biso   1.000  C
  H100     1.0000 0.78770  0.17560  0.84830  Biso   1.000  H
  C107     1.0000 0.72670  0.03500  0.00640  Biso   1.000  C
  H101     1.0000 0.71100  0.99780  0.04330  Biso   1.000  H
  C108     1.0000 0.53370  0.20410  0.54380  Biso   1.000  C
  C109     1.0000 0.01970  0.05090  0.34650  Biso   1.000  C
  H102     1.0000 0.03300  0.08760  0.38630  Biso   1.000  H
  C110     1.0000 0.75140  0.14220  0.25420  Biso   1.000  C
  H103     1.0000 0.74490  0.18100  0.21750  Biso   1.000  H
  C111     1.0000 0.76930  0.03170  0.25250  Biso   1.000  C
  H104     1.0000 0.77280  0.99280  0.21550  Biso   1.000  H
  C112     1.0000 0.77430  0.03450  0.37010  Biso   1.000  C
  H105     1.0000 0.78650  0.99720  0.40890  Biso   1.000  H
  C113     1.0000 0.75320  0.14040  0.37230  Biso   1.000  C
  H106     1.0000 0.74730  0.17820  0.41220  Biso   1.000  H
  C114     1.0000 0.80470  0.12840  0.37000  Biso   1.000  C
  H107     1.0000 0.83630  0.15860  0.40880  Biso   1.000  H
  C115     1.0000 0.80570  0.13160  0.25200  Biso   1.000  C
  H108     1.0000 0.83710  0.16270  0.21480  Biso   1.000  H
  C116     1.0000 0.71900  0.04360  0.26100  Biso   1.000  C
  H109     1.0000 0.68620  0.01290  0.22450  Biso   1.000  H
  C117     1.0000 0.72130  0.04020  0.38000  Biso   1.000  C
  H110     1.0000 0.69550  0.00760  0.42020  Biso   1.000  H
  O26      1.0000 0.67870  0.21150  0.59770  Biso   1.000  O
  C118     1.0000 0.02160  0.05240  0.22980  Biso   1.000  C
  H111     1.0000 0.03760  0.08910  0.19180  Biso   1.000  H
  O27      1.0000 0.61760  0.11970  0.61020  Biso   1.000  O
  C119     1.0000 0.44020  0.35080  0.39950  Biso   1.000  C
  C120     1.0000 0.77300  0.14110  0.00760  Biso   1.000  C
  H112     1.0000 0.78760  0.17820  0.04560  Biso   1.000  H
  N12      1.0000 0.26820  0.14740  0.61740  Biso   1.000  N
  C121     1.0000 0.45040  0.28500  0.44970  Biso   1.000  C
  O28      1.0000 0.27720  0.11800  0.43610  Biso   1.000  O
  C122     1.0000 0.52710  0.26460  0.49460  Biso   1.000  C
  H113     1.0000 0.57440  0.29100  0.49210  Biso   1.000  H
  C123     1.0000 0.37970  0.24640  0.45390  Biso   1.000  C
  H114     1.0000 0.32890  0.25950  0.42120  Biso   1.000  H
  C124     1.0000 0.61710  0.17780  0.58760  Biso   1.000  C
  C125     1.0000 0.38460  0.18800  0.50690  Biso   1.000  C
  C126     1.0000 0.19290  0.10990  0.63670  Biso   1.000  C
  H115     1.0000 0.14840  0.12170  0.58220  Biso   1.000  H
  C127     1.0000 0.30430  0.14780  0.51650  Biso   1.000  C
  C128     1.0000 0.46000  0.16800  0.55350  Biso   1.000  C
  H116     1.0000 0.46190  0.12970  0.59240  Biso   1.000  H
  C129     1.0000 0.16550  0.12870  0.76030  Biso   1.000  C
  H117     1.0000 0.10410  0.13130  0.76700  Biso   1.000  H
  H118     1.0000 0.18690  0.09870  0.81590  Biso   1.000  H
  H119     1.0000 0.12020  0.15990  0.75790  Biso   1.000  H
  H120     1.0000 0.14510  0.09180  0.80120  Biso   1.000  H
  C130     1.0000 0.29500  0.18230  0.71720  Biso   1.000  C
  H121     1.0000 0.32130  0.22240  0.69760  Biso   1.000  H
  H122     1.0000 0.33320  0.15780  0.76470  Biso   1.000  H
  H123     1.0000 0.28440  0.22720  0.70760  Biso   1.000  H
  H124     1.0000 0.35520  0.17600  0.73120  Biso   1.000  H
  C131     1.0000 0.20530  0.19140  0.77400  Biso   1.000  C
  H125     1.0000 0.21080  0.20250  0.85390  Biso   1.000  H
  H126     1.0000 0.17280  0.22390  0.73550  Biso   1.000  H
  C132     1.0000 0.24100  0.15500  0.81700  Biso   1.000  C
  H127     1.0000 0.27230  0.12270  0.85810  Biso   1.000  H
  H128     1.0000 0.22550  0.18850  0.87040  Biso   1.000  H
  Cd5      1.0000 0.50000  0.50000  0.39547  Biso   1.000  Cd
  C133     1.0000 0.50000  0.50000  0.82940  Biso   1.000  C
  C134     1.0000 0.50000  0.50000  0.96200  Biso   1.000  C
  N13      1.0000 0.50000  0.50000  0.19570  Biso   1.000  N
  N14      1.0000 0.50000  0.50000  0.59580  Biso   1.000  N
  Cd6      1.0000 0.00000  0.00000  0.60453  Biso   1.000  Cd
  C135     1.0000 0.00000  0.00000  0.17060  Biso   1.000  C
  C136     1.0000 0.00000  0.00000  0.03800  Biso   1.000  C
  N15      1.0000 0.00000  0.00000  0.80430  Biso   1.000  N
  N16      1.0000 0.00000  0.00000  0.40420  Biso   1.000  N
