data_image0
_cell_length_a       22.497
_cell_length_b       19.421
_cell_length_c       12.646
_cell_angle_alpha    90
_cell_angle_beta     90
_cell_angle_gamma    90

_symmetry_space_group_name_H-M    "P 1"
_symmetry_int_tables_number       1

loop_
  _symmetry_equiv_pos_as_xyz
  'x, y, z'

loop_
  _atom_site_label
  _atom_site_occupancy
  _atom_site_fract_x
  _atom_site_fract_y
  _atom_site_fract_z
  _atom_site_thermal_displace_type
  _atom_site_B_iso_or_equiv
  _atom_site_type_symbol
  Cd1      1.0000 0.07524  0.48857  0.06144  Biso   1.000  Cd
  O1       1.0000 0.99907  0.56487  0.06910  Biso   1.000  O
  O2       1.0000 0.07761  0.62420  0.01620  Biso   1.000  O
  O3       1.0000 0.01237  0.43361  0.20360  Biso   1.000  O
  O4       1.0000 0.08234  0.37762  0.11780  Biso   1.000  O
  N1       1.0000 0.15466  0.53123  0.15940  Biso   1.000  N
  N2       1.0000 0.18464  0.58355  0.11360  Biso   1.000  N
  H1       1.0000 0.17200  0.61600  0.07600  Biso   1.000  H
  N3       1.0000 0.37181  0.51259  0.40770  Biso   1.000  N
  N4       1.0000 0.39321  0.48260  0.32020  Biso   1.000  N
  H2       1.0000 0.43100  0.46500  0.31200  Biso   1.000  H
  C1       1.0000 0.02507  0.62203  0.05120  Biso   1.000  C
  C2       1.0000 0.99289  0.68767  0.07150  Biso   1.000  C
  C3       1.0000 0.93416  0.68754  0.10860  Biso   1.000  C
  H3       1.0000 0.91460  0.64600  0.11970  Biso   1.000  H
  C4       1.0000 0.04005  0.37846  0.18140  Biso   1.000  C
  C5       1.0000 0.02169  0.31166  0.23320  Biso   1.000  C
  C6       1.0000 0.98603  0.31170  0.32270  Biso   1.000  C
  H4       1.0000 0.97240  0.35310  0.35060  Biso   1.000  H
  C7       1.0000 0.17800  0.44120  0.29180  Biso   1.000  C
  H5       1.0000 0.15990  0.40660  0.24830  Biso   1.000  H
  H6       1.0000 0.15060  0.45520  0.34580  Biso   1.000  H
  H7       1.0000 0.21320  0.42280  0.32410  Biso   1.000  H
  C8       1.0000 0.19425  0.50190  0.22520  Biso   1.000  C
  C9       1.0000 0.24875  0.53720  0.22100  Biso   1.000  C
  C10      1.0000 0.24112  0.58920  0.14880  Biso   1.000  C
  C11      1.0000 0.28400  0.64400  0.11170  Biso   1.000  C
  H8       1.0000 0.26340  0.67650  0.06770  Biso   1.000  H
  H9       1.0000 0.31550  0.62290  0.07190  Biso   1.000  H
  H10      1.0000 0.30050  0.66740  0.17180  Biso   1.000  H
  C12      1.0000 0.27600  0.55550  0.45470  Biso   1.000  C
  H11      1.0000 0.25670  0.51540  0.48310  Biso   1.000  H
  H12      1.0000 0.24710  0.58390  0.41970  Biso   1.000  H
  H13      1.0000 0.29410  0.58100  0.51110  Biso   1.000  H
  C13      1.0000 0.28300  0.58290  0.46090  Biso   1.000  C
  H14      1.0000 0.26610  0.55560  0.51650  Biso   1.000  H
  H15      1.0000 0.25190  0.60580  0.42280  Biso   1.000  H
  H16      1.0000 0.30940  0.61650  0.49080  Biso   1.000  H
  C14      1.0000 0.31791  0.53600  0.38500  Biso   1.000  C
  C15      1.0000 0.30408  0.52000  0.27940  Biso   1.000  C
  C16      1.0000 0.35340  0.48650  0.24020  Biso   1.000  C
  C17      1.0000 0.35300  0.43010  0.15260  Biso   1.000  C
  H17      1.0000 0.39280  0.41390  0.14090  Biso   1.000  H
  H18      1.0000 0.33750  0.44920  0.08820  Biso   1.000  H
  H19      1.0000 0.32840  0.39240  0.17480  Biso   1.000  H
  C18      1.0000 0.36970  0.46700  0.12640  Biso   1.000  C
  H20      1.0000 0.35920  0.50400  0.07970  Biso   1.000  H
  H21      1.0000 0.34850  0.42610  0.10630  Biso   1.000  H
  H22      1.0000 0.41170  0.45860  0.12190  Biso   1.000  H
  Cd2      1.0000 0.42476  0.51143  0.56144  Biso   1.000  Cd
  O5       1.0000 0.50093  0.43513  0.56910  Biso   1.000  O
  O6       1.0000 0.42239  0.37580  0.51620  Biso   1.000  O
  O7       1.0000 0.48763  0.56639  0.70360  Biso   1.000  O
  O8       1.0000 0.41766  0.62238  0.61780  Biso   1.000  O
  N5       1.0000 0.34534  0.46877  0.65940  Biso   1.000  N
  N6       1.0000 0.31536  0.41645  0.61360  Biso   1.000  N
  H23      1.0000 0.32800  0.38400  0.57600  Biso   1.000  H
  N7       1.0000 0.12819  0.48741  0.90770  Biso   1.000  N
  N8       1.0000 0.10679  0.51740  0.82020  Biso   1.000  N
  H24      1.0000 0.06900  0.53500  0.81200  Biso   1.000  H
  C19      1.0000 0.47493  0.37797  0.55120  Biso   1.000  C
  C20      1.0000 0.50711  0.31233  0.57150  Biso   1.000  C
  C21      1.0000 0.56584  0.31246  0.60860  Biso   1.000  C
  H25      1.0000 0.58540  0.35400  0.61970  Biso   1.000  H
  C22      1.0000 0.45995  0.62154  0.68140  Biso   1.000  C
  C23      1.0000 0.47831  0.68834  0.73320  Biso   1.000  C
  C24      1.0000 0.51397  0.68830  0.82270  Biso   1.000  C
  H26      1.0000 0.52760  0.64690  0.85060  Biso   1.000  H
  C25      1.0000 0.32200  0.55880  0.79180  Biso   1.000  C
  H27      1.0000 0.34010  0.59340  0.74830  Biso   1.000  H
  H28      1.0000 0.34940  0.54480  0.84580  Biso   1.000  H
  H29      1.0000 0.28680  0.57720  0.82410  Biso   1.000  H
  C26      1.0000 0.30575  0.49810  0.72520  Biso   1.000  C
  C27      1.0000 0.25125  0.46280  0.72100  Biso   1.000  C
  C28      1.0000 0.25888  0.41080  0.64880  Biso   1.000  C
  C29      1.0000 0.21600  0.35600  0.61170  Biso   1.000  C
  H30      1.0000 0.23660  0.32350  0.56770  Biso   1.000  H
  H31      1.0000 0.18450  0.37710  0.57190  Biso   1.000  H
  H32      1.0000 0.19950  0.33260  0.67180  Biso   1.000  H
  C30      1.0000 0.22400  0.44450  0.95470  Biso   1.000  C
  H33      1.0000 0.24330  0.48460  0.98310  Biso   1.000  H
  H34      1.0000 0.25290  0.41610  0.91970  Biso   1.000  H
  H35      1.0000 0.20590  0.41900  0.01110  Biso   1.000  H
  C31      1.0000 0.21700  0.41710  0.96090  Biso   1.000  C
  H36      1.0000 0.23390  0.44440  0.01650  Biso   1.000  H
  H37      1.0000 0.24810  0.39420  0.92280  Biso   1.000  H
  H38      1.0000 0.19060  0.38350  0.99080  Biso   1.000  H
  C32      1.0000 0.18209  0.46400  0.88500  Biso   1.000  C
  C33      1.0000 0.19592  0.48000  0.77940  Biso   1.000  C
  C34      1.0000 0.14660  0.51350  0.74020  Biso   1.000  C
  C35      1.0000 0.14700  0.56990  0.65260  Biso   1.000  C
  H39      1.0000 0.10720  0.58610  0.64090  Biso   1.000  H
  H40      1.0000 0.16250  0.55080  0.58820  Biso   1.000  H
  H41      1.0000 0.17160  0.60760  0.67480  Biso   1.000  H
  C36      1.0000 0.13030  0.53300  0.62640  Biso   1.000  C
  H42      1.0000 0.14080  0.49600  0.57970  Biso   1.000  H
  H43      1.0000 0.15150  0.57390  0.60630  Biso   1.000  H
  H44      1.0000 0.08830  0.54140  0.62190  Biso   1.000  H
  Cd3      1.0000 0.07524  0.01143  0.06144  Biso   1.000  Cd
  O9       1.0000 0.99907  0.93513  0.06910  Biso   1.000  O
  O10      1.0000 0.07761  0.87580  0.01620  Biso   1.000  O
  O11      1.0000 0.01237  0.06639  0.20360  Biso   1.000  O
  O12      1.0000 0.08234  0.12238  0.11780  Biso   1.000  O
  N9       1.0000 0.15466  0.96877  0.15940  Biso   1.000  N
  N10      1.0000 0.18464  0.91645  0.11360  Biso   1.000  N
  H45      1.0000 0.17200  0.88400  0.07600  Biso   1.000  H
  N11      1.0000 0.37181  0.98741  0.40770  Biso   1.000  N
  N12      1.0000 0.39321  0.01740  0.32020  Biso   1.000  N
  H46      1.0000 0.43100  0.03500  0.31200  Biso   1.000  H
  C37      1.0000 0.02507  0.87797  0.05120  Biso   1.000  C
  C38      1.0000 0.99289  0.81233  0.07150  Biso   1.000  C
  C39      1.0000 0.93416  0.81246  0.10860  Biso   1.000  C
  H47      1.0000 0.91460  0.85400  0.11970  Biso   1.000  H
  C40      1.0000 0.04005  0.12154  0.18140  Biso   1.000  C
  C41      1.0000 0.02169  0.18834  0.23320  Biso   1.000  C
  C42      1.0000 0.98603  0.18830  0.32270  Biso   1.000  C
  H48      1.0000 0.97240  0.14690  0.35060  Biso   1.000  H
  C43      1.0000 0.17800  0.05880  0.29180  Biso   1.000  C
  H49      1.0000 0.15990  0.09340  0.24830  Biso   1.000  H
  H50      1.0000 0.15060  0.04480  0.34580  Biso   1.000  H
  H51      1.0000 0.21320  0.07720  0.32410  Biso   1.000  H
  C44      1.0000 0.19425  0.99810  0.22520  Biso   1.000  C
  C45      1.0000 0.24875  0.96280  0.22100  Biso   1.000  C
  C46      1.0000 0.24112  0.91080  0.14880  Biso   1.000  C
  C47      1.0000 0.28400  0.85600  0.11170  Biso   1.000  C
  H52      1.0000 0.26340  0.82350  0.06770  Biso   1.000  H
  H53      1.0000 0.31550  0.87710  0.07190  Biso   1.000  H
  H54      1.0000 0.30050  0.83260  0.17180  Biso   1.000  H
  C48      1.0000 0.27600  0.94450  0.45470  Biso   1.000  C
  H55      1.0000 0.25670  0.98460  0.48310  Biso   1.000  H
  H56      1.0000 0.24710  0.91610  0.41970  Biso   1.000  H
  H57      1.0000 0.29410  0.91900  0.51110  Biso   1.000  H
  C49      1.0000 0.28300  0.91710  0.46090  Biso   1.000  C
  H58      1.0000 0.26610  0.94440  0.51650  Biso   1.000  H
  H59      1.0000 0.25190  0.89420  0.42280  Biso   1.000  H
  H60      1.0000 0.30940  0.88350  0.49080  Biso   1.000  H
  C50      1.0000 0.31791  0.96400  0.38500  Biso   1.000  C
  C51      1.0000 0.30408  0.98000  0.27940  Biso   1.000  C
  C52      1.0000 0.35340  0.01350  0.24020  Biso   1.000  C
  C53      1.0000 0.35300  0.06990  0.15260  Biso   1.000  C
  H61      1.0000 0.39280  0.08610  0.14090  Biso   1.000  H
  H62      1.0000 0.33750  0.05080  0.08820  Biso   1.000  H
  H63      1.0000 0.32840  0.10760  0.17480  Biso   1.000  H
  C54      1.0000 0.36970  0.03300  0.12640  Biso   1.000  C
  H64      1.0000 0.35920  0.99600  0.07970  Biso   1.000  H
  H65      1.0000 0.34850  0.07390  0.10630  Biso   1.000  H
  H66      1.0000 0.41170  0.04140  0.12190  Biso   1.000  H
  Cd4      1.0000 0.42476  0.98857  0.56144  Biso   1.000  Cd
  O13      1.0000 0.50093  0.06487  0.56910  Biso   1.000  O
  O14      1.0000 0.42239  0.12420  0.51620  Biso   1.000  O
  O15      1.0000 0.48763  0.93361  0.70360  Biso   1.000  O
  O16      1.0000 0.41766  0.87762  0.61780  Biso   1.000  O
  N13      1.0000 0.34534  0.03123  0.65940  Biso   1.000  N
  N14      1.0000 0.31536  0.08355  0.61360  Biso   1.000  N
  H67      1.0000 0.32800  0.11600  0.57600  Biso   1.000  H
  N15      1.0000 0.12819  0.01259  0.90770  Biso   1.000  N
  N16      1.0000 0.10679  0.98260  0.82020  Biso   1.000  N
  H68      1.0000 0.06900  0.96500  0.81200  Biso   1.000  H
  C55      1.0000 0.47493  0.12203  0.55120  Biso   1.000  C
  C56      1.0000 0.50711  0.18767  0.57150  Biso   1.000  C
  C57      1.0000 0.56584  0.18754  0.60860  Biso   1.000  C
  H69      1.0000 0.58540  0.14600  0.61970  Biso   1.000  H
  C58      1.0000 0.45995  0.87846  0.68140  Biso   1.000  C
  C59      1.0000 0.47831  0.81166  0.73320  Biso   1.000  C
  C60      1.0000 0.51397  0.81170  0.82270  Biso   1.000  C
  H70      1.0000 0.52760  0.85310  0.85060  Biso   1.000  H
  C61      1.0000 0.32200  0.94120  0.79180  Biso   1.000  C
  H71      1.0000 0.34010  0.90660  0.74830  Biso   1.000  H
  H72      1.0000 0.34940  0.95520  0.84580  Biso   1.000  H
  H73      1.0000 0.28680  0.92280  0.82410  Biso   1.000  H
  C62      1.0000 0.30575  0.00190  0.72520  Biso   1.000  C
  C63      1.0000 0.25125  0.03720  0.72100  Biso   1.000  C
  C64      1.0000 0.25888  0.08920  0.64880  Biso   1.000  C
  C65      1.0000 0.21600  0.14400  0.61170  Biso   1.000  C
  H74      1.0000 0.23660  0.17650  0.56770  Biso   1.000  H
  H75      1.0000 0.18450  0.12290  0.57190  Biso   1.000  H
  H76      1.0000 0.19950  0.16740  0.67180  Biso   1.000  H
  C66      1.0000 0.22400  0.05550  0.95470  Biso   1.000  C
  H77      1.0000 0.24330  0.01540  0.98310  Biso   1.000  H
  H78      1.0000 0.25290  0.08390  0.91970  Biso   1.000  H
  H79      1.0000 0.20590  0.08100  0.01110  Biso   1.000  H
  C67      1.0000 0.21700  0.08290  0.96090  Biso   1.000  C
  H80      1.0000 0.23390  0.05560  0.01650  Biso   1.000  H
  H81      1.0000 0.24810  0.10580  0.92280  Biso   1.000  H
  H82      1.0000 0.19060  0.11650  0.99080  Biso   1.000  H
  C68      1.0000 0.18209  0.03600  0.88500  Biso   1.000  C
  C69      1.0000 0.19592  0.02000  0.77940  Biso   1.000  C
  C70      1.0000 0.14660  0.98650  0.74020  Biso   1.000  C
  C71      1.0000 0.14700  0.93010  0.65260  Biso   1.000  C
  H83      1.0000 0.10720  0.91390  0.64090  Biso   1.000  H
  H84      1.0000 0.16250  0.94920  0.58820  Biso   1.000  H
  H85      1.0000 0.17160  0.89240  0.67480  Biso   1.000  H
  C72      1.0000 0.13030  0.96700  0.62640  Biso   1.000  C
  H86      1.0000 0.14080  0.00400  0.57970  Biso   1.000  H
  H87      1.0000 0.15150  0.92610  0.60630  Biso   1.000  H
  H88      1.0000 0.08830  0.95860  0.62190  Biso   1.000  H
  C73      1.0000 0.90460  0.75000  0.12920  Biso   1.000  C
  H89      1.0000 0.86610  0.75000  0.15590  Biso   1.000  H
  C74      1.0000 0.02074  0.75000  0.05380  Biso   1.000  C
  H90      1.0000 0.05970  0.75000  0.02910  Biso   1.000  H
  C75      1.0000 0.59540  0.25000  0.62920  Biso   1.000  C
  H91      1.0000 0.63390  0.25000  0.65590  Biso   1.000  H
  C76      1.0000 0.47926  0.25000  0.55380  Biso   1.000  C
  H92      1.0000 0.44030  0.25000  0.52910  Biso   1.000  H
  C77      1.0000 0.97070  0.25000  0.37040  Biso   1.000  C
  H93      1.0000 0.95020  0.25000  0.43430  Biso   1.000  H
  C78      1.0000 0.03902  0.25000  0.19120  Biso   1.000  C
  H94      1.0000 0.06350  0.25000  0.13190  Biso   1.000  H
  C79      1.0000 0.52930  0.75000  0.87040  Biso   1.000  C
  H95      1.0000 0.54980  0.75000  0.93430  Biso   1.000  H
  C80      1.0000 0.46098  0.75000  0.69120  Biso   1.000  C
  H96      1.0000 0.43650  0.75000  0.63190  Biso   1.000  H
  Cd5      1.0000 0.92476  0.98857  0.93856  Biso   1.000  Cd
  O17      1.0000 0.00093  0.06487  0.93090  Biso   1.000  O
  O18      1.0000 0.92239  0.12420  0.98380  Biso   1.000  O
  O19      1.0000 0.98763  0.93361  0.79640  Biso   1.000  O
  O20      1.0000 0.91766  0.87762  0.88220  Biso   1.000  O
  N17      1.0000 0.84534  0.03123  0.84060  Biso   1.000  N
  N18      1.0000 0.81536  0.08355  0.88640  Biso   1.000  N
  H97      1.0000 0.82800  0.11600  0.92400  Biso   1.000  H
  N19      1.0000 0.62819  0.01259  0.59230  Biso   1.000  N
  N20      1.0000 0.60679  0.98260  0.67980  Biso   1.000  N
  H98      1.0000 0.56900  0.96500  0.68800  Biso   1.000  H
  C81      1.0000 0.97493  0.12203  0.94880  Biso   1.000  C
  C82      1.0000 0.00711  0.18767  0.92850  Biso   1.000  C
  C83      1.0000 0.06584  0.18754  0.89140  Biso   1.000  C
  H99      1.0000 0.08540  0.14600  0.88030  Biso   1.000  H
  C84      1.0000 0.95995  0.87846  0.81860  Biso   1.000  C
  C85      1.0000 0.97831  0.81166  0.76680  Biso   1.000  C
  C86      1.0000 0.01397  0.81170  0.67730  Biso   1.000  C
  H100     1.0000 0.02760  0.85310  0.64940  Biso   1.000  H
  C87      1.0000 0.82200  0.94120  0.70820  Biso   1.000  C
  H101     1.0000 0.84010  0.90660  0.75170  Biso   1.000  H
  H102     1.0000 0.84940  0.95520  0.65420  Biso   1.000  H
  H103     1.0000 0.78680  0.92280  0.67590  Biso   1.000  H
  C88      1.0000 0.80575  0.00190  0.77480  Biso   1.000  C
  C89      1.0000 0.75125  0.03720  0.77900  Biso   1.000  C
  C90      1.0000 0.75888  0.08920  0.85120  Biso   1.000  C
  C91      1.0000 0.71600  0.14400  0.88830  Biso   1.000  C
  H104     1.0000 0.73660  0.17650  0.93230  Biso   1.000  H
  H105     1.0000 0.68450  0.12290  0.92810  Biso   1.000  H
  H106     1.0000 0.69950  0.16740  0.82820  Biso   1.000  H
  C92      1.0000 0.72400  0.05550  0.54530  Biso   1.000  C
  H107     1.0000 0.74330  0.01540  0.51690  Biso   1.000  H
  H108     1.0000 0.75290  0.08390  0.58030  Biso   1.000  H
  H109     1.0000 0.70590  0.08100  0.48890  Biso   1.000  H
  C93      1.0000 0.71700  0.08290  0.53910  Biso   1.000  C
  H110     1.0000 0.73390  0.05560  0.48350  Biso   1.000  H
  H111     1.0000 0.74810  0.10580  0.57720  Biso   1.000  H
  H112     1.0000 0.69060  0.11650  0.50920  Biso   1.000  H
  C94      1.0000 0.68209  0.03600  0.61500  Biso   1.000  C
  C95      1.0000 0.69592  0.02000  0.72060  Biso   1.000  C
  C96      1.0000 0.64660  0.98650  0.75980  Biso   1.000  C
  C97      1.0000 0.64700  0.93010  0.84740  Biso   1.000  C
  H113     1.0000 0.60720  0.91390  0.85910  Biso   1.000  H
  H114     1.0000 0.66250  0.94920  0.91180  Biso   1.000  H
  H115     1.0000 0.67160  0.89240  0.82520  Biso   1.000  H
  C98      1.0000 0.63030  0.96700  0.87360  Biso   1.000  C
  H116     1.0000 0.64080  0.00400  0.92030  Biso   1.000  H
  H117     1.0000 0.65150  0.92610  0.89370  Biso   1.000  H
  H118     1.0000 0.58830  0.95860  0.87810  Biso   1.000  H
  Cd6      1.0000 0.57524  0.01143  0.43856  Biso   1.000  Cd
  O21      1.0000 0.49907  0.93513  0.43090  Biso   1.000  O
  O22      1.0000 0.57761  0.87580  0.48380  Biso   1.000  O
  O23      1.0000 0.51237  0.06639  0.29640  Biso   1.000  O
  O24      1.0000 0.58234  0.12238  0.38220  Biso   1.000  O
  N21      1.0000 0.65466  0.96877  0.34060  Biso   1.000  N
  N22      1.0000 0.68464  0.91645  0.38640  Biso   1.000  N
  H119     1.0000 0.67200  0.88400  0.42400  Biso   1.000  H
  N23      1.0000 0.87181  0.98741  0.09230  Biso   1.000  N
  N24      1.0000 0.89321  0.01740  0.17980  Biso   1.000  N
  H120     1.0000 0.93100  0.03500  0.18800  Biso   1.000  H
  C99      1.0000 0.52507  0.87797  0.44880  Biso   1.000  C
  C100     1.0000 0.49289  0.81233  0.42850  Biso   1.000  C
  C101     1.0000 0.43416  0.81246  0.39140  Biso   1.000  C
  H121     1.0000 0.41460  0.85400  0.38030  Biso   1.000  H
  C102     1.0000 0.54005  0.12154  0.31860  Biso   1.000  C
  C103     1.0000 0.52169  0.18834  0.26680  Biso   1.000  C
  C104     1.0000 0.48603  0.18830  0.17730  Biso   1.000  C
  H122     1.0000 0.47240  0.14690  0.14940  Biso   1.000  H
  C105     1.0000 0.67800  0.05880  0.20820  Biso   1.000  C
  H123     1.0000 0.65990  0.09340  0.25170  Biso   1.000  H
  H124     1.0000 0.65060  0.04480  0.15420  Biso   1.000  H
  H125     1.0000 0.71320  0.07720  0.17590  Biso   1.000  H
  C106     1.0000 0.69425  0.99810  0.27480  Biso   1.000  C
  C107     1.0000 0.74875  0.96280  0.27900  Biso   1.000  C
  C108     1.0000 0.74112  0.91080  0.35120  Biso   1.000  C
  C109     1.0000 0.78400  0.85600  0.38830  Biso   1.000  C
  H126     1.0000 0.76340  0.82350  0.43230  Biso   1.000  H
  H127     1.0000 0.81550  0.87710  0.42810  Biso   1.000  H
  H128     1.0000 0.80050  0.83260  0.32820  Biso   1.000  H
  C110     1.0000 0.77600  0.94450  0.04530  Biso   1.000  C
  H129     1.0000 0.75670  0.98460  0.01690  Biso   1.000  H
  H130     1.0000 0.74710  0.91610  0.08030  Biso   1.000  H
  H131     1.0000 0.79410  0.91900  0.98890  Biso   1.000  H
  C111     1.0000 0.78300  0.91710  0.03910  Biso   1.000  C
  H132     1.0000 0.76610  0.94440  0.98350  Biso   1.000  H
  H133     1.0000 0.75190  0.89420  0.07720  Biso   1.000  H
  H134     1.0000 0.80940  0.88350  0.00920  Biso   1.000  H
  C112     1.0000 0.81791  0.96400  0.11500  Biso   1.000  C
  C113     1.0000 0.80408  0.98000  0.22060  Biso   1.000  C
  C114     1.0000 0.85340  0.01350  0.25980  Biso   1.000  C
  C115     1.0000 0.85300  0.06990  0.34740  Biso   1.000  C
  H135     1.0000 0.89280  0.08610  0.35910  Biso   1.000  H
  H136     1.0000 0.83750  0.05080  0.41180  Biso   1.000  H
  H137     1.0000 0.82840  0.10760  0.32520  Biso   1.000  H
  C116     1.0000 0.86970  0.03300  0.37360  Biso   1.000  C
  H138     1.0000 0.85920  0.99600  0.42030  Biso   1.000  H
  H139     1.0000 0.84850  0.07390  0.39370  Biso   1.000  H
  H140     1.0000 0.91170  0.04140  0.37810  Biso   1.000  H
  Cd7      1.0000 0.92476  0.51143  0.93856  Biso   1.000  Cd
  O25      1.0000 0.00093  0.43513  0.93090  Biso   1.000  O
  O26      1.0000 0.92239  0.37580  0.98380  Biso   1.000  O
  O27      1.0000 0.98763  0.56639  0.79640  Biso   1.000  O
  O28      1.0000 0.91766  0.62238  0.88220  Biso   1.000  O
  N25      1.0000 0.84534  0.46877  0.84060  Biso   1.000  N
  N26      1.0000 0.81536  0.41645  0.88640  Biso   1.000  N
  H141     1.0000 0.82800  0.38400  0.92400  Biso   1.000  H
  N27      1.0000 0.62819  0.48741  0.59230  Biso   1.000  N
  N28      1.0000 0.60679  0.51740  0.67980  Biso   1.000  N
  H142     1.0000 0.56900  0.53500  0.68800  Biso   1.000  H
  C117     1.0000 0.97493  0.37797  0.94880  Biso   1.000  C
  C118     1.0000 0.00711  0.31233  0.92850  Biso   1.000  C
  C119     1.0000 0.06584  0.31246  0.89140  Biso   1.000  C
  H143     1.0000 0.08540  0.35400  0.88030  Biso   1.000  H
  C120     1.0000 0.95995  0.62154  0.81860  Biso   1.000  C
  C121     1.0000 0.97831  0.68834  0.76680  Biso   1.000  C
  C122     1.0000 0.01397  0.68830  0.67730  Biso   1.000  C
  H144     1.0000 0.02760  0.64690  0.64940  Biso   1.000  H
  C123     1.0000 0.82200  0.55880  0.70820  Biso   1.000  C
  H145     1.0000 0.84010  0.59340  0.75170  Biso   1.000  H
  H146     1.0000 0.84940  0.54480  0.65420  Biso   1.000  H
  H147     1.0000 0.78680  0.57720  0.67590  Biso   1.000  H
  C124     1.0000 0.80575  0.49810  0.77480  Biso   1.000  C
  C125     1.0000 0.75125  0.46280  0.77900  Biso   1.000  C
  C126     1.0000 0.75888  0.41080  0.85120  Biso   1.000  C
  C127     1.0000 0.71600  0.35600  0.88830  Biso   1.000  C
  H148     1.0000 0.73660  0.32350  0.93230  Biso   1.000  H
  H149     1.0000 0.68450  0.37710  0.92810  Biso   1.000  H
  H150     1.0000 0.69950  0.33260  0.82820  Biso   1.000  H
  C128     1.0000 0.72400  0.44450  0.54530  Biso   1.000  C
  H151     1.0000 0.74330  0.48460  0.51690  Biso   1.000  H
  H152     1.0000 0.75290  0.41610  0.58030  Biso   1.000  H
  H153     1.0000 0.70590  0.41900  0.48890  Biso   1.000  H
  C129     1.0000 0.71700  0.41710  0.53910  Biso   1.000  C
  H154     1.0000 0.73390  0.44440  0.48350  Biso   1.000  H
  H155     1.0000 0.74810  0.39420  0.57720  Biso   1.000  H
  H156     1.0000 0.69060  0.38350  0.50920  Biso   1.000  H
  C130     1.0000 0.68209  0.46400  0.61500  Biso   1.000  C
  C131     1.0000 0.69592  0.48000  0.72060  Biso   1.000  C
  C132     1.0000 0.64660  0.51350  0.75980  Biso   1.000  C
  C133     1.0000 0.64700  0.56990  0.84740  Biso   1.000  C
  H157     1.0000 0.60720  0.58610  0.85910  Biso   1.000  H
  H158     1.0000 0.66250  0.55080  0.91180  Biso   1.000  H
  H159     1.0000 0.67160  0.60760  0.82520  Biso   1.000  H
  C134     1.0000 0.63030  0.53300  0.87360  Biso   1.000  C
  H160     1.0000 0.64080  0.49600  0.92030  Biso   1.000  H
  H161     1.0000 0.65150  0.57390  0.89370  Biso   1.000  H
  H162     1.0000 0.58830  0.54140  0.87810  Biso   1.000  H
  Cd8      1.0000 0.57524  0.48857  0.43856  Biso   1.000  Cd
  O29      1.0000 0.49907  0.56487  0.43090  Biso   1.000  O
  O30      1.0000 0.57761  0.62420  0.48380  Biso   1.000  O
  O31      1.0000 0.51237  0.43361  0.29640  Biso   1.000  O
  O32      1.0000 0.58234  0.37762  0.38220  Biso   1.000  O
  N29      1.0000 0.65466  0.53123  0.34060  Biso   1.000  N
  N30      1.0000 0.68464  0.58355  0.38640  Biso   1.000  N
  H163     1.0000 0.67200  0.61600  0.42400  Biso   1.000  H
  N31      1.0000 0.87181  0.51259  0.09230  Biso   1.000  N
  N32      1.0000 0.89321  0.48260  0.17980  Biso   1.000  N
  H164     1.0000 0.93100  0.46500  0.18800  Biso   1.000  H
  C135     1.0000 0.52507  0.62203  0.44880  Biso   1.000  C
  C136     1.0000 0.49289  0.68767  0.42850  Biso   1.000  C
  C137     1.0000 0.43416  0.68754  0.39140  Biso   1.000  C
  H165     1.0000 0.41460  0.64600  0.38030  Biso   1.000  H
  C138     1.0000 0.54005  0.37846  0.31860  Biso   1.000  C
  C139     1.0000 0.52169  0.31166  0.26680  Biso   1.000  C
  C140     1.0000 0.48603  0.31170  0.17730  Biso   1.000  C
  H166     1.0000 0.47240  0.35310  0.14940  Biso   1.000  H
  C141     1.0000 0.67800  0.44120  0.20820  Biso   1.000  C
  H167     1.0000 0.65990  0.40660  0.25170  Biso   1.000  H
  H168     1.0000 0.65060  0.45520  0.15420  Biso   1.000  H
  H169     1.0000 0.71320  0.42280  0.17590  Biso   1.000  H
  C142     1.0000 0.69425  0.50190  0.27480  Biso   1.000  C
  C143     1.0000 0.74875  0.53720  0.27900  Biso   1.000  C
  C144     1.0000 0.74112  0.58920  0.35120  Biso   1.000  C
  C145     1.0000 0.78400  0.64400  0.38830  Biso   1.000  C
  H170     1.0000 0.76340  0.67650  0.43230  Biso   1.000  H
  H171     1.0000 0.81550  0.62290  0.42810  Biso   1.000  H
  H172     1.0000 0.80050  0.66740  0.32820  Biso   1.000  H
  C146     1.0000 0.77600  0.55550  0.04530  Biso   1.000  C
  H173     1.0000 0.75670  0.51540  0.01690  Biso   1.000  H
  H174     1.0000 0.74710  0.58390  0.08030  Biso   1.000  H
  H175     1.0000 0.79410  0.58100  0.98890  Biso   1.000  H
  C147     1.0000 0.78300  0.58290  0.03910  Biso   1.000  C
  H176     1.0000 0.76610  0.55560  0.98350  Biso   1.000  H
  H177     1.0000 0.75190  0.60580  0.07720  Biso   1.000  H
  H178     1.0000 0.80940  0.61650  0.00920  Biso   1.000  H
  C148     1.0000 0.81791  0.53600  0.11500  Biso   1.000  C
  C149     1.0000 0.80408  0.52000  0.22060  Biso   1.000  C
  C150     1.0000 0.85340  0.48650  0.25980  Biso   1.000  C
  C151     1.0000 0.85300  0.43010  0.34740  Biso   1.000  C
  H179     1.0000 0.89280  0.41390  0.35910  Biso   1.000  H
  H180     1.0000 0.83750  0.44920  0.41180  Biso   1.000  H
  H181     1.0000 0.82840  0.39240  0.32520  Biso   1.000  H
  C152     1.0000 0.86970  0.46700  0.37360  Biso   1.000  C
  H182     1.0000 0.85920  0.50400  0.42030  Biso   1.000  H
  H183     1.0000 0.84850  0.42610  0.39370  Biso   1.000  H
  H184     1.0000 0.91170  0.45860  0.37810  Biso   1.000  H
  C153     1.0000 0.09540  0.25000  0.87080  Biso   1.000  C
  H185     1.0000 0.13390  0.25000  0.84410  Biso   1.000  H
  C154     1.0000 0.97926  0.25000  0.94620  Biso   1.000  C
  H186     1.0000 0.94030  0.25000  0.97090  Biso   1.000  H
  C155     1.0000 0.40460  0.75000  0.37080  Biso   1.000  C
  H187     1.0000 0.36610  0.75000  0.34410  Biso   1.000  H
  C156     1.0000 0.52074  0.75000  0.44620  Biso   1.000  C
  H188     1.0000 0.55970  0.75000  0.47090  Biso   1.000  H
  C157     1.0000 0.02930  0.75000  0.62960  Biso   1.000  C
  H189     1.0000 0.04980  0.75000  0.56570  Biso   1.000  H
  C158     1.0000 0.96098  0.75000  0.80880  Biso   1.000  C
  H190     1.0000 0.93650  0.75000  0.86810  Biso   1.000  H
  C159     1.0000 0.47070  0.25000  0.12960  Biso   1.000  C
  H191     1.0000 0.45020  0.25000  0.06570  Biso   1.000  H
  C160     1.0000 0.53902  0.25000  0.30880  Biso   1.000  C
  H192     1.0000 0.56350  0.25000  0.36810  Biso   1.000  H
