data_image0
_cell_length_a       12.34
_cell_length_b       12.34
_cell_length_c       22.852
_cell_angle_alpha    90
_cell_angle_beta     90
_cell_angle_gamma    90

_symmetry_space_group_name_H-M    "P 1"
_symmetry_int_tables_number       1

loop_
  _symmetry_equiv_pos_as_xyz
  'x, y, z'

loop_
  _atom_site_label
  _atom_site_occupancy
  _atom_site_fract_x
  _atom_site_fract_y
  _atom_site_fract_z
  _atom_site_thermal_displace_type
  _atom_site_B_iso_or_equiv
  _atom_site_type_symbol
  C1       1.0000 0.47670  0.41120  0.37420  Biso   1.000  C
  H1       1.0000 0.46100  0.34690  0.39530  Biso   1.000  H
  C2       1.0000 0.47410  0.40730  0.31430  Biso   1.000  C
  H2       1.0000 0.45490  0.34220  0.29480  Biso   1.000  H
  C3       1.0000 0.97670  0.91120  0.87420  Biso   1.000  C
  H3       1.0000 0.96100  0.84690  0.89530  Biso   1.000  H
  C4       1.0000 0.97410  0.90730  0.81430  Biso   1.000  C
  H4       1.0000 0.95490  0.84220  0.79480  Biso   1.000  H
  C5       1.0000 0.52330  0.58880  0.37420  Biso   1.000  C
  H5       1.0000 0.53900  0.65310  0.39530  Biso   1.000  H
  C6       1.0000 0.52590  0.59270  0.31430  Biso   1.000  C
  H6       1.0000 0.54510  0.65780  0.29480  Biso   1.000  H
  C7       1.0000 0.02330  0.08880  0.87420  Biso   1.000  C
  H7       1.0000 0.03900  0.15310  0.89530  Biso   1.000  H
  C8       1.0000 0.02590  0.09270  0.81430  Biso   1.000  C
  H8       1.0000 0.04510  0.15780  0.79480  Biso   1.000  H
  C9       1.0000 0.58880  0.47670  0.37420  Biso   1.000  C
  H9       1.0000 0.65310  0.46100  0.39530  Biso   1.000  H
  C10      1.0000 0.59270  0.47410  0.31430  Biso   1.000  C
  H10      1.0000 0.65780  0.45490  0.29480  Biso   1.000  H
  C11      1.0000 0.08880  0.97670  0.87420  Biso   1.000  C
  H11      1.0000 0.15310  0.96100  0.89530  Biso   1.000  H
  C12      1.0000 0.09270  0.97410  0.81430  Biso   1.000  C
  H12      1.0000 0.15780  0.95490  0.79480  Biso   1.000  H
  C13      1.0000 0.41120  0.52330  0.37420  Biso   1.000  C
  H13      1.0000 0.34690  0.53900  0.39530  Biso   1.000  H
  C14      1.0000 0.40730  0.52590  0.31430  Biso   1.000  C
  H14      1.0000 0.34220  0.54510  0.29480  Biso   1.000  H
  C15      1.0000 0.91120  0.02330  0.87420  Biso   1.000  C
  H15      1.0000 0.84690  0.03900  0.89530  Biso   1.000  H
  C16      1.0000 0.90730  0.02590  0.81430  Biso   1.000  C
  H16      1.0000 0.84220  0.04510  0.79480  Biso   1.000  H
  C17      1.0000 0.52330  0.41120  0.12580  Biso   1.000  C
  H17      1.0000 0.53900  0.34690  0.10470  Biso   1.000  H
  C18      1.0000 0.52590  0.40730  0.18570  Biso   1.000  C
  H18      1.0000 0.54510  0.34220  0.20520  Biso   1.000  H
  C19      1.0000 0.02330  0.91120  0.62580  Biso   1.000  C
  H19      1.0000 0.03900  0.84690  0.60470  Biso   1.000  H
  C20      1.0000 0.02590  0.90730  0.68570  Biso   1.000  C
  H20      1.0000 0.04510  0.84220  0.70520  Biso   1.000  H
  C21      1.0000 0.47670  0.58880  0.12580  Biso   1.000  C
  H21      1.0000 0.46100  0.65310  0.10470  Biso   1.000  H
  C22      1.0000 0.47410  0.59270  0.18570  Biso   1.000  C
  H22      1.0000 0.45490  0.65780  0.20520  Biso   1.000  H
  C23      1.0000 0.97670  0.08880  0.62580  Biso   1.000  C
  H23      1.0000 0.96100  0.15310  0.60470  Biso   1.000  H
  C24      1.0000 0.97410  0.09270  0.68570  Biso   1.000  C
  H24      1.0000 0.95490  0.15780  0.70520  Biso   1.000  H
  C25      1.0000 0.41120  0.47670  0.12580  Biso   1.000  C
  H25      1.0000 0.34690  0.46100  0.10470  Biso   1.000  H
  C26      1.0000 0.40730  0.47410  0.18570  Biso   1.000  C
  H26      1.0000 0.34220  0.45490  0.20520  Biso   1.000  H
  C27      1.0000 0.91120  0.97670  0.62580  Biso   1.000  C
  H27      1.0000 0.84690  0.96100  0.60470  Biso   1.000  H
  C28      1.0000 0.90730  0.97410  0.68570  Biso   1.000  C
  H28      1.0000 0.84220  0.95490  0.70520  Biso   1.000  H
  C29      1.0000 0.58880  0.52330  0.12580  Biso   1.000  C
  H29      1.0000 0.65310  0.53900  0.10470  Biso   1.000  H
  C30      1.0000 0.59270  0.52590  0.18570  Biso   1.000  C
  H30      1.0000 0.65780  0.54510  0.20520  Biso   1.000  H
  C31      1.0000 0.08880  0.02330  0.62580  Biso   1.000  C
  H31      1.0000 0.15310  0.03900  0.60470  Biso   1.000  H
  C32      1.0000 0.09270  0.02590  0.68570  Biso   1.000  C
  H32      1.0000 0.15780  0.04510  0.70520  Biso   1.000  H
  C33      1.0000 0.52330  0.58880  0.62580  Biso   1.000  C
  H33      1.0000 0.53900  0.65310  0.60470  Biso   1.000  H
  C34      1.0000 0.52590  0.59270  0.68570  Biso   1.000  C
  H34      1.0000 0.54510  0.65780  0.70520  Biso   1.000  H
  C35      1.0000 0.02330  0.08880  0.12580  Biso   1.000  C
  H35      1.0000 0.03900  0.15310  0.10470  Biso   1.000  H
  C36      1.0000 0.02590  0.09270  0.18570  Biso   1.000  C
  H36      1.0000 0.04510  0.15780  0.20520  Biso   1.000  H
  C37      1.0000 0.47670  0.41120  0.62580  Biso   1.000  C
  H37      1.0000 0.46100  0.34690  0.60470  Biso   1.000  H
  C38      1.0000 0.47410  0.40730  0.68570  Biso   1.000  C
  H38      1.0000 0.45490  0.34220  0.70520  Biso   1.000  H
  C39      1.0000 0.97670  0.91120  0.12580  Biso   1.000  C
  H39      1.0000 0.96100  0.84690  0.10470  Biso   1.000  H
  C40      1.0000 0.97410  0.90730  0.18570  Biso   1.000  C
  H40      1.0000 0.95490  0.84220  0.20520  Biso   1.000  H
  C41      1.0000 0.41120  0.52330  0.62580  Biso   1.000  C
  H41      1.0000 0.34690  0.53900  0.60470  Biso   1.000  H
  C42      1.0000 0.40730  0.52590  0.68570  Biso   1.000  C
  H42      1.0000 0.34220  0.54510  0.70520  Biso   1.000  H
  C43      1.0000 0.91120  0.02330  0.12580  Biso   1.000  C
  H43      1.0000 0.84690  0.03900  0.10470  Biso   1.000  H
  C44      1.0000 0.90730  0.02590  0.18570  Biso   1.000  C
  H44      1.0000 0.84220  0.04510  0.20520  Biso   1.000  H
  C45      1.0000 0.58880  0.47670  0.62580  Biso   1.000  C
  H45      1.0000 0.65310  0.46100  0.60470  Biso   1.000  H
  C46      1.0000 0.59270  0.47410  0.68570  Biso   1.000  C
  H46      1.0000 0.65780  0.45490  0.70520  Biso   1.000  H
  C47      1.0000 0.08880  0.97670  0.12580  Biso   1.000  C
  H47      1.0000 0.15310  0.96100  0.10470  Biso   1.000  H
  C48      1.0000 0.09270  0.97410  0.18570  Biso   1.000  C
  H48      1.0000 0.15780  0.95490  0.20520  Biso   1.000  H
  C49      1.0000 0.47670  0.58880  0.87420  Biso   1.000  C
  H49      1.0000 0.46100  0.65310  0.89530  Biso   1.000  H
  C50      1.0000 0.47410  0.59270  0.81430  Biso   1.000  C
  H50      1.0000 0.45490  0.65780  0.79480  Biso   1.000  H
  C51      1.0000 0.97670  0.08880  0.37420  Biso   1.000  C
  H51      1.0000 0.96100  0.15310  0.39530  Biso   1.000  H
  C52      1.0000 0.97410  0.09270  0.31430  Biso   1.000  C
  H52      1.0000 0.95490  0.15780  0.29480  Biso   1.000  H
  C53      1.0000 0.52330  0.41120  0.87420  Biso   1.000  C
  H53      1.0000 0.53900  0.34690  0.89530  Biso   1.000  H
  C54      1.0000 0.52590  0.40730  0.81430  Biso   1.000  C
  H54      1.0000 0.54510  0.34220  0.79480  Biso   1.000  H
  C55      1.0000 0.02330  0.91120  0.37420  Biso   1.000  C
  H55      1.0000 0.03900  0.84690  0.39530  Biso   1.000  H
  C56      1.0000 0.02590  0.90730  0.31430  Biso   1.000  C
  H56      1.0000 0.04510  0.84220  0.29480  Biso   1.000  H
  C57      1.0000 0.58880  0.52330  0.87420  Biso   1.000  C
  H57      1.0000 0.65310  0.53900  0.89530  Biso   1.000  H
  C58      1.0000 0.59270  0.52590  0.81430  Biso   1.000  C
  H58      1.0000 0.65780  0.54510  0.79480  Biso   1.000  H
  C59      1.0000 0.08880  0.02330  0.37420  Biso   1.000  C
  H59      1.0000 0.15310  0.03900  0.39530  Biso   1.000  H
  C60      1.0000 0.09270  0.02590  0.31430  Biso   1.000  C
  H60      1.0000 0.15780  0.04510  0.29480  Biso   1.000  H
  C61      1.0000 0.41120  0.47670  0.87420  Biso   1.000  C
  H61      1.0000 0.34690  0.46100  0.89530  Biso   1.000  H
  C62      1.0000 0.40730  0.47410  0.81430  Biso   1.000  C
  H62      1.0000 0.34220  0.45490  0.79480  Biso   1.000  H
  C63      1.0000 0.91120  0.97670  0.37420  Biso   1.000  C
  H63      1.0000 0.84690  0.96100  0.39530  Biso   1.000  H
  C64      1.0000 0.90730  0.97410  0.31430  Biso   1.000  C
  H64      1.0000 0.84220  0.95490  0.29480  Biso   1.000  H
  Fe1      1.0000 0.50000  0.50000  0.50000  Biso   1.000  Fe
  Fe2      1.0000 0.00000  0.00000  0.00000  Biso   1.000  Fe
  Fe3      1.0000 0.50000  0.50000  0.00000  Biso   1.000  Fe
  Fe4      1.0000 0.00000  0.00000  0.50000  Biso   1.000  Fe
  N1       1.0000 0.63880  0.60230  0.50000  Biso   1.000  N
  C65      1.0000 0.72590  0.63560  0.50000  Biso   1.000  C
  C66      1.0000 0.02910  0.60780  0.50000  Biso   1.000  C
  H65      1.0000 0.05000  0.68190  0.50000  Biso   1.000  H
  N2       1.0000 0.13880  0.10230  0.00000  Biso   1.000  N
  C67      1.0000 0.22590  0.13560  0.00000  Biso   1.000  C
  C68      1.0000 0.52910  0.10780  0.00000  Biso   1.000  C
  H66      1.0000 0.55000  0.18190  0.00000  Biso   1.000  H
  N3       1.0000 0.36120  0.39770  0.50000  Biso   1.000  N
  C69      1.0000 0.27410  0.36440  0.50000  Biso   1.000  C
  C70      1.0000 0.97090  0.39220  0.50000  Biso   1.000  C
  H67      1.0000 0.95000  0.31810  0.50000  Biso   1.000  H
  N4       1.0000 0.86120  0.89770  0.00000  Biso   1.000  N
  C71      1.0000 0.77410  0.86440  0.00000  Biso   1.000  C
  C72      1.0000 0.47090  0.89220  0.00000  Biso   1.000  C
  H68      1.0000 0.45000  0.81810  0.00000  Biso   1.000  H
  N5       1.0000 0.39770  0.63880  0.50000  Biso   1.000  N
  C73      1.0000 0.36440  0.72590  0.50000  Biso   1.000  C
  C74      1.0000 0.39220  0.02910  0.50000  Biso   1.000  C
  H69      1.0000 0.31810  0.05000  0.50000  Biso   1.000  H
  N6       1.0000 0.89770  0.13880  0.00000  Biso   1.000  N
  C75      1.0000 0.86440  0.22590  0.00000  Biso   1.000  C
  C76      1.0000 0.89220  0.52910  0.00000  Biso   1.000  C
  H70      1.0000 0.81810  0.55000  0.00000  Biso   1.000  H
  N7       1.0000 0.60230  0.36120  0.50000  Biso   1.000  N
  C77      1.0000 0.63560  0.27410  0.50000  Biso   1.000  C
  C78      1.0000 0.60780  0.97090  0.50000  Biso   1.000  C
  H71      1.0000 0.68190  0.95000  0.50000  Biso   1.000  H
  N8       1.0000 0.10230  0.86120  0.00000  Biso   1.000  N
  C79      1.0000 0.13560  0.77410  0.00000  Biso   1.000  C
  C80      1.0000 0.10780  0.47090  0.00000  Biso   1.000  C
  H72      1.0000 0.18190  0.45000  0.00000  Biso   1.000  H
  N9       1.0000 0.36120  0.60230  0.00000  Biso   1.000  N
  C81      1.0000 0.27410  0.63560  0.00000  Biso   1.000  C
  C82      1.0000 0.97090  0.60780  0.00000  Biso   1.000  C
  H73      1.0000 0.95000  0.68190  0.00000  Biso   1.000  H
  N10      1.0000 0.86120  0.10230  0.50000  Biso   1.000  N
  C83      1.0000 0.77410  0.13560  0.50000  Biso   1.000  C
  C84      1.0000 0.47090  0.10780  0.50000  Biso   1.000  C
  H74      1.0000 0.45000  0.18190  0.50000  Biso   1.000  H
  N11      1.0000 0.63880  0.39770  0.00000  Biso   1.000  N
  C85      1.0000 0.72590  0.36440  0.00000  Biso   1.000  C
  C86      1.0000 0.02910  0.39220  0.00000  Biso   1.000  C
  H75      1.0000 0.05000  0.31810  0.00000  Biso   1.000  H
  N12      1.0000 0.13880  0.89770  0.50000  Biso   1.000  N
  C87      1.0000 0.22590  0.86440  0.50000  Biso   1.000  C
  C88      1.0000 0.52910  0.89220  0.50000  Biso   1.000  C
  H76      1.0000 0.55000  0.81810  0.50000  Biso   1.000  H
  N13      1.0000 0.60230  0.63880  0.00000  Biso   1.000  N
  C89      1.0000 0.63560  0.72590  0.00000  Biso   1.000  C
  C90      1.0000 0.60780  0.02910  0.00000  Biso   1.000  C
  H77      1.0000 0.68190  0.05000  0.00000  Biso   1.000  H
  N14      1.0000 0.10230  0.13880  0.50000  Biso   1.000  N
  C91      1.0000 0.13560  0.22590  0.50000  Biso   1.000  C
  C92      1.0000 0.10780  0.52910  0.50000  Biso   1.000  C
  H78      1.0000 0.18190  0.55000  0.50000  Biso   1.000  H
  N15      1.0000 0.39770  0.36120  0.00000  Biso   1.000  N
  C93      1.0000 0.36440  0.27410  0.00000  Biso   1.000  C
  C94      1.0000 0.39220  0.97090  0.00000  Biso   1.000  C
  H79      1.0000 0.31810  0.95000  0.00000  Biso   1.000  H
  N16      1.0000 0.89770  0.86120  0.50000  Biso   1.000  N
  C95      1.0000 0.86440  0.77410  0.50000  Biso   1.000  C
  C96      1.0000 0.89220  0.47090  0.50000  Biso   1.000  C
  H80      1.0000 0.81810  0.45000  0.50000  Biso   1.000  H
  C97      1.0000 0.83450  0.66550  0.50000  Biso   1.000  C
  C98      1.0000 0.91870  0.58130  0.50000  Biso   1.000  C
  C99      1.0000 0.16550  0.33450  0.50000  Biso   1.000  C
  C100     1.0000 0.08130  0.41870  0.50000  Biso   1.000  C
  C101     1.0000 0.33450  0.83450  0.50000  Biso   1.000  C
  C102     1.0000 0.41870  0.91870  0.50000  Biso   1.000  C
  C103     1.0000 0.66550  0.16550  0.50000  Biso   1.000  C
  C104     1.0000 0.58130  0.08130  0.50000  Biso   1.000  C
  C105     1.0000 0.16550  0.66550  0.00000  Biso   1.000  C
  C106     1.0000 0.08130  0.58130  0.00000  Biso   1.000  C
  C107     1.0000 0.83450  0.33450  0.00000  Biso   1.000  C
  C108     1.0000 0.91870  0.41870  0.00000  Biso   1.000  C
  C109     1.0000 0.66550  0.83450  0.00000  Biso   1.000  C
  C110     1.0000 0.58130  0.91870  0.00000  Biso   1.000  C
  C111     1.0000 0.33450  0.16550  0.00000  Biso   1.000  C
  C112     1.0000 0.41870  0.08130  0.00000  Biso   1.000  C
  N17      1.0000 0.50000  0.50000  0.40410  Biso   1.000  N
  C113     1.0000 0.50000  0.50000  0.28240  Biso   1.000  C
  N18      1.0000 0.00000  0.00000  0.90410  Biso   1.000  N
  C114     1.0000 0.00000  0.00000  0.78240  Biso   1.000  C
  N19      1.0000 0.50000  0.50000  0.09590  Biso   1.000  N
  C115     1.0000 0.50000  0.50000  0.21760  Biso   1.000  C
  N20      1.0000 0.00000  0.00000  0.59590  Biso   1.000  N
  C116     1.0000 0.00000  0.00000  0.71760  Biso   1.000  C
  N21      1.0000 0.50000  0.50000  0.59590  Biso   1.000  N
  C117     1.0000 0.50000  0.50000  0.71760  Biso   1.000  C
  N22      1.0000 0.00000  0.00000  0.09590  Biso   1.000  N
  C118     1.0000 0.00000  0.00000  0.21760  Biso   1.000  C
  N23      1.0000 0.50000  0.50000  0.90410  Biso   1.000  N
  C119     1.0000 0.50000  0.50000  0.78240  Biso   1.000  C
  N24      1.0000 0.00000  0.00000  0.40410  Biso   1.000  N
  C120     1.0000 0.00000  0.00000  0.28240  Biso   1.000  C
