data_image0
_cell_length_a       19.3042
_cell_length_b       19.3042
_cell_length_c       19.3042
_cell_angle_alpha    90
_cell_angle_beta     90
_cell_angle_gamma    90

_symmetry_space_group_name_H-M    "P 1"
_symmetry_int_tables_number       1

loop_
  _symmetry_equiv_pos_as_xyz
  'x, y, z'

loop_
  _atom_site_label
  _atom_site_occupancy
  _atom_site_fract_x
  _atom_site_fract_y
  _atom_site_fract_z
  _atom_site_thermal_displace_type
  _atom_site_B_iso_or_equiv
  _atom_site_type_symbol
  C1       1.0000 0.46460  0.29730  0.21080  Biso   1.000  C
  H1       1.0000 0.46810  0.34310  0.19640  Biso   1.000  H
  C2       1.0000 0.45290  0.24640  0.16190  Biso   1.000  C
  H2       1.0000 0.45060  0.25840  0.11530  Biso   1.000  H
  C3       1.0000 0.41100  0.07580  0.13120  Biso   1.000  C
  H3       1.0000 0.37020  0.07060  0.16000  Biso   1.000  H
  H4       1.0000 0.45080  0.05640  0.15490  Biso   1.000  H
  C4       1.0000 0.41070  0.03610  0.06420  Biso   1.000  C
  O1       1.0000 0.43240  0.14450  0.11750  Biso   1.000  O
  C5       1.0000 0.53540  0.70270  0.21080  Biso   1.000  C
  H5       1.0000 0.53190  0.65690  0.19640  Biso   1.000  H
  C6       1.0000 0.54710  0.75360  0.16190  Biso   1.000  C
  H6       1.0000 0.54940  0.74160  0.11530  Biso   1.000  H
  C7       1.0000 0.58900  0.92420  0.13120  Biso   1.000  C
  H7       1.0000 0.62980  0.92940  0.16000  Biso   1.000  H
  H8       1.0000 0.54920  0.94360  0.15490  Biso   1.000  H
  C8       1.0000 0.58930  0.96390  0.06420  Biso   1.000  C
  O2       1.0000 0.56760  0.85550  0.11750  Biso   1.000  O
  C9       1.0000 0.53540  0.29730  0.78920  Biso   1.000  C
  H9       1.0000 0.53190  0.34310  0.80360  Biso   1.000  H
  C10      1.0000 0.54710  0.24640  0.83810  Biso   1.000  C
  H10      1.0000 0.54940  0.25840  0.88470  Biso   1.000  H
  C11      1.0000 0.58900  0.07580  0.86880  Biso   1.000  C
  H11      1.0000 0.62980  0.07060  0.84000  Biso   1.000  H
  H12      1.0000 0.54920  0.05640  0.84510  Biso   1.000  H
  C12      1.0000 0.58930  0.03610  0.93580  Biso   1.000  C
  O3       1.0000 0.56760  0.14450  0.88250  Biso   1.000  O
  C13      1.0000 0.46460  0.70270  0.78920  Biso   1.000  C
  H13      1.0000 0.46810  0.65690  0.80360  Biso   1.000  H
  C14      1.0000 0.45290  0.75360  0.83810  Biso   1.000  C
  H14      1.0000 0.45060  0.74160  0.88470  Biso   1.000  H
  C15      1.0000 0.41100  0.92420  0.86880  Biso   1.000  C
  H15      1.0000 0.37020  0.92940  0.84000  Biso   1.000  H
  H16      1.0000 0.45080  0.94360  0.84510  Biso   1.000  H
  C16      1.0000 0.41070  0.96390  0.93580  Biso   1.000  C
  O4       1.0000 0.43240  0.85550  0.88250  Biso   1.000  O
  C17      1.0000 0.21080  0.46460  0.29730  Biso   1.000  C
  H17      1.0000 0.19640  0.46810  0.34310  Biso   1.000  H
  C18      1.0000 0.16190  0.45290  0.24640  Biso   1.000  C
  H18      1.0000 0.11530  0.45060  0.25840  Biso   1.000  H
  C19      1.0000 0.13120  0.41100  0.07580  Biso   1.000  C
  H19      1.0000 0.16000  0.37020  0.07060  Biso   1.000  H
  H20      1.0000 0.15490  0.45080  0.05640  Biso   1.000  H
  C20      1.0000 0.06420  0.41070  0.03610  Biso   1.000  C
  O5       1.0000 0.11750  0.43240  0.14450  Biso   1.000  O
  C21      1.0000 0.21080  0.53540  0.70270  Biso   1.000  C
  H21      1.0000 0.19640  0.53190  0.65690  Biso   1.000  H
  C22      1.0000 0.16190  0.54710  0.75360  Biso   1.000  C
  H22      1.0000 0.11530  0.54940  0.74160  Biso   1.000  H
  C23      1.0000 0.13120  0.58900  0.92420  Biso   1.000  C
  H23      1.0000 0.16000  0.62980  0.92940  Biso   1.000  H
  H24      1.0000 0.15490  0.54920  0.94360  Biso   1.000  H
  C24      1.0000 0.06420  0.58930  0.96390  Biso   1.000  C
  O6       1.0000 0.11750  0.56760  0.85550  Biso   1.000  O
  C25      1.0000 0.78920  0.53540  0.29730  Biso   1.000  C
  H25      1.0000 0.80360  0.53190  0.34310  Biso   1.000  H
  C26      1.0000 0.83810  0.54710  0.24640  Biso   1.000  C
  H26      1.0000 0.88470  0.54940  0.25840  Biso   1.000  H
  C27      1.0000 0.86880  0.58900  0.07580  Biso   1.000  C
  H27      1.0000 0.84000  0.62980  0.07060  Biso   1.000  H
  H28      1.0000 0.84510  0.54920  0.05640  Biso   1.000  H
  C28      1.0000 0.93580  0.58930  0.03610  Biso   1.000  C
  O7       1.0000 0.88250  0.56760  0.14450  Biso   1.000  O
  C29      1.0000 0.78920  0.46460  0.70270  Biso   1.000  C
  H29      1.0000 0.80360  0.46810  0.65690  Biso   1.000  H
  C30      1.0000 0.83810  0.45290  0.75360  Biso   1.000  C
  H30      1.0000 0.88470  0.45060  0.74160  Biso   1.000  H
  C31      1.0000 0.86880  0.41100  0.92420  Biso   1.000  C
  H31      1.0000 0.84000  0.37020  0.92940  Biso   1.000  H
  H32      1.0000 0.84510  0.45080  0.94360  Biso   1.000  H
  C32      1.0000 0.93580  0.41070  0.96390  Biso   1.000  C
  O8       1.0000 0.88250  0.43240  0.85550  Biso   1.000  O
  C33      1.0000 0.29730  0.21080  0.46460  Biso   1.000  C
  H33      1.0000 0.34310  0.19640  0.46810  Biso   1.000  H
  C34      1.0000 0.24640  0.16190  0.45290  Biso   1.000  C
  H34      1.0000 0.25840  0.11530  0.45060  Biso   1.000  H
  C35      1.0000 0.07580  0.13120  0.41100  Biso   1.000  C
  H35      1.0000 0.07060  0.16000  0.37020  Biso   1.000  H
  H36      1.0000 0.05640  0.15490  0.45080  Biso   1.000  H
  C36      1.0000 0.03610  0.06420  0.41070  Biso   1.000  C
  O9       1.0000 0.14450  0.11750  0.43240  Biso   1.000  O
  C37      1.0000 0.70270  0.21080  0.53540  Biso   1.000  C
  H37      1.0000 0.65690  0.19640  0.53190  Biso   1.000  H
  C38      1.0000 0.75360  0.16190  0.54710  Biso   1.000  C
  H38      1.0000 0.74160  0.11530  0.54940  Biso   1.000  H
  C39      1.0000 0.92420  0.13120  0.58900  Biso   1.000  C
  H39      1.0000 0.92940  0.16000  0.62980  Biso   1.000  H
  H40      1.0000 0.94360  0.15490  0.54920  Biso   1.000  H
  C40      1.0000 0.96390  0.06420  0.58930  Biso   1.000  C
  O10      1.0000 0.85550  0.11750  0.56760  Biso   1.000  O
  C41      1.0000 0.29730  0.78920  0.53540  Biso   1.000  C
  H41      1.0000 0.34310  0.80360  0.53190  Biso   1.000  H
  C42      1.0000 0.24640  0.83810  0.54710  Biso   1.000  C
  H42      1.0000 0.25840  0.88470  0.54940  Biso   1.000  H
  C43      1.0000 0.07580  0.86880  0.58900  Biso   1.000  C
  H43      1.0000 0.07060  0.84000  0.62980  Biso   1.000  H
  H44      1.0000 0.05640  0.84510  0.54920  Biso   1.000  H
  C44      1.0000 0.03610  0.93580  0.58930  Biso   1.000  C
  O11      1.0000 0.14450  0.88250  0.56760  Biso   1.000  O
  C45      1.0000 0.70270  0.78920  0.46460  Biso   1.000  C
  H45      1.0000 0.65690  0.80360  0.46810  Biso   1.000  H
  C46      1.0000 0.75360  0.83810  0.45290  Biso   1.000  C
  H46      1.0000 0.74160  0.88470  0.45060  Biso   1.000  H
  C47      1.0000 0.92420  0.86880  0.41100  Biso   1.000  C
  H47      1.0000 0.92940  0.84000  0.37020  Biso   1.000  H
  H48      1.0000 0.94360  0.84510  0.45080  Biso   1.000  H
  C48      1.0000 0.96390  0.93580  0.41070  Biso   1.000  C
  O12      1.0000 0.85550  0.88250  0.43240  Biso   1.000  O
  C49      1.0000 0.29730  0.46460  0.78920  Biso   1.000  C
  H49      1.0000 0.34310  0.46810  0.80360  Biso   1.000  H
  C50      1.0000 0.24640  0.45290  0.83810  Biso   1.000  C
  H50      1.0000 0.25840  0.45060  0.88470  Biso   1.000  H
  C51      1.0000 0.07580  0.41100  0.86880  Biso   1.000  C
  H51      1.0000 0.07060  0.37020  0.84000  Biso   1.000  H
  H52      1.0000 0.05640  0.45080  0.84510  Biso   1.000  H
  C52      1.0000 0.03610  0.41070  0.93580  Biso   1.000  C
  O13      1.0000 0.14450  0.43240  0.88250  Biso   1.000  O
  C53      1.0000 0.70270  0.53540  0.78920  Biso   1.000  C
  H53      1.0000 0.65690  0.53190  0.80360  Biso   1.000  H
  C54      1.0000 0.75360  0.54710  0.83810  Biso   1.000  C
  H54      1.0000 0.74160  0.54940  0.88470  Biso   1.000  H
  C55      1.0000 0.92420  0.58900  0.86880  Biso   1.000  C
  H55      1.0000 0.92940  0.62980  0.84000  Biso   1.000  H
  H56      1.0000 0.94360  0.54920  0.84510  Biso   1.000  H
  C56      1.0000 0.96390  0.58930  0.93580  Biso   1.000  C
  O14      1.0000 0.85550  0.56760  0.88250  Biso   1.000  O
  C57      1.0000 0.29730  0.53540  0.21080  Biso   1.000  C
  H57      1.0000 0.34310  0.53190  0.19640  Biso   1.000  H
  C58      1.0000 0.24640  0.54710  0.16190  Biso   1.000  C
  H58      1.0000 0.25840  0.54940  0.11530  Biso   1.000  H
  C59      1.0000 0.07580  0.58900  0.13120  Biso   1.000  C
  H59      1.0000 0.07060  0.62980  0.16000  Biso   1.000  H
  H60      1.0000 0.05640  0.54920  0.15490  Biso   1.000  H
  C60      1.0000 0.03610  0.58930  0.06420  Biso   1.000  C
  O15      1.0000 0.14450  0.56760  0.11750  Biso   1.000  O
  C61      1.0000 0.70270  0.46460  0.21080  Biso   1.000  C
  H61      1.0000 0.65690  0.46810  0.19640  Biso   1.000  H
  C62      1.0000 0.75360  0.45290  0.16190  Biso   1.000  C
  H62      1.0000 0.74160  0.45060  0.11530  Biso   1.000  H
  C63      1.0000 0.92420  0.41100  0.13120  Biso   1.000  C
  H63      1.0000 0.92940  0.37020  0.16000  Biso   1.000  H
  H64      1.0000 0.94360  0.45080  0.15490  Biso   1.000  H
  C64      1.0000 0.96390  0.41070  0.06420  Biso   1.000  C
  O16      1.0000 0.85550  0.43240  0.11750  Biso   1.000  O
  C65      1.0000 0.46460  0.21080  0.70270  Biso   1.000  C
  H65      1.0000 0.46810  0.19640  0.65690  Biso   1.000  H
  C66      1.0000 0.45290  0.16190  0.75360  Biso   1.000  C
  H66      1.0000 0.45060  0.11530  0.74160  Biso   1.000  H
  C67      1.0000 0.41100  0.13120  0.92420  Biso   1.000  C
  H67      1.0000 0.37020  0.16000  0.92940  Biso   1.000  H
  H68      1.0000 0.45080  0.15490  0.94360  Biso   1.000  H
  C68      1.0000 0.41070  0.06420  0.96390  Biso   1.000  C
  O17      1.0000 0.43240  0.11750  0.85550  Biso   1.000  O
  C69      1.0000 0.53540  0.21080  0.29730  Biso   1.000  C
  H69      1.0000 0.53190  0.19640  0.34310  Biso   1.000  H
  C70      1.0000 0.54710  0.16190  0.24640  Biso   1.000  C
  H70      1.0000 0.54940  0.11530  0.25840  Biso   1.000  H
  C71      1.0000 0.58900  0.13120  0.07580  Biso   1.000  C
  H71      1.0000 0.62980  0.16000  0.07060  Biso   1.000  H
  H72      1.0000 0.54920  0.15490  0.05640  Biso   1.000  H
  C72      1.0000 0.58930  0.06420  0.03610  Biso   1.000  C
  O18      1.0000 0.56760  0.11750  0.14450  Biso   1.000  O
  C73      1.0000 0.53540  0.78920  0.70270  Biso   1.000  C
  H73      1.0000 0.53190  0.80360  0.65690  Biso   1.000  H
  C74      1.0000 0.54710  0.83810  0.75360  Biso   1.000  C
  H74      1.0000 0.54940  0.88470  0.74160  Biso   1.000  H
  C75      1.0000 0.58900  0.86880  0.92420  Biso   1.000  C
  H75      1.0000 0.62980  0.84000  0.92940  Biso   1.000  H
  H76      1.0000 0.54920  0.84510  0.94360  Biso   1.000  H
  C76      1.0000 0.58930  0.93580  0.96390  Biso   1.000  C
  O19      1.0000 0.56760  0.88250  0.85550  Biso   1.000  O
  C77      1.0000 0.46460  0.78920  0.29730  Biso   1.000  C
  H77      1.0000 0.46810  0.80360  0.34310  Biso   1.000  H
  C78      1.0000 0.45290  0.83810  0.24640  Biso   1.000  C
  H78      1.0000 0.45060  0.88470  0.25840  Biso   1.000  H
  C79      1.0000 0.41100  0.86880  0.07580  Biso   1.000  C
  H79      1.0000 0.37020  0.84000  0.07060  Biso   1.000  H
  H80      1.0000 0.45080  0.84510  0.05640  Biso   1.000  H
  C80      1.0000 0.41070  0.93580  0.03610  Biso   1.000  C
  O20      1.0000 0.43240  0.88250  0.14450  Biso   1.000  O
  C81      1.0000 0.21080  0.29730  0.53540  Biso   1.000  C
  H81      1.0000 0.19640  0.34310  0.53190  Biso   1.000  H
  C82      1.0000 0.16190  0.24640  0.54710  Biso   1.000  C
  H82      1.0000 0.11530  0.25840  0.54940  Biso   1.000  H
  C83      1.0000 0.13120  0.07580  0.58900  Biso   1.000  C
  H83      1.0000 0.16000  0.07060  0.62980  Biso   1.000  H
  H84      1.0000 0.15490  0.05640  0.54920  Biso   1.000  H
  C84      1.0000 0.06420  0.03610  0.58930  Biso   1.000  C
  O21      1.0000 0.11750  0.14450  0.56760  Biso   1.000  O
  C85      1.0000 0.21080  0.70270  0.46460  Biso   1.000  C
  H85      1.0000 0.19640  0.65690  0.46810  Biso   1.000  H
  C86      1.0000 0.16190  0.75360  0.45290  Biso   1.000  C
  H86      1.0000 0.11530  0.74160  0.45060  Biso   1.000  H
  C87      1.0000 0.13120  0.92420  0.41100  Biso   1.000  C
  H87      1.0000 0.16000  0.92940  0.37020  Biso   1.000  H
  H88      1.0000 0.15490  0.94360  0.45080  Biso   1.000  H
  C88      1.0000 0.06420  0.96390  0.41070  Biso   1.000  C
  O22      1.0000 0.11750  0.85550  0.43240  Biso   1.000  O
  C89      1.0000 0.78920  0.29730  0.46460  Biso   1.000  C
  H89      1.0000 0.80360  0.34310  0.46810  Biso   1.000  H
  C90      1.0000 0.83810  0.24640  0.45290  Biso   1.000  C
  H90      1.0000 0.88470  0.25840  0.45060  Biso   1.000  H
  C91      1.0000 0.86880  0.07580  0.41100  Biso   1.000  C
  H91      1.0000 0.84000  0.07060  0.37020  Biso   1.000  H
  H92      1.0000 0.84510  0.05640  0.45080  Biso   1.000  H
  C92      1.0000 0.93580  0.03610  0.41070  Biso   1.000  C
  O23      1.0000 0.88250  0.14450  0.43240  Biso   1.000  O
  C93      1.0000 0.78920  0.70270  0.53540  Biso   1.000  C
  H93      1.0000 0.80360  0.65690  0.53190  Biso   1.000  H
  C94      1.0000 0.83810  0.75360  0.54710  Biso   1.000  C
  H94      1.0000 0.88470  0.74160  0.54940  Biso   1.000  H
  C95      1.0000 0.86880  0.92420  0.58900  Biso   1.000  C
  H95      1.0000 0.84000  0.92940  0.62980  Biso   1.000  H
  H96      1.0000 0.84510  0.94360  0.54920  Biso   1.000  H
  C96      1.0000 0.93580  0.96390  0.58930  Biso   1.000  C
  O24      1.0000 0.88250  0.85550  0.56760  Biso   1.000  O
  C97      1.0000 0.53540  0.70270  0.78920  Biso   1.000  C
  H97      1.0000 0.53190  0.65690  0.80360  Biso   1.000  H
  C98      1.0000 0.54710  0.75360  0.83810  Biso   1.000  C
  H98      1.0000 0.54940  0.74160  0.88470  Biso   1.000  H
  C99      1.0000 0.58900  0.92420  0.86880  Biso   1.000  C
  H99      1.0000 0.62980  0.92940  0.84000  Biso   1.000  H
  H100     1.0000 0.54920  0.94360  0.84510  Biso   1.000  H
  C100     1.0000 0.58930  0.96390  0.93580  Biso   1.000  C
  O25      1.0000 0.56760  0.85550  0.88250  Biso   1.000  O
  C101     1.0000 0.46460  0.29730  0.78920  Biso   1.000  C
  H101     1.0000 0.46810  0.34310  0.80360  Biso   1.000  H
  C102     1.0000 0.45290  0.24640  0.83810  Biso   1.000  C
  H102     1.0000 0.45060  0.25840  0.88470  Biso   1.000  H
  C103     1.0000 0.41100  0.07580  0.86880  Biso   1.000  C
  H103     1.0000 0.37020  0.07060  0.84000  Biso   1.000  H
  H104     1.0000 0.45080  0.05640  0.84510  Biso   1.000  H
  C104     1.0000 0.41070  0.03610  0.93580  Biso   1.000  C
  O26      1.0000 0.43240  0.14450  0.88250  Biso   1.000  O
  C105     1.0000 0.46460  0.70270  0.21080  Biso   1.000  C
  H105     1.0000 0.46810  0.65690  0.19640  Biso   1.000  H
  C106     1.0000 0.45290  0.75360  0.16190  Biso   1.000  C
  H106     1.0000 0.45060  0.74160  0.11530  Biso   1.000  H
  C107     1.0000 0.41100  0.92420  0.13120  Biso   1.000  C
  H107     1.0000 0.37020  0.92940  0.16000  Biso   1.000  H
  H108     1.0000 0.45080  0.94360  0.15490  Biso   1.000  H
  C108     1.0000 0.41070  0.96390  0.06420  Biso   1.000  C
  O27      1.0000 0.43240  0.85550  0.11750  Biso   1.000  O
  C109     1.0000 0.53540  0.29730  0.21080  Biso   1.000  C
  H109     1.0000 0.53190  0.34310  0.19640  Biso   1.000  H
  C110     1.0000 0.54710  0.24640  0.16190  Biso   1.000  C
  H110     1.0000 0.54940  0.25840  0.11530  Biso   1.000  H
  C111     1.0000 0.58900  0.07580  0.13120  Biso   1.000  C
  H111     1.0000 0.62980  0.07060  0.16000  Biso   1.000  H
  H112     1.0000 0.54920  0.05640  0.15490  Biso   1.000  H
  C112     1.0000 0.58930  0.03610  0.06420  Biso   1.000  C
  O28      1.0000 0.56760  0.14450  0.11750  Biso   1.000  O
  C113     1.0000 0.78920  0.53540  0.70270  Biso   1.000  C
  H113     1.0000 0.80360  0.53190  0.65690  Biso   1.000  H
  C114     1.0000 0.83810  0.54710  0.75360  Biso   1.000  C
  H114     1.0000 0.88470  0.54940  0.74160  Biso   1.000  H
  C115     1.0000 0.86880  0.58900  0.92420  Biso   1.000  C
  H115     1.0000 0.84000  0.62980  0.92940  Biso   1.000  H
  H116     1.0000 0.84510  0.54920  0.94360  Biso   1.000  H
  C116     1.0000 0.93580  0.58930  0.96390  Biso   1.000  C
  O29      1.0000 0.88250  0.56760  0.85550  Biso   1.000  O
  C117     1.0000 0.78920  0.46460  0.29730  Biso   1.000  C
  H117     1.0000 0.80360  0.46810  0.34310  Biso   1.000  H
  C118     1.0000 0.83810  0.45290  0.24640  Biso   1.000  C
  H118     1.0000 0.88470  0.45060  0.25840  Biso   1.000  H
  C119     1.0000 0.86880  0.41100  0.07580  Biso   1.000  C
  H119     1.0000 0.84000  0.37020  0.07060  Biso   1.000  H
  H120     1.0000 0.84510  0.45080  0.05640  Biso   1.000  H
  C120     1.0000 0.93580  0.41070  0.03610  Biso   1.000  C
  O30      1.0000 0.88250  0.43240  0.14450  Biso   1.000  O
  C121     1.0000 0.21080  0.46460  0.70270  Biso   1.000  C
  H121     1.0000 0.19640  0.46810  0.65690  Biso   1.000  H
  C122     1.0000 0.16190  0.45290  0.75360  Biso   1.000  C
  H122     1.0000 0.11530  0.45060  0.74160  Biso   1.000  H
  C123     1.0000 0.13120  0.41100  0.92420  Biso   1.000  C
  H123     1.0000 0.16000  0.37020  0.92940  Biso   1.000  H
  H124     1.0000 0.15490  0.45080  0.94360  Biso   1.000  H
  C124     1.0000 0.06420  0.41070  0.96390  Biso   1.000  C
  O31      1.0000 0.11750  0.43240  0.85550  Biso   1.000  O
  C125     1.0000 0.21080  0.53540  0.29730  Biso   1.000  C
  H125     1.0000 0.19640  0.53190  0.34310  Biso   1.000  H
  C126     1.0000 0.16190  0.54710  0.24640  Biso   1.000  C
  H126     1.0000 0.11530  0.54940  0.25840  Biso   1.000  H
  C127     1.0000 0.13120  0.58900  0.07580  Biso   1.000  C
  H127     1.0000 0.16000  0.62980  0.07060  Biso   1.000  H
  H128     1.0000 0.15490  0.54920  0.05640  Biso   1.000  H
  C128     1.0000 0.06420  0.58930  0.03610  Biso   1.000  C
  O32      1.0000 0.11750  0.56760  0.14450  Biso   1.000  O
  C129     1.0000 0.70270  0.78920  0.53540  Biso   1.000  C
  H129     1.0000 0.65690  0.80360  0.53190  Biso   1.000  H
  C130     1.0000 0.75360  0.83810  0.54710  Biso   1.000  C
  H130     1.0000 0.74160  0.88470  0.54940  Biso   1.000  H
  C131     1.0000 0.92420  0.86880  0.58900  Biso   1.000  C
  H131     1.0000 0.92940  0.84000  0.62980  Biso   1.000  H
  H132     1.0000 0.94360  0.84510  0.54920  Biso   1.000  H
  C132     1.0000 0.96390  0.93580  0.58930  Biso   1.000  C
  O33      1.0000 0.85550  0.88250  0.56760  Biso   1.000  O
  C133     1.0000 0.29730  0.78920  0.46460  Biso   1.000  C
  H133     1.0000 0.34310  0.80360  0.46810  Biso   1.000  H
  C134     1.0000 0.24640  0.83810  0.45290  Biso   1.000  C
  H134     1.0000 0.25840  0.88470  0.45060  Biso   1.000  H
  C135     1.0000 0.07580  0.86880  0.41100  Biso   1.000  C
  H135     1.0000 0.07060  0.84000  0.37020  Biso   1.000  H
  H136     1.0000 0.05640  0.84510  0.45080  Biso   1.000  H
  C136     1.0000 0.03610  0.93580  0.41070  Biso   1.000  C
  O34      1.0000 0.14450  0.88250  0.43240  Biso   1.000  O
  C137     1.0000 0.70270  0.21080  0.46460  Biso   1.000  C
  H137     1.0000 0.65690  0.19640  0.46810  Biso   1.000  H
  C138     1.0000 0.75360  0.16190  0.45290  Biso   1.000  C
  H138     1.0000 0.74160  0.11530  0.45060  Biso   1.000  H
  C139     1.0000 0.92420  0.13120  0.41100  Biso   1.000  C
  H139     1.0000 0.92940  0.16000  0.37020  Biso   1.000  H
  H140     1.0000 0.94360  0.15490  0.45080  Biso   1.000  H
  C140     1.0000 0.96390  0.06420  0.41070  Biso   1.000  C
  O35      1.0000 0.85550  0.11750  0.43240  Biso   1.000  O
  C141     1.0000 0.29730  0.21080  0.53540  Biso   1.000  C
  H141     1.0000 0.34310  0.19640  0.53190  Biso   1.000  H
  C142     1.0000 0.24640  0.16190  0.54710  Biso   1.000  C
  H142     1.0000 0.25840  0.11530  0.54940  Biso   1.000  H
  C143     1.0000 0.07580  0.13120  0.58900  Biso   1.000  C
  H143     1.0000 0.07060  0.16000  0.62980  Biso   1.000  H
  H144     1.0000 0.05640  0.15490  0.54920  Biso   1.000  H
  C144     1.0000 0.03610  0.06420  0.58930  Biso   1.000  C
  O36      1.0000 0.14450  0.11750  0.56760  Biso   1.000  O
  C145     1.0000 0.70270  0.53540  0.21080  Biso   1.000  C
  H145     1.0000 0.65690  0.53190  0.19640  Biso   1.000  H
  C146     1.0000 0.75360  0.54710  0.16190  Biso   1.000  C
  H146     1.0000 0.74160  0.54940  0.11530  Biso   1.000  H
  C147     1.0000 0.92420  0.58900  0.13120  Biso   1.000  C
  H147     1.0000 0.92940  0.62980  0.16000  Biso   1.000  H
  H148     1.0000 0.94360  0.54920  0.15490  Biso   1.000  H
  C148     1.0000 0.96390  0.58930  0.06420  Biso   1.000  C
  O37      1.0000 0.85550  0.56760  0.11750  Biso   1.000  O
  C149     1.0000 0.29730  0.46460  0.21080  Biso   1.000  C
  H149     1.0000 0.34310  0.46810  0.19640  Biso   1.000  H
  C150     1.0000 0.24640  0.45290  0.16190  Biso   1.000  C
  H150     1.0000 0.25840  0.45060  0.11530  Biso   1.000  H
  C151     1.0000 0.07580  0.41100  0.13120  Biso   1.000  C
  H151     1.0000 0.07060  0.37020  0.16000  Biso   1.000  H
  H152     1.0000 0.05640  0.45080  0.15490  Biso   1.000  H
  C152     1.0000 0.03610  0.41070  0.06420  Biso   1.000  C
  O38      1.0000 0.14450  0.43240  0.11750  Biso   1.000  O
  C153     1.0000 0.70270  0.46460  0.78920  Biso   1.000  C
  H153     1.0000 0.65690  0.46810  0.80360  Biso   1.000  H
  C154     1.0000 0.75360  0.45290  0.83810  Biso   1.000  C
  H154     1.0000 0.74160  0.45060  0.88470  Biso   1.000  H
  C155     1.0000 0.92420  0.41100  0.86880  Biso   1.000  C
  H155     1.0000 0.92940  0.37020  0.84000  Biso   1.000  H
  H156     1.0000 0.94360  0.45080  0.84510  Biso   1.000  H
  C156     1.0000 0.96390  0.41070  0.93580  Biso   1.000  C
  O39      1.0000 0.85550  0.43240  0.88250  Biso   1.000  O
  C157     1.0000 0.29730  0.53540  0.78920  Biso   1.000  C
  H157     1.0000 0.34310  0.53190  0.80360  Biso   1.000  H
  C158     1.0000 0.24640  0.54710  0.83810  Biso   1.000  C
  H158     1.0000 0.25840  0.54940  0.88470  Biso   1.000  H
  C159     1.0000 0.07580  0.58900  0.86880  Biso   1.000  C
  H159     1.0000 0.07060  0.62980  0.84000  Biso   1.000  H
  H160     1.0000 0.05640  0.54920  0.84510  Biso   1.000  H
  C160     1.0000 0.03610  0.58930  0.93580  Biso   1.000  C
  O40      1.0000 0.14450  0.56760  0.88250  Biso   1.000  O
  C161     1.0000 0.53540  0.78920  0.29730  Biso   1.000  C
  H161     1.0000 0.53190  0.80360  0.34310  Biso   1.000  H
  C162     1.0000 0.54710  0.83810  0.24640  Biso   1.000  C
  H162     1.0000 0.54940  0.88470  0.25840  Biso   1.000  H
  C163     1.0000 0.58900  0.86880  0.07580  Biso   1.000  C
  H163     1.0000 0.62980  0.84000  0.07060  Biso   1.000  H
  H164     1.0000 0.54920  0.84510  0.05640  Biso   1.000  H
  C164     1.0000 0.58930  0.93580  0.03610  Biso   1.000  C
  O41      1.0000 0.56760  0.88250  0.14450  Biso   1.000  O
  C165     1.0000 0.46460  0.78920  0.70270  Biso   1.000  C
  H165     1.0000 0.46810  0.80360  0.65690  Biso   1.000  H
  C166     1.0000 0.45290  0.83810  0.75360  Biso   1.000  C
  H166     1.0000 0.45060  0.88470  0.74160  Biso   1.000  H
  C167     1.0000 0.41100  0.86880  0.92420  Biso   1.000  C
  H167     1.0000 0.37020  0.84000  0.92940  Biso   1.000  H
  H168     1.0000 0.45080  0.84510  0.94360  Biso   1.000  H
  C168     1.0000 0.41070  0.93580  0.96390  Biso   1.000  C
  O42      1.0000 0.43240  0.88250  0.85550  Biso   1.000  O
  C169     1.0000 0.46460  0.21080  0.29730  Biso   1.000  C
  H169     1.0000 0.46810  0.19640  0.34310  Biso   1.000  H
  C170     1.0000 0.45290  0.16190  0.24640  Biso   1.000  C
  H170     1.0000 0.45060  0.11530  0.25840  Biso   1.000  H
  C171     1.0000 0.41100  0.13120  0.07580  Biso   1.000  C
  H171     1.0000 0.37020  0.16000  0.07060  Biso   1.000  H
  H172     1.0000 0.45080  0.15490  0.05640  Biso   1.000  H
  C172     1.0000 0.41070  0.06420  0.03610  Biso   1.000  C
  O43      1.0000 0.43240  0.11750  0.14450  Biso   1.000  O
  C173     1.0000 0.53540  0.21080  0.70270  Biso   1.000  C
  H173     1.0000 0.53190  0.19640  0.65690  Biso   1.000  H
  C174     1.0000 0.54710  0.16190  0.75360  Biso   1.000  C
  H174     1.0000 0.54940  0.11530  0.74160  Biso   1.000  H
  C175     1.0000 0.58900  0.13120  0.92420  Biso   1.000  C
  H175     1.0000 0.62980  0.16000  0.92940  Biso   1.000  H
  H176     1.0000 0.54920  0.15490  0.94360  Biso   1.000  H
  C176     1.0000 0.58930  0.06420  0.96390  Biso   1.000  C
  O44      1.0000 0.56760  0.11750  0.85550  Biso   1.000  O
  C177     1.0000 0.78920  0.70270  0.46460  Biso   1.000  C
  H177     1.0000 0.80360  0.65690  0.46810  Biso   1.000  H
  C178     1.0000 0.83810  0.75360  0.45290  Biso   1.000  C
  H178     1.0000 0.88470  0.74160  0.45060  Biso   1.000  H
  C179     1.0000 0.86880  0.92420  0.41100  Biso   1.000  C
  H179     1.0000 0.84000  0.92940  0.37020  Biso   1.000  H
  H180     1.0000 0.84510  0.94360  0.45080  Biso   1.000  H
  C180     1.0000 0.93580  0.96390  0.41070  Biso   1.000  C
  O45      1.0000 0.88250  0.85550  0.43240  Biso   1.000  O
  C181     1.0000 0.78920  0.29730  0.53540  Biso   1.000  C
  H181     1.0000 0.80360  0.34310  0.53190  Biso   1.000  H
  C182     1.0000 0.83810  0.24640  0.54710  Biso   1.000  C
  H182     1.0000 0.88470  0.25840  0.54940  Biso   1.000  H
  C183     1.0000 0.86880  0.07580  0.58900  Biso   1.000  C
  H183     1.0000 0.84000  0.07060  0.62980  Biso   1.000  H
  H184     1.0000 0.84510  0.05640  0.54920  Biso   1.000  H
  C184     1.0000 0.93580  0.03610  0.58930  Biso   1.000  C
  O46      1.0000 0.88250  0.14450  0.56760  Biso   1.000  O
  C185     1.0000 0.21080  0.70270  0.53540  Biso   1.000  C
  H185     1.0000 0.19640  0.65690  0.53190  Biso   1.000  H
  C186     1.0000 0.16190  0.75360  0.54710  Biso   1.000  C
  H186     1.0000 0.11530  0.74160  0.54940  Biso   1.000  H
  C187     1.0000 0.13120  0.92420  0.58900  Biso   1.000  C
  H187     1.0000 0.16000  0.92940  0.62980  Biso   1.000  H
  H188     1.0000 0.15490  0.94360  0.54920  Biso   1.000  H
  C188     1.0000 0.06420  0.96390  0.58930  Biso   1.000  C
  O47      1.0000 0.11750  0.85550  0.56760  Biso   1.000  O
  C189     1.0000 0.21080  0.29730  0.46460  Biso   1.000  C
  H189     1.0000 0.19640  0.34310  0.46810  Biso   1.000  H
  C190     1.0000 0.16190  0.24640  0.45290  Biso   1.000  C
  H190     1.0000 0.11530  0.25840  0.45060  Biso   1.000  H
  C191     1.0000 0.13120  0.07580  0.41100  Biso   1.000  C
  H191     1.0000 0.16000  0.07060  0.37020  Biso   1.000  H
  H192     1.0000 0.15490  0.05640  0.45080  Biso   1.000  H
  C192     1.0000 0.06420  0.03610  0.41070  Biso   1.000  C
  O48      1.0000 0.11750  0.14450  0.43240  Biso   1.000  O
  Y1       1.0000 0.50000  0.35835  0.50000  Biso   1.000  Y
  Y2       1.0000 0.50000  0.64165  0.50000  Biso   1.000  Y
  Y3       1.0000 0.50000  0.50000  0.35835  Biso   1.000  Y
  Y4       1.0000 0.50000  0.50000  0.64165  Biso   1.000  Y
  Y5       1.0000 0.35835  0.50000  0.50000  Biso   1.000  Y
  Y6       1.0000 0.64165  0.50000  0.50000  Biso   1.000  Y
  O49      1.0000 0.56430  0.43570  0.56430  Biso   1.000  O
  H193     1.0000 0.59360  0.40640  0.59360  Biso   1.000  H
  O50      1.0000 0.43570  0.56430  0.56430  Biso   1.000  O
  H194     1.0000 0.40640  0.59360  0.59360  Biso   1.000  H
  O51      1.0000 0.43570  0.43570  0.43570  Biso   1.000  O
  H195     1.0000 0.40640  0.40640  0.40640  Biso   1.000  H
  O52      1.0000 0.56430  0.56430  0.43570  Biso   1.000  O
  H196     1.0000 0.59360  0.59360  0.40640  Biso   1.000  H
  O53      1.0000 0.43570  0.56430  0.43570  Biso   1.000  O
  H197     1.0000 0.40640  0.59360  0.40640  Biso   1.000  H
  O54      1.0000 0.56430  0.43570  0.43570  Biso   1.000  O
  H198     1.0000 0.59360  0.40640  0.40640  Biso   1.000  H
  O55      1.0000 0.43570  0.43570  0.56430  Biso   1.000  O
  H199     1.0000 0.40640  0.40640  0.59360  Biso   1.000  H
  O56      1.0000 0.56430  0.56430  0.56430  Biso   1.000  O
  H200     1.0000 0.59360  0.59360  0.59360  Biso   1.000  H
  C193     1.0000 0.50000  0.33080  0.33080  Biso   1.000  C
  C194     1.0000 0.50000  0.66920  0.33080  Biso   1.000  C
  C195     1.0000 0.50000  0.33080  0.66920  Biso   1.000  C
  C196     1.0000 0.50000  0.66920  0.66920  Biso   1.000  C
  C197     1.0000 0.33080  0.50000  0.33080  Biso   1.000  C
  C198     1.0000 0.33080  0.50000  0.66920  Biso   1.000  C
  C199     1.0000 0.66920  0.50000  0.33080  Biso   1.000  C
  C200     1.0000 0.66920  0.50000  0.66920  Biso   1.000  C
  C201     1.0000 0.33080  0.33080  0.50000  Biso   1.000  C
  C202     1.0000 0.66920  0.33080  0.50000  Biso   1.000  C
  C203     1.0000 0.33080  0.66920  0.50000  Biso   1.000  C
  C204     1.0000 0.66920  0.66920  0.50000  Biso   1.000  C
  O57      1.0000 0.50000  0.30850  0.39220  Biso   1.000  O
  O58      1.0000 0.50000  0.69150  0.39220  Biso   1.000  O
  O59      1.0000 0.50000  0.30850  0.60780  Biso   1.000  O
  O60      1.0000 0.50000  0.69150  0.60780  Biso   1.000  O
  O61      1.0000 0.39220  0.50000  0.30850  Biso   1.000  O
  O62      1.0000 0.39220  0.50000  0.69150  Biso   1.000  O
  O63      1.0000 0.60780  0.50000  0.30850  Biso   1.000  O
  O64      1.0000 0.60780  0.50000  0.69150  Biso   1.000  O
  O65      1.0000 0.30850  0.39220  0.50000  Biso   1.000  O
  O66      1.0000 0.69150  0.39220  0.50000  Biso   1.000  O
  O67      1.0000 0.30850  0.60780  0.50000  Biso   1.000  O
  O68      1.0000 0.69150  0.60780  0.50000  Biso   1.000  O
  O69      1.0000 0.30850  0.50000  0.60780  Biso   1.000  O
  O70      1.0000 0.69150  0.50000  0.60780  Biso   1.000  O
  O71      1.0000 0.30850  0.50000  0.39220  Biso   1.000  O
  O72      1.0000 0.69150  0.50000  0.39220  Biso   1.000  O
  O73      1.0000 0.50000  0.39220  0.69150  Biso   1.000  O
  O74      1.0000 0.50000  0.39220  0.30850  Biso   1.000  O
  O75      1.0000 0.50000  0.60780  0.69150  Biso   1.000  O
  O76      1.0000 0.50000  0.60780  0.30850  Biso   1.000  O
  O77      1.0000 0.39220  0.30850  0.50000  Biso   1.000  O
  O78      1.0000 0.39220  0.69150  0.50000  Biso   1.000  O
  O79      1.0000 0.60780  0.30850  0.50000  Biso   1.000  O
  O80      1.0000 0.60780  0.69150  0.50000  Biso   1.000  O
  C205     1.0000 0.47250  0.27810  0.27810  Biso   1.000  C
  C206     1.0000 0.44700  0.17990  0.17990  Biso   1.000  C
  C207     1.0000 0.52750  0.72190  0.27810  Biso   1.000  C
  C208     1.0000 0.55300  0.82010  0.17990  Biso   1.000  C
  C209     1.0000 0.52750  0.27810  0.72190  Biso   1.000  C
  C210     1.0000 0.55300  0.17990  0.82010  Biso   1.000  C
  C211     1.0000 0.47250  0.72190  0.72190  Biso   1.000  C
  C212     1.0000 0.44700  0.82010  0.82010  Biso   1.000  C
  C213     1.0000 0.27810  0.47250  0.27810  Biso   1.000  C
  C214     1.0000 0.17990  0.44700  0.17990  Biso   1.000  C
  C215     1.0000 0.27810  0.52750  0.72190  Biso   1.000  C
  C216     1.0000 0.17990  0.55300  0.82010  Biso   1.000  C
  C217     1.0000 0.72190  0.52750  0.27810  Biso   1.000  C
  C218     1.0000 0.82010  0.55300  0.17990  Biso   1.000  C
  C219     1.0000 0.72190  0.47250  0.72190  Biso   1.000  C
  C220     1.0000 0.82010  0.44700  0.82010  Biso   1.000  C
  C221     1.0000 0.27810  0.27810  0.47250  Biso   1.000  C
  C222     1.0000 0.17990  0.17990  0.44700  Biso   1.000  C
  C223     1.0000 0.72190  0.27810  0.52750  Biso   1.000  C
  C224     1.0000 0.82010  0.17990  0.55300  Biso   1.000  C
  C225     1.0000 0.27810  0.72190  0.52750  Biso   1.000  C
  C226     1.0000 0.17990  0.82010  0.55300  Biso   1.000  C
  C227     1.0000 0.72190  0.72190  0.47250  Biso   1.000  C
  C228     1.0000 0.82010  0.82010  0.44700  Biso   1.000  C
  C229     1.0000 0.27810  0.47250  0.72190  Biso   1.000  C
  C230     1.0000 0.17990  0.44700  0.82010  Biso   1.000  C
  C231     1.0000 0.72190  0.52750  0.72190  Biso   1.000  C
  C232     1.0000 0.82010  0.55300  0.82010  Biso   1.000  C
  C233     1.0000 0.27810  0.52750  0.27810  Biso   1.000  C
  C234     1.0000 0.17990  0.55300  0.17990  Biso   1.000  C
  C235     1.0000 0.72190  0.47250  0.27810  Biso   1.000  C
  C236     1.0000 0.82010  0.44700  0.17990  Biso   1.000  C
  C237     1.0000 0.47250  0.27810  0.72190  Biso   1.000  C
  C238     1.0000 0.44700  0.17990  0.82010  Biso   1.000  C
  C239     1.0000 0.52750  0.27810  0.27810  Biso   1.000  C
  C240     1.0000 0.55300  0.17990  0.17990  Biso   1.000  C
  C241     1.0000 0.52750  0.72190  0.72190  Biso   1.000  C
  C242     1.0000 0.55300  0.82010  0.82010  Biso   1.000  C
  C243     1.0000 0.47250  0.72190  0.27810  Biso   1.000  C
  C244     1.0000 0.44700  0.82010  0.17990  Biso   1.000  C
  C245     1.0000 0.27810  0.27810  0.52750  Biso   1.000  C
  C246     1.0000 0.17990  0.17990  0.55300  Biso   1.000  C
  C247     1.0000 0.27810  0.72190  0.47250  Biso   1.000  C
  C248     1.0000 0.17990  0.82010  0.44700  Biso   1.000  C
  C249     1.0000 0.72190  0.27810  0.47250  Biso   1.000  C
  C250     1.0000 0.82010  0.17990  0.44700  Biso   1.000  C
  C251     1.0000 0.72190  0.72190  0.52750  Biso   1.000  C
  C252     1.0000 0.82010  0.82010  0.55300  Biso   1.000  C
  C253     1.0000 0.41080  0.06800  0.00000  Biso   1.000  C
  H201     1.0000 0.41075  0.11594  0.00000  Biso   1.000  H
  C254     1.0000 0.58920  0.93200  0.00000  Biso   1.000  C
  H202     1.0000 0.58925  0.88405  0.00000  Biso   1.000  H
  C255     1.0000 0.58920  0.06800  0.00000  Biso   1.000  C
  H203     1.0000 0.58925  0.11594  0.00000  Biso   1.000  H
  C256     1.0000 0.41080  0.93200  0.00000  Biso   1.000  C
  H204     1.0000 0.41075  0.88405  0.00000  Biso   1.000  H
  C257     1.0000 0.00000  0.41080  0.06800  Biso   1.000  C
  H205     1.0000 0.00000  0.41075  0.11594  Biso   1.000  H
  C258     1.0000 0.00000  0.58920  0.93200  Biso   1.000  C
  H206     1.0000 0.00000  0.58925  0.88405  Biso   1.000  H
  C259     1.0000 0.00000  0.58920  0.06800  Biso   1.000  C
  H207     1.0000 0.00000  0.58925  0.11594  Biso   1.000  H
  C260     1.0000 0.00000  0.41080  0.93200  Biso   1.000  C
  H208     1.0000 0.00000  0.41075  0.88405  Biso   1.000  H
  C261     1.0000 0.06800  0.00000  0.41080  Biso   1.000  C
  H209     1.0000 0.11594  0.00000  0.41075  Biso   1.000  H
  C262     1.0000 0.93200  0.00000  0.58920  Biso   1.000  C
  H210     1.0000 0.88405  0.00000  0.58925  Biso   1.000  H
  C263     1.0000 0.06800  0.00000  0.58920  Biso   1.000  C
  H211     1.0000 0.11594  0.00000  0.58925  Biso   1.000  H
  C264     1.0000 0.93200  0.00000  0.41080  Biso   1.000  C
  H212     1.0000 0.88405  0.00000  0.41075  Biso   1.000  H
  C265     1.0000 0.06800  0.41080  0.00000  Biso   1.000  C
  H213     1.0000 0.11594  0.41075  0.00000  Biso   1.000  H
  C266     1.0000 0.93200  0.58920  0.00000  Biso   1.000  C
  H214     1.0000 0.88405  0.58925  0.00000  Biso   1.000  H
  C267     1.0000 0.06800  0.58920  0.00000  Biso   1.000  C
  H215     1.0000 0.11594  0.58925  0.00000  Biso   1.000  H
  C268     1.0000 0.93200  0.41080  0.00000  Biso   1.000  C
  H216     1.0000 0.88405  0.41075  0.00000  Biso   1.000  H
  C269     1.0000 0.41080  0.00000  0.93200  Biso   1.000  C
  H217     1.0000 0.41075  0.00000  0.88405  Biso   1.000  H
  C270     1.0000 0.58920  0.00000  0.06800  Biso   1.000  C
  H218     1.0000 0.58925  0.00000  0.11594  Biso   1.000  H
  C271     1.0000 0.58920  0.00000  0.93200  Biso   1.000  C
  H219     1.0000 0.58925  0.00000  0.88405  Biso   1.000  H
  C272     1.0000 0.41080  0.00000  0.06800  Biso   1.000  C
  H220     1.0000 0.41075  0.00000  0.11594  Biso   1.000  H
  C273     1.0000 0.00000  0.06800  0.58920  Biso   1.000  C
  H221     1.0000 0.00000  0.11594  0.58925  Biso   1.000  H
  C274     1.0000 0.00000  0.93200  0.41080  Biso   1.000  C
  H222     1.0000 0.00000  0.88405  0.41075  Biso   1.000  H
  C275     1.0000 0.00000  0.06800  0.41080  Biso   1.000  C
  H223     1.0000 0.00000  0.11594  0.41075  Biso   1.000  H
  C276     1.0000 0.00000  0.93200  0.58920  Biso   1.000  C
  H224     1.0000 0.00000  0.88405  0.58925  Biso   1.000  H
