data_image0
_cell_length_a       21.179
_cell_length_b       22.56
_cell_length_c       23.138
_cell_angle_alpha    105.3
_cell_angle_beta     114.19
_cell_angle_gamma    102.88

_symmetry_space_group_name_H-M    "P 1"
_symmetry_int_tables_number       1

loop_
  _symmetry_equiv_pos_as_xyz
  'x, y, z'

loop_
  _atom_site_label
  _atom_site_occupancy
  _atom_site_fract_x
  _atom_site_fract_y
  _atom_site_fract_z
  _atom_site_thermal_displace_type
  _atom_site_B_iso_or_equiv
  _atom_site_type_symbol
  Zn1      1.0000 0.61874  0.53357  0.90577  Biso   1.000  Zn
  Zn2      1.0000 0.61114  0.41066  0.81483  Biso   1.000  Zn
  Zn3      1.0000 0.64148  0.94091  0.31592  Biso   1.000  Zn
  Zn4      1.0000 0.59214  0.00521  0.40618  Biso   1.000  Zn
  O1       1.0000 0.72481  0.45167  0.87306  Biso   1.000  O
  O2       1.0000 0.50199  0.39463  0.77639  Biso   1.000  O
  O3       1.0000 0.66539  0.89720  0.38486  Biso   1.000  O
  O4       1.0000 0.48477  0.93977  0.34166  Biso   1.000  O
  O5       1.0000 0.50669  0.49236  0.83646  Biso   1.000  O
  O6       1.0000 0.63480  0.57794  0.84487  Biso   1.000  O
  O7       1.0000 0.60411  0.37666  0.88584  Biso   1.000  O
  O8       1.0000 0.53077  0.88978  0.28121  Biso   1.000  O
  O9       1.0000 0.70559  0.05491  0.44731  Biso   1.000  O
  O10      1.0000 0.61882  0.94018  0.44878  Biso   1.000  O
  O11      1.0000 0.74559  0.01184  0.37718  Biso   1.000  O
  O12      1.0000 0.72577  0.53871  0.94542  Biso   1.000  O
  O13      1.0000 0.59720  0.46738  0.94693  Biso   1.000  O
  O14      1.0000 0.61120  0.00111  0.26841  Biso   1.000  O
  O15      1.0000 0.57640  0.05121  0.33922  Biso   1.000  O
  O16      1.0000 0.62070  0.48069  0.77421  Biso   1.000  O
  N1       1.0000 0.60290  0.33381  0.73930  Biso   1.000  N
  N2       1.0000 0.62940  0.61227  0.98188  Biso   1.000  N
  N3       1.0000 0.58730  0.07380  0.48000  Biso   1.000  N
  O17      1.0000 0.10950  0.72140  0.12550  Biso   1.000  O
  N4       1.0000 0.64620  0.87228  0.24300  Biso   1.000  N
  C1       1.0000 0.64030  0.71690  0.08560  Biso   1.000  C
  N5       1.0000 0.06950  0.62640  0.02990  Biso   1.000  N
  H1       1.0000 0.08540  0.60450  0.00500  Biso   1.000  H
  C2       1.0000 0.59400  0.23050  0.63560  Biso   1.000  C
  C3       1.0000 0.39320  0.78680  0.18920  Biso   1.000  C
  H2       1.0000 0.43530  0.78170  0.18620  Biso   1.000  H
  O18      1.0000 0.11730  0.23110  0.59240  Biso   1.000  O
  C4       1.0000 0.59390  0.40830  0.93300  Biso   1.000  C
  C5       1.0000 0.53100  0.23090  0.63930  Biso   1.000  C
  H3       1.0000 0.48400  0.19590  0.60690  Biso   1.000  H
  N6       1.0000 0.19180  0.69310  0.09440  Biso   1.000  N
  H4       1.0000 0.19410  0.66260  0.06340  Biso   1.000  H
  C6       1.0000 0.57790  0.37540  0.97500  Biso   1.000  C
  C7       1.0000 0.53770  0.28390  0.69170  Biso   1.000  C
  H5       1.0000 0.49400  0.28470  0.69380  Biso   1.000  H
  O19      1.0000 0.66410  0.75080  0.64370  Biso   1.000  O
  N7       1.0000 0.53380  0.28630  0.09850  Biso   1.000  N
  H6       1.0000 0.51400  0.30580  0.12080  Biso   1.000  H
  C8       1.0000 0.47020  0.43190  0.79180  Biso   1.000  C
  C9       1.0000 0.26100  0.74540  0.14530  Biso   1.000  C
  C10      1.0000 0.63670  0.65630  0.09200  Biso   1.000  C
  H7       1.0000 0.63800  0.65040  0.13160  Biso   1.000  H
  C11      1.0000 0.32370  0.73840  0.14440  Biso   1.000  C
  H8       1.0000 0.31840  0.69910  0.11180  Biso   1.000  H
  C12      1.0000 0.64330  0.77070  0.14030  Biso   1.000  C
  C13      1.0000 0.56300  0.40610  0.02560  Biso   1.000  C
  H9       1.0000 0.56140  0.44900  0.03200  Biso   1.000  H
  C14      1.0000 0.87880  0.50720  0.92640  Biso   1.000  C
  H10      1.0000 0.85260  0.46470  0.88930  Biso   1.000  H
  O20      1.0000 0.57550  0.19940  0.08370  Biso   1.000  O
  C15      1.0000 0.38900  0.40710  0.75880  Biso   1.000  C
  C16      1.0000 0.63570  0.67130  0.97820  Biso   1.000  C
  H11      1.0000 0.63570  0.67660  0.93890  Biso   1.000  H
  C17      1.0000 0.69070  0.80980  0.44820  Biso   1.000  C
  H12      1.0000 0.69890  0.80480  0.41010  Biso   1.000  H
  C18      1.0000 0.66650  0.85910  0.46910  Biso   1.000  C
  N8       1.0000 0.15600  0.33730  0.66630  Biso   1.000  N
  H13      1.0000 0.13910  0.36740  0.67980  Biso   1.000  H
  C19      1.0000 0.75710  0.50740  0.92150  Biso   1.000  C
  C20      1.0000 0.55050  0.37700  0.06630  Biso   1.000  C
  H14      1.0000 0.54190  0.40030  0.10120  Biso   1.000  H
  C21      1.0000 0.83890  0.53760  0.95120  Biso   1.000  C
  C22      1.0000 0.40240  0.84420  0.23970  Biso   1.000  C
  N9       1.0000 0.70470  0.72690  0.56540  Biso   1.000  N
  H15      1.0000 0.72600  0.70170  0.55100  Biso   1.000  H
  C23      1.0000 0.75500  0.05600  0.43090  Biso   1.000  C
  C24      1.0000 0.34400  0.34420  0.70580  Biso   1.000  C
  H16      1.0000 0.36760  0.31730  0.69100  Biso   1.000  H
  C25      1.0000 0.59020  0.17550  0.58010  Biso   1.000  C
  C26      1.0000 0.64230  0.72550  0.02980  Biso   1.000  C
  H17      1.0000 0.64810  0.76710  0.02630  Biso   1.000  H
  C27      1.0000 0.26820  0.31930  0.67430  Biso   1.000  C
  H18      1.0000 0.24010  0.27620  0.63820  Biso   1.000  H
  C28      1.0000 0.26750  0.80210  0.19380  Biso   1.000  C
  H19      1.0000 0.22470  0.80790  0.19450  Biso   1.000  H
  C29      1.0000 0.65800  0.86460  0.52710  Biso   1.000  C
  H20      1.0000 0.64330  0.89910  0.54400  Biso   1.000  H
  C30      1.0000 0.47830  0.89470  0.29160  Biso   1.000  C
  C31      1.0000 0.82710  0.11000  0.47400  Biso   1.000  C
  C32      1.0000 0.64990  0.90260  0.43180  Biso   1.000  C
  C33      1.0000 0.55020  0.31380  0.05790  Biso   1.000  C
  C34      1.0000 0.33730  0.84890  0.24000  Biso   1.000  C
  H21      1.0000 0.34240  0.88680  0.27430  Biso   1.000  H
  C35      1.0000 0.63120  0.60510  0.03900  Biso   1.000  C
  H22      1.0000 0.62860  0.56380  0.04280  Biso   1.000  H
  C36      1.0000 0.57270  0.08750  0.25460  Biso   1.000  C
  C37      1.0000 0.95220  0.53600  0.95300  Biso   1.000  C
  H23      1.0000 0.97670  0.51300  0.93460  Biso   1.000  H
  C38      1.0000 0.70310  0.76750  0.48160  Biso   1.000  C
  H24      1.0000 0.71890  0.73360  0.46550  Biso   1.000  H
  N10      1.0000 0.53090  0.22050  0.15860  Biso   1.000  N
  H25      1.0000 0.51060  0.24620  0.17390  Biso   1.000  H
  C39      1.0000 0.66970  0.82380  0.56020  Biso   1.000  C
  H26      1.0000 0.66220  0.82910  0.59870  Biso   1.000  H
  C40      1.0000 0.58600  0.04310  0.28830  Biso   1.000  C
  N11      1.0000 0.69770  0.66180  0.62570  Biso   1.000  N
  H27      1.0000 0.71690  0.64140  0.60330  Biso   1.000  H
  C41      1.0000 0.23220  0.35750  0.69510  Biso   1.000  C
  C42      1.0000 0.99510  0.59970  0.00770  Biso   1.000  C
  C43      1.0000 0.35090  0.44480  0.77870  Biso   1.000  C
  H28      1.0000 0.37900  0.48780  0.81500  Biso   1.000  H
  C44      1.0000 0.57600  0.31130  0.96590  Biso   1.000  C
  H29      1.0000 0.58350  0.28780  0.93020  Biso   1.000  H
  C45      1.0000 0.56380  0.28110  0.00610  Biso   1.000  C
  H30      1.0000 0.56440  0.23790  0.99910  Biso   1.000  H
  C46      1.0000 0.88960  0.11160  0.46640  Biso   1.000  C
  H31      1.0000 0.88490  0.07520  0.43070  Biso   1.000  H
  N12      1.0000 0.03460  0.27120  0.60830  Biso   1.000  N
  H32      1.0000 0.03200  0.30660  0.63320  Biso   1.000  H
  C47      1.0000 0.63480  0.54270  0.79350  Biso   1.000  C
  C48      1.0000 0.61680  0.75720  0.18340  Biso   1.000  C
  H33      1.0000 0.59820  0.71300  0.17930  Biso   1.000  H
  C49      1.0000 0.54550  0.22930  0.10850  Biso   1.000  C
  C50      1.0000 0.27650  0.42170  0.74790  Biso   1.000  C
  H34      1.0000 0.25290  0.44910  0.76190  Biso   1.000  H
  C51      1.0000 0.12280  0.68310  0.08640  Biso   1.000  C
  C52      1.0000 0.88210  0.60130  0.00630  Biso   1.000  C
  H35      1.0000 0.85710  0.62400  0.02420  Biso   1.000  H
  C53      1.0000 0.69300  0.77340  0.53740  Biso   1.000  C
  C54      1.0000 0.95650  0.63140  0.03460  Biso   1.000  C
  H36      1.0000 0.98290  0.67350  0.07230  Biso   1.000  H
  C55      1.0000 0.66660  0.88420  0.20010  Biso   1.000  C
  H37      1.0000 0.68060  0.92820  0.20250  Biso   1.000  H
  C56      1.0000 0.68310  0.63570  0.66770  Biso   1.000  C
  C57      1.0000 0.65190  0.57470  0.75070  Biso   1.000  C
  C58      1.0000 0.58240  0.08370  0.19820  Biso   1.000  C
  H38      1.0000 0.59780  0.04990  0.18120  Biso   1.000  H
  C59      1.0000 0.67630  0.67110  0.72310  Biso   1.000  C
  H39      1.0000 0.68270  0.71650  0.73390  Biso   1.000  H
  C60      1.0000 0.65780  0.53860  0.69380  Biso   1.000  C
  H40      1.0000 0.65120  0.49320  0.68320  Biso   1.000  H
  C61      1.0000 0.66880  0.83500  0.15090  Biso   1.000  C
  H41      1.0000 0.68900  0.84710  0.12390  Biso   1.000  H
  C62      1.0000 0.65870  0.28210  0.68220  Biso   1.000  C
  H42      1.0000 0.70270  0.28350  0.67970  Biso   1.000  H
  C63      1.0000 0.96500  0.21510  0.56060  Biso   1.000  C
  C64      1.0000 0.68630  0.71590  0.61380  Biso   1.000  C
  C65      1.0000 0.83870  0.16440  0.53080  Biso   1.000  C
  H43      1.0000 0.79890  0.16510  0.53970  Biso   1.000  H
  C66      1.0000 0.66060  0.64030  0.76080  Biso   1.000  C
  H44      1.0000 0.65490  0.66530  0.79710  Biso   1.000  H
  C67      1.0000 0.95800  0.16380  0.50840  Biso   1.000  C
  H45      1.0000 0.99900  0.16380  0.50120  Biso   1.000  H
  C68      1.0000 0.10240  0.27490  0.61830  Biso   1.000  C
  C69      1.0000 0.54510  0.17490  0.18790  Biso   1.000  C
  C70      1.0000 0.54660  0.13660  0.27550  Biso   1.000  C
  H46      1.0000 0.53590  0.13910  0.31190  Biso   1.000  H
  C71      1.0000 0.67240  0.56770  0.65580  Biso   1.000  C
  H47      1.0000 0.67600  0.54210  0.61830  Biso   1.000  H
  C72      1.0000 0.66220  0.33310  0.73350  Biso   1.000  C
  H48      1.0000 0.70870  0.36870  0.76570  Biso   1.000  H
  C73      1.0000 0.61820  0.80980  0.23260  Biso   1.000  C
  H49      1.0000 0.59780  0.79980  0.26020  Biso   1.000  H
  C74      1.0000 0.57110  0.12590  0.16590  Biso   1.000  C
  H50      1.0000 0.58050  0.12230  0.12870  Biso   1.000  H
  C75      1.0000 0.90540  0.21450  0.57150  Biso   1.000  C
  H51      1.0000 0.91190  0.25040  0.60880  Biso   1.000  H
  C76      1.0000 0.53650  0.17950  0.24640  Biso   1.000  C
  H52      1.0000 0.52300  0.21420  0.26510  Biso   1.000  H
  C77      1.0000 0.64170  0.09470  0.54610  Biso   1.000  C
  H53      1.0000 0.67840  0.07550  0.55660  Biso   1.000  H
  C78      1.0000 0.64460  0.14390  0.59890  Biso   1.000  C
  H54      1.0000 0.68070  0.15670  0.64580  Biso   1.000  H
  C79      1.0000 0.53260  0.09050  0.47050  Biso   1.000  C
  H55      1.0000 0.48760  0.06410  0.42790  Biso   1.000  H
  C80      1.0000 0.53100  0.14370  0.51590  Biso   1.000  C
  H56      1.0000 0.48960  0.15700  0.50210  Biso   1.000  H
  C81      1.0000 0.62810  0.19190  0.54130  Biso   1.000  C
  H57      1.0000 0.65350  0.23640  0.54990  Biso   1.000  H
  C82      1.0000 0.62420  0.13960  0.49300  Biso   1.000  C
  H58      1.0000 0.64740  0.14780  0.46690  Biso   1.000  H
  C83      1.0000 0.54570  0.11270  0.55470  Biso   1.000  C
  H59      1.0000 0.50830  0.10050  0.56660  Biso   1.000  H
  C84      1.0000 0.55450  0.06610  0.51120  Biso   1.000  C
  H60      1.0000 0.53190  0.02160  0.50440  Biso   1.000  H
  Zn5      1.0000 0.38126  0.46643  0.09423  Biso   1.000  Zn
  Zn6      1.0000 0.38886  0.58934  0.18517  Biso   1.000  Zn
  Zn7      1.0000 0.35852  0.05909  0.68408  Biso   1.000  Zn
  Zn8      1.0000 0.40786  0.99479  0.59382  Biso   1.000  Zn
  O21      1.0000 0.27519  0.54833  0.12694  Biso   1.000  O
  O22      1.0000 0.49801  0.60537  0.22361  Biso   1.000  O
  O23      1.0000 0.33461  0.10280  0.61514  Biso   1.000  O
  O24      1.0000 0.51523  0.06023  0.65834  Biso   1.000  O
  O25      1.0000 0.49331  0.50764  0.16354  Biso   1.000  O
  O26      1.0000 0.36520  0.42206  0.15513  Biso   1.000  O
  O27      1.0000 0.39589  0.62334  0.11416  Biso   1.000  O
  O28      1.0000 0.46923  0.11022  0.71879  Biso   1.000  O
  O29      1.0000 0.29441  0.94509  0.55269  Biso   1.000  O
  O30      1.0000 0.38118  0.05982  0.55122  Biso   1.000  O
  O31      1.0000 0.25441  0.98816  0.62282  Biso   1.000  O
  O32      1.0000 0.27423  0.46129  0.05458  Biso   1.000  O
  O33      1.0000 0.40280  0.53262  0.05307  Biso   1.000  O
  O34      1.0000 0.38880  0.99889  0.73159  Biso   1.000  O
  O35      1.0000 0.42360  0.94879  0.66078  Biso   1.000  O
  O36      1.0000 0.37930  0.51931  0.22579  Biso   1.000  O
  N13      1.0000 0.39710  0.66619  0.26070  Biso   1.000  N
  N14      1.0000 0.37060  0.38773  0.01812  Biso   1.000  N
  N15      1.0000 0.41270  0.92620  0.52000  Biso   1.000  N
  O37      1.0000 0.89050  0.27860  0.87450  Biso   1.000  O
  N16      1.0000 0.35380  0.12772  0.75700  Biso   1.000  N
  C85      1.0000 0.35970  0.28310  0.91440  Biso   1.000  C
  N17      1.0000 0.93050  0.37360  0.97010  Biso   1.000  N
  H61      1.0000 0.91460  0.39550  0.99500  Biso   1.000  H
  C86      1.0000 0.40600  0.76950  0.36440  Biso   1.000  C
  C87      1.0000 0.60680  0.21320  0.81080  Biso   1.000  C
  H62      1.0000 0.56470  0.21830  0.81380  Biso   1.000  H
  O38      1.0000 0.88270  0.76890  0.40760  Biso   1.000  O
  C88      1.0000 0.40610  0.59170  0.06700  Biso   1.000  C
  C89      1.0000 0.46900  0.76910  0.36070  Biso   1.000  C
  H63      1.0000 0.51600  0.80410  0.39310  Biso   1.000  H
  N18      1.0000 0.80820  0.30690  0.90560  Biso   1.000  N
  H64      1.0000 0.80590  0.33740  0.93660  Biso   1.000  H
  C90      1.0000 0.42210  0.62460  0.02500  Biso   1.000  C
  C91      1.0000 0.46230  0.71610  0.30830  Biso   1.000  C
  H65      1.0000 0.50600  0.71530  0.30620  Biso   1.000  H
  O39      1.0000 0.33590  0.24920  0.35630  Biso   1.000  O
  N19      1.0000 0.46620  0.71370  0.90150  Biso   1.000  N
  H66      1.0000 0.48600  0.69420  0.87920  Biso   1.000  H
  C92      1.0000 0.52980  0.56810  0.20820  Biso   1.000  C
  C93      1.0000 0.73900  0.25460  0.85470  Biso   1.000  C
  C94      1.0000 0.36330  0.34370  0.90800  Biso   1.000  C
  H67      1.0000 0.36200  0.34960  0.86840  Biso   1.000  H
  C95      1.0000 0.67630  0.26160  0.85560  Biso   1.000  C
  H68      1.0000 0.68160  0.30090  0.88820  Biso   1.000  H
  C96      1.0000 0.35670  0.22930  0.85970  Biso   1.000  C
  C97      1.0000 0.43700  0.59390  0.97440  Biso   1.000  C
  H69      1.0000 0.43860  0.55100  0.96800  Biso   1.000  H
  C98      1.0000 0.12120  0.49280  0.07360  Biso   1.000  C
  H70      1.0000 0.14740  0.53530  0.11070  Biso   1.000  H
  O40      1.0000 0.42450  0.80060  0.91630  Biso   1.000  O
  C99      1.0000 0.61100  0.59290  0.24120  Biso   1.000  C
  C100     1.0000 0.36430  0.32870  0.02180  Biso   1.000  C
  H71      1.0000 0.36430  0.32340  0.06110  Biso   1.000  H
  C101     1.0000 0.30930  0.19020  0.55180  Biso   1.000  C
  H72      1.0000 0.30110  0.19520  0.58990  Biso   1.000  H
  C102     1.0000 0.33350  0.14090  0.53090  Biso   1.000  C
  N20      1.0000 0.84400  0.66270  0.33370  Biso   1.000  N
  H73      1.0000 0.86090  0.63260  0.32020  Biso   1.000  H
  C103     1.0000 0.24290  0.49260  0.07850  Biso   1.000  C
  C104     1.0000 0.44950  0.62300  0.93370  Biso   1.000  C
  H74      1.0000 0.45810  0.59970  0.89880  Biso   1.000  H
  C105     1.0000 0.16110  0.46240  0.04880  Biso   1.000  C
  C106     1.0000 0.59760  0.15580  0.76030  Biso   1.000  C
  N21      1.0000 0.29530  0.27310  0.43460  Biso   1.000  N
  H75      1.0000 0.27400  0.29830  0.44900  Biso   1.000  H
  C107     1.0000 0.24500  0.94400  0.56910  Biso   1.000  C
  C108     1.0000 0.65600  0.65580  0.29420  Biso   1.000  C
  H76      1.0000 0.63240  0.68270  0.30900  Biso   1.000  H
  C109     1.0000 0.40980  0.82450  0.41990  Biso   1.000  C
  C110     1.0000 0.35770  0.27450  0.97020  Biso   1.000  C
  H77      1.0000 0.35190  0.23290  0.97370  Biso   1.000  H
  C111     1.0000 0.73180  0.68070  0.32570  Biso   1.000  C
  H78      1.0000 0.75990  0.72380  0.36180  Biso   1.000  H
  C112     1.0000 0.73250  0.19790  0.80620  Biso   1.000  C
  H79      1.0000 0.77530  0.19210  0.80550  Biso   1.000  H
  C113     1.0000 0.34200  0.13540  0.47290  Biso   1.000  C
  H80      1.0000 0.35670  0.10090  0.45600  Biso   1.000  H
  C114     1.0000 0.52170  0.10530  0.70840  Biso   1.000  C
  C115     1.0000 0.17290  0.89000  0.52600  Biso   1.000  C
  C116     1.0000 0.35010  0.09740  0.56820  Biso   1.000  C
  C117     1.0000 0.44980  0.68620  0.94210  Biso   1.000  C
  C118     1.0000 0.66270  0.15110  0.76000  Biso   1.000  C
  H81      1.0000 0.65760  0.11320  0.72570  Biso   1.000  H
  C119     1.0000 0.36880  0.39490  0.96100  Biso   1.000  C
  H82      1.0000 0.37140  0.43620  0.95720  Biso   1.000  H
  C120     1.0000 0.42730  0.91250  0.74540  Biso   1.000  C
  C121     1.0000 0.04780  0.46400  0.04700  Biso   1.000  C
  H83      1.0000 0.02330  0.48700  0.06540  Biso   1.000  H
  C122     1.0000 0.29690  0.23250  0.51840  Biso   1.000  C
  H84      1.0000 0.28110  0.26640  0.53450  Biso   1.000  H
  N22      1.0000 0.46910  0.77950  0.84140  Biso   1.000  N
  H85      1.0000 0.48940  0.75380  0.82610  Biso   1.000  H
  C123     1.0000 0.33030  0.17620  0.43980  Biso   1.000  C
  H86      1.0000 0.33780  0.17090  0.40130  Biso   1.000  H
  C124     1.0000 0.41400  0.95690  0.71170  Biso   1.000  C
  N23      1.0000 0.30230  0.33820  0.37430  Biso   1.000  N
  H87      1.0000 0.28310  0.35860  0.39670  Biso   1.000  H
  C125     1.0000 0.76780  0.64250  0.30490  Biso   1.000  C
  C126     1.0000 0.00490  0.40030  0.99230  Biso   1.000  C
  C127     1.0000 0.64910  0.55520  0.22130  Biso   1.000  C
  H88      1.0000 0.62100  0.51220  0.18500  Biso   1.000  H
  C128     1.0000 0.42400  0.68870  0.03410  Biso   1.000  C
  H89      1.0000 0.41650  0.71220  0.06980  Biso   1.000  H
  C129     1.0000 0.43620  0.71890  0.99390  Biso   1.000  C
  H90      1.0000 0.43560  0.76210  0.00090  Biso   1.000  H
  C130     1.0000 0.11040  0.88840  0.53360  Biso   1.000  C
  H91      1.0000 0.11510  0.92480  0.56930  Biso   1.000  H
  N24      1.0000 0.96540  0.72880  0.39170  Biso   1.000  N
  H92      1.0000 0.96800  0.69340  0.36680  Biso   1.000  H
  C131     1.0000 0.36520  0.45730  0.20650  Biso   1.000  C
  C132     1.0000 0.38320  0.24280  0.81660  Biso   1.000  C
  H93      1.0000 0.40180  0.28700  0.82070  Biso   1.000  H
  C133     1.0000 0.45450  0.77070  0.89150  Biso   1.000  C
  C134     1.0000 0.72350  0.57830  0.25210  Biso   1.000  C
  H94      1.0000 0.74710  0.55090  0.23810  Biso   1.000  H
  C135     1.0000 0.87720  0.31690  0.91360  Biso   1.000  C
  C136     1.0000 0.11790  0.39870  0.99370  Biso   1.000  C
  H95      1.0000 0.14290  0.37600  0.97580  Biso   1.000  H
  C137     1.0000 0.30700  0.22660  0.46260  Biso   1.000  C
  C138     1.0000 0.04350  0.36860  0.96540  Biso   1.000  C
  H96      1.0000 0.01710  0.32650  0.92770  Biso   1.000  H
  C139     1.0000 0.33340  0.11580  0.79990  Biso   1.000  C
  H97      1.0000 0.31940  0.07180  0.79750  Biso   1.000  H
  C140     1.0000 0.31690  0.36430  0.33230  Biso   1.000  C
  C141     1.0000 0.34810  0.42530  0.24930  Biso   1.000  C
  C142     1.0000 0.41760  0.91630  0.80180  Biso   1.000  C
  H98      1.0000 0.40220  0.95010  0.81880  Biso   1.000  H
  C143     1.0000 0.32370  0.32890  0.27690  Biso   1.000  C
  H99      1.0000 0.31730  0.28350  0.26610  Biso   1.000  H
  C144     1.0000 0.34220  0.46140  0.30620  Biso   1.000  C
  H100     1.0000 0.34880  0.50680  0.31680  Biso   1.000  H
  C145     1.0000 0.33120  0.16500  0.84910  Biso   1.000  C
  H101     1.0000 0.31100  0.15290  0.87610  Biso   1.000  H
  C146     1.0000 0.34130  0.71790  0.31780  Biso   1.000  C
  H102     1.0000 0.29730  0.71650  0.32030  Biso   1.000  H
  C147     1.0000 0.03500  0.78490  0.43940  Biso   1.000  C
  C148     1.0000 0.31370  0.28410  0.38620  Biso   1.000  C
  C149     1.0000 0.16130  0.83560  0.46920  Biso   1.000  C
  H103     1.0000 0.20110  0.83490  0.46030  Biso   1.000  H
  C150     1.0000 0.33940  0.35970  0.23920  Biso   1.000  C
  H104     1.0000 0.34510  0.33470  0.20290  Biso   1.000  H
  C151     1.0000 0.04200  0.83620  0.49160  Biso   1.000  C
  H105     1.0000 0.00100  0.83620  0.49880  Biso   1.000  H
  C152     1.0000 0.89760  0.72510  0.38170  Biso   1.000  C
  C153     1.0000 0.45490  0.82510  0.81210  Biso   1.000  C
  C154     1.0000 0.45340  0.86340  0.72450  Biso   1.000  C
  H106     1.0000 0.46410  0.86090  0.68810  Biso   1.000  H
  C155     1.0000 0.32760  0.43230  0.34420  Biso   1.000  C
  H107     1.0000 0.32400  0.45790  0.38170  Biso   1.000  H
  C156     1.0000 0.33780  0.66690  0.26650  Biso   1.000  C
  H108     1.0000 0.29130  0.63130  0.23430  Biso   1.000  H
  C157     1.0000 0.38180  0.19020  0.76740  Biso   1.000  C
  H109     1.0000 0.40220  0.20020  0.73980  Biso   1.000  H
  C158     1.0000 0.42890  0.87410  0.83410  Biso   1.000  C
  H110     1.0000 0.41950  0.87770  0.87130  Biso   1.000  H
  C159     1.0000 0.09460  0.78550  0.42850  Biso   1.000  C
  H111     1.0000 0.08810  0.74960  0.39120  Biso   1.000  H
  C160     1.0000 0.46350  0.82050  0.75360  Biso   1.000  C
  H112     1.0000 0.47700  0.78580  0.73490  Biso   1.000  H
  C161     1.0000 0.35830  0.90530  0.45390  Biso   1.000  C
  H113     1.0000 0.32160  0.92450  0.44340  Biso   1.000  H
  C162     1.0000 0.35540  0.85610  0.40110  Biso   1.000  C
  H114     1.0000 0.31930  0.84330  0.35420  Biso   1.000  H
  C163     1.0000 0.46740  0.90950  0.52950  Biso   1.000  C
  H115     1.0000 0.51240  0.93590  0.57210  Biso   1.000  H
  C164     1.0000 0.46900  0.85630  0.48410  Biso   1.000  C
  H116     1.0000 0.51040  0.84300  0.49790  Biso   1.000  H
  C165     1.0000 0.37190  0.80810  0.45870  Biso   1.000  C
  H117     1.0000 0.34650  0.76360  0.45010  Biso   1.000  H
  C166     1.0000 0.37580  0.86040  0.50700  Biso   1.000  C
  H118     1.0000 0.35260  0.85220  0.53310  Biso   1.000  H
  C167     1.0000 0.45430  0.88730  0.44530  Biso   1.000  C
  H119     1.0000 0.49170  0.89950  0.43340  Biso   1.000  H
  C168     1.0000 0.44550  0.93390  0.48880  Biso   1.000  C
  H120     1.0000 0.46810  0.97840  0.49560  Biso   1.000  H
