data_image0
_cell_length_a       17.1168
_cell_length_b       17.1168
_cell_length_c       17.1168
_cell_angle_alpha    90
_cell_angle_beta     90
_cell_angle_gamma    90

_symmetry_space_group_name_H-M    "P 1"
_symmetry_int_tables_number       1

loop_
  _symmetry_equiv_pos_as_xyz
  'x, y, z'

loop_
  _atom_site_label
  _atom_site_occupancy
  _atom_site_fract_x
  _atom_site_fract_y
  _atom_site_fract_z
  _atom_site_thermal_displace_type
  _atom_site_B_iso_or_equiv
  _atom_site_type_symbol
  N1       1.0000 0.01540  0.40710  0.31760  Biso   1.000  N
  N2       1.0000 0.08200  0.36530  0.31300  Biso   1.000  N
  H1       1.0000 0.88190  0.37010  0.44480  Biso   1.000  H
  H2       1.0000 0.89860  0.45490  0.41450  Biso   1.000  H
  H3       1.0000 0.86220  0.39250  0.35820  Biso   1.000  H
  N3       1.0000 0.51540  0.90710  0.81760  Biso   1.000  N
  N4       1.0000 0.58200  0.86530  0.81300  Biso   1.000  N
  H4       1.0000 0.38190  0.87010  0.94480  Biso   1.000  H
  H5       1.0000 0.39860  0.95490  0.91450  Biso   1.000  H
  H6       1.0000 0.36220  0.89250  0.85820  Biso   1.000  H
  N5       1.0000 0.98460  0.59290  0.31760  Biso   1.000  N
  N6       1.0000 0.91800  0.63470  0.31300  Biso   1.000  N
  H7       1.0000 0.11810  0.62990  0.44480  Biso   1.000  H
  H8       1.0000 0.10140  0.54510  0.41450  Biso   1.000  H
  H9       1.0000 0.13780  0.60750  0.35820  Biso   1.000  H
  N7       1.0000 0.48460  0.09290  0.81760  Biso   1.000  N
  N8       1.0000 0.41800  0.13470  0.81300  Biso   1.000  N
  H10      1.0000 0.61810  0.12990  0.94480  Biso   1.000  H
  H11      1.0000 0.60140  0.04510  0.91450  Biso   1.000  H
  H12      1.0000 0.63780  0.10750  0.85820  Biso   1.000  H
  N9       1.0000 0.98460  0.40710  0.68240  Biso   1.000  N
  N10      1.0000 0.91800  0.36530  0.68700  Biso   1.000  N
  H13      1.0000 0.11810  0.37010  0.55520  Biso   1.000  H
  H14      1.0000 0.10140  0.45490  0.58550  Biso   1.000  H
  H15      1.0000 0.13780  0.39250  0.64180  Biso   1.000  H
  N11      1.0000 0.48460  0.90710  0.18240  Biso   1.000  N
  N12      1.0000 0.41800  0.86530  0.18700  Biso   1.000  N
  H16      1.0000 0.61810  0.87010  0.05520  Biso   1.000  H
  H17      1.0000 0.60140  0.95490  0.08550  Biso   1.000  H
  H18      1.0000 0.63780  0.89250  0.14180  Biso   1.000  H
  N13      1.0000 0.01540  0.59290  0.68240  Biso   1.000  N
  N14      1.0000 0.08200  0.63470  0.68700  Biso   1.000  N
  H19      1.0000 0.88190  0.62990  0.55520  Biso   1.000  H
  H20      1.0000 0.89860  0.54510  0.58550  Biso   1.000  H
  H21      1.0000 0.86220  0.60750  0.64180  Biso   1.000  H
  N15      1.0000 0.51540  0.09290  0.18240  Biso   1.000  N
  N16      1.0000 0.58200  0.13470  0.18700  Biso   1.000  N
  H22      1.0000 0.38190  0.12990  0.05520  Biso   1.000  H
  H23      1.0000 0.39860  0.04510  0.08550  Biso   1.000  H
  H24      1.0000 0.36220  0.10750  0.14180  Biso   1.000  H
  N17      1.0000 0.31760  0.01540  0.40710  Biso   1.000  N
  N18      1.0000 0.31300  0.08200  0.36530  Biso   1.000  N
  H25      1.0000 0.44480  0.88190  0.37010  Biso   1.000  H
  H26      1.0000 0.41450  0.89860  0.45490  Biso   1.000  H
  H27      1.0000 0.35820  0.86220  0.39250  Biso   1.000  H
  N19      1.0000 0.81760  0.51540  0.90710  Biso   1.000  N
  N20      1.0000 0.81300  0.58200  0.86530  Biso   1.000  N
  H28      1.0000 0.94480  0.38190  0.87010  Biso   1.000  H
  H29      1.0000 0.91450  0.39860  0.95490  Biso   1.000  H
  H30      1.0000 0.85820  0.36220  0.89250  Biso   1.000  H
  N21      1.0000 0.31760  0.98460  0.59290  Biso   1.000  N
  N22      1.0000 0.31300  0.91800  0.63470  Biso   1.000  N
  H31      1.0000 0.44480  0.11810  0.62990  Biso   1.000  H
  H32      1.0000 0.41450  0.10140  0.54510  Biso   1.000  H
  H33      1.0000 0.35820  0.13780  0.60750  Biso   1.000  H
  N23      1.0000 0.81760  0.48460  0.09290  Biso   1.000  N
  N24      1.0000 0.81300  0.41800  0.13470  Biso   1.000  N
  H34      1.0000 0.94480  0.61810  0.12990  Biso   1.000  H
  H35      1.0000 0.91450  0.60140  0.04510  Biso   1.000  H
  H36      1.0000 0.85820  0.63780  0.10750  Biso   1.000  H
  N25      1.0000 0.68240  0.98460  0.40710  Biso   1.000  N
  N26      1.0000 0.68700  0.91800  0.36530  Biso   1.000  N
  H37      1.0000 0.55520  0.11810  0.37010  Biso   1.000  H
  H38      1.0000 0.58550  0.10140  0.45490  Biso   1.000  H
  H39      1.0000 0.64180  0.13780  0.39250  Biso   1.000  H
  N27      1.0000 0.18240  0.48460  0.90710  Biso   1.000  N
  N28      1.0000 0.18700  0.41800  0.86530  Biso   1.000  N
  H40      1.0000 0.05520  0.61810  0.87010  Biso   1.000  H
  H41      1.0000 0.08550  0.60140  0.95490  Biso   1.000  H
  H42      1.0000 0.14180  0.63780  0.89250  Biso   1.000  H
  N29      1.0000 0.68240  0.01540  0.59290  Biso   1.000  N
  N30      1.0000 0.68700  0.08200  0.63470  Biso   1.000  N
  H43      1.0000 0.55520  0.88190  0.62990  Biso   1.000  H
  H44      1.0000 0.58550  0.89860  0.54510  Biso   1.000  H
  H45      1.0000 0.64180  0.86220  0.60750  Biso   1.000  H
  N31      1.0000 0.18240  0.51540  0.09290  Biso   1.000  N
  N32      1.0000 0.18700  0.58200  0.13470  Biso   1.000  N
  H46      1.0000 0.05520  0.38190  0.12990  Biso   1.000  H
  H47      1.0000 0.08550  0.39860  0.04510  Biso   1.000  H
  H48      1.0000 0.14180  0.36220  0.10750  Biso   1.000  H
  N33      1.0000 0.40710  0.31760  0.01540  Biso   1.000  N
  N34      1.0000 0.36530  0.31300  0.08200  Biso   1.000  N
  H49      1.0000 0.37010  0.44480  0.88190  Biso   1.000  H
  H50      1.0000 0.45490  0.41450  0.89860  Biso   1.000  H
  H51      1.0000 0.39250  0.35820  0.86220  Biso   1.000  H
  N35      1.0000 0.90710  0.81760  0.51540  Biso   1.000  N
  N36      1.0000 0.86530  0.81300  0.58200  Biso   1.000  N
  H52      1.0000 0.87010  0.94480  0.38190  Biso   1.000  H
  H53      1.0000 0.95490  0.91450  0.39860  Biso   1.000  H
  H54      1.0000 0.89250  0.85820  0.36220  Biso   1.000  H
  N37      1.0000 0.59290  0.31760  0.98460  Biso   1.000  N
  N38      1.0000 0.63470  0.31300  0.91800  Biso   1.000  N
  H55      1.0000 0.62990  0.44480  0.11810  Biso   1.000  H
  H56      1.0000 0.54510  0.41450  0.10140  Biso   1.000  H
  H57      1.0000 0.60750  0.35820  0.13780  Biso   1.000  H
  N39      1.0000 0.09290  0.81760  0.48460  Biso   1.000  N
  N40      1.0000 0.13470  0.81300  0.41800  Biso   1.000  N
  H58      1.0000 0.12990  0.94480  0.61810  Biso   1.000  H
  H59      1.0000 0.04510  0.91450  0.60140  Biso   1.000  H
  H60      1.0000 0.10750  0.85820  0.63780  Biso   1.000  H
  N41      1.0000 0.40710  0.68240  0.98460  Biso   1.000  N
  N42      1.0000 0.36530  0.68700  0.91800  Biso   1.000  N
  H61      1.0000 0.37010  0.55520  0.11810  Biso   1.000  H
  H62      1.0000 0.45490  0.58550  0.10140  Biso   1.000  H
  H63      1.0000 0.39250  0.64180  0.13780  Biso   1.000  H
  N43      1.0000 0.90710  0.18240  0.48460  Biso   1.000  N
  N44      1.0000 0.86530  0.18700  0.41800  Biso   1.000  N
  H64      1.0000 0.87010  0.05520  0.61810  Biso   1.000  H
  H65      1.0000 0.95490  0.08550  0.60140  Biso   1.000  H
  H66      1.0000 0.89250  0.14180  0.63780  Biso   1.000  H
  N45      1.0000 0.59290  0.68240  0.01540  Biso   1.000  N
  N46      1.0000 0.63470  0.68700  0.08200  Biso   1.000  N
  H67      1.0000 0.62990  0.55520  0.88190  Biso   1.000  H
  H68      1.0000 0.54510  0.58550  0.89860  Biso   1.000  H
  H69      1.0000 0.60750  0.64180  0.86220  Biso   1.000  H
  N47      1.0000 0.09290  0.18240  0.51540  Biso   1.000  N
  N48      1.0000 0.13470  0.18700  0.58200  Biso   1.000  N
  H70      1.0000 0.12990  0.05520  0.38190  Biso   1.000  H
  H71      1.0000 0.04510  0.08550  0.39860  Biso   1.000  H
  H72      1.0000 0.10750  0.14180  0.36220  Biso   1.000  H
  N49      1.0000 0.40710  0.01540  0.31760  Biso   1.000  N
  N50      1.0000 0.36530  0.08200  0.31300  Biso   1.000  N
  H73      1.0000 0.37010  0.88190  0.44480  Biso   1.000  H
  H74      1.0000 0.45490  0.89860  0.41450  Biso   1.000  H
  H75      1.0000 0.39250  0.86220  0.35820  Biso   1.000  H
  N51      1.0000 0.90710  0.51540  0.81760  Biso   1.000  N
  N52      1.0000 0.86530  0.58200  0.81300  Biso   1.000  N
  H76      1.0000 0.87010  0.38190  0.94480  Biso   1.000  H
  H77      1.0000 0.95490  0.39860  0.91450  Biso   1.000  H
  H78      1.0000 0.89250  0.36220  0.85820  Biso   1.000  H
  N53      1.0000 0.59290  0.98460  0.31760  Biso   1.000  N
  N54      1.0000 0.63470  0.91800  0.31300  Biso   1.000  N
  H79      1.0000 0.62990  0.11810  0.44480  Biso   1.000  H
  H80      1.0000 0.54510  0.10140  0.41450  Biso   1.000  H
  H81      1.0000 0.60750  0.13780  0.35820  Biso   1.000  H
  N55      1.0000 0.09290  0.48460  0.81760  Biso   1.000  N
  N56      1.0000 0.13470  0.41800  0.81300  Biso   1.000  N
  H82      1.0000 0.12990  0.61810  0.94480  Biso   1.000  H
  H83      1.0000 0.04510  0.60140  0.91450  Biso   1.000  H
  H84      1.0000 0.10750  0.63780  0.85820  Biso   1.000  H
  N57      1.0000 0.40710  0.98460  0.68240  Biso   1.000  N
  N58      1.0000 0.36530  0.91800  0.68700  Biso   1.000  N
  H85      1.0000 0.37010  0.11810  0.55520  Biso   1.000  H
  H86      1.0000 0.45490  0.10140  0.58550  Biso   1.000  H
  H87      1.0000 0.39250  0.13780  0.64180  Biso   1.000  H
  N59      1.0000 0.90710  0.48460  0.18240  Biso   1.000  N
  N60      1.0000 0.86530  0.41800  0.18700  Biso   1.000  N
  H88      1.0000 0.87010  0.61810  0.05520  Biso   1.000  H
  H89      1.0000 0.95490  0.60140  0.08550  Biso   1.000  H
  H90      1.0000 0.89250  0.63780  0.14180  Biso   1.000  H
  N61      1.0000 0.59290  0.01540  0.68240  Biso   1.000  N
  N62      1.0000 0.63470  0.08200  0.68700  Biso   1.000  N
  H91      1.0000 0.62990  0.88190  0.55520  Biso   1.000  H
  H92      1.0000 0.54510  0.89860  0.58550  Biso   1.000  H
  H93      1.0000 0.60750  0.86220  0.64180  Biso   1.000  H
  N63      1.0000 0.09290  0.51540  0.18240  Biso   1.000  N
  N64      1.0000 0.13470  0.58200  0.18700  Biso   1.000  N
  H94      1.0000 0.12990  0.38190  0.05520  Biso   1.000  H
  H95      1.0000 0.04510  0.39860  0.08550  Biso   1.000  H
  H96      1.0000 0.10750  0.36220  0.14180  Biso   1.000  H
  N65      1.0000 0.01540  0.31760  0.40710  Biso   1.000  N
  N66      1.0000 0.08200  0.31300  0.36530  Biso   1.000  N
  H97      1.0000 0.88190  0.44480  0.37010  Biso   1.000  H
  H98      1.0000 0.89860  0.41450  0.45490  Biso   1.000  H
  H99      1.0000 0.86220  0.35820  0.39250  Biso   1.000  H
  N67      1.0000 0.51540  0.81760  0.90710  Biso   1.000  N
  N68      1.0000 0.58200  0.81300  0.86530  Biso   1.000  N
  H100     1.0000 0.38190  0.94480  0.87010  Biso   1.000  H
  H101     1.0000 0.39860  0.91450  0.95490  Biso   1.000  H
  H102     1.0000 0.36220  0.85820  0.89250  Biso   1.000  H
  N69      1.0000 0.98460  0.31760  0.59290  Biso   1.000  N
  N70      1.0000 0.91800  0.31300  0.63470  Biso   1.000  N
  H103     1.0000 0.11810  0.44480  0.62990  Biso   1.000  H
  H104     1.0000 0.10140  0.41450  0.54510  Biso   1.000  H
  H105     1.0000 0.13780  0.35820  0.60750  Biso   1.000  H
  N71      1.0000 0.48460  0.81760  0.09290  Biso   1.000  N
  N72      1.0000 0.41800  0.81300  0.13470  Biso   1.000  N
  H106     1.0000 0.61810  0.94480  0.12990  Biso   1.000  H
  H107     1.0000 0.60140  0.91450  0.04510  Biso   1.000  H
  H108     1.0000 0.63780  0.85820  0.10750  Biso   1.000  H
  N73      1.0000 0.98460  0.68240  0.40710  Biso   1.000  N
  N74      1.0000 0.91800  0.68700  0.36530  Biso   1.000  N
  H109     1.0000 0.11810  0.55520  0.37010  Biso   1.000  H
  H110     1.0000 0.10140  0.58550  0.45490  Biso   1.000  H
  H111     1.0000 0.13780  0.64180  0.39250  Biso   1.000  H
  N75      1.0000 0.48460  0.18240  0.90710  Biso   1.000  N
  N76      1.0000 0.41800  0.18700  0.86530  Biso   1.000  N
  H112     1.0000 0.61810  0.05520  0.87010  Biso   1.000  H
  H113     1.0000 0.60140  0.08550  0.95490  Biso   1.000  H
  H114     1.0000 0.63780  0.14180  0.89250  Biso   1.000  H
  N77      1.0000 0.01540  0.68240  0.59290  Biso   1.000  N
  N78      1.0000 0.08200  0.68700  0.63470  Biso   1.000  N
  H115     1.0000 0.88190  0.55520  0.62990  Biso   1.000  H
  H116     1.0000 0.89860  0.58550  0.54510  Biso   1.000  H
  H117     1.0000 0.86220  0.64180  0.60750  Biso   1.000  H
  N79      1.0000 0.51540  0.18240  0.09290  Biso   1.000  N
  N80      1.0000 0.58200  0.18700  0.13470  Biso   1.000  N
  H118     1.0000 0.38190  0.05520  0.12990  Biso   1.000  H
  H119     1.0000 0.39860  0.08550  0.04510  Biso   1.000  H
  H120     1.0000 0.36220  0.14180  0.10750  Biso   1.000  H
  N81      1.0000 0.31760  0.40710  0.01540  Biso   1.000  N
  N82      1.0000 0.31300  0.36530  0.08200  Biso   1.000  N
  H121     1.0000 0.44480  0.37010  0.88190  Biso   1.000  H
  H122     1.0000 0.41450  0.45490  0.89860  Biso   1.000  H
  H123     1.0000 0.35820  0.39250  0.86220  Biso   1.000  H
  N83      1.0000 0.81760  0.90710  0.51540  Biso   1.000  N
  N84      1.0000 0.81300  0.86530  0.58200  Biso   1.000  N
  H124     1.0000 0.94480  0.87010  0.38190  Biso   1.000  H
  H125     1.0000 0.91450  0.95490  0.39860  Biso   1.000  H
  H126     1.0000 0.85820  0.89250  0.36220  Biso   1.000  H
  N85      1.0000 0.31760  0.59290  0.98460  Biso   1.000  N
  N86      1.0000 0.31300  0.63470  0.91800  Biso   1.000  N
  H127     1.0000 0.44480  0.62990  0.11810  Biso   1.000  H
  H128     1.0000 0.41450  0.54510  0.10140  Biso   1.000  H
  H129     1.0000 0.35820  0.60750  0.13780  Biso   1.000  H
  N87      1.0000 0.81760  0.09290  0.48460  Biso   1.000  N
  N88      1.0000 0.81300  0.13470  0.41800  Biso   1.000  N
  H130     1.0000 0.94480  0.12990  0.61810  Biso   1.000  H
  H131     1.0000 0.91450  0.04510  0.60140  Biso   1.000  H
  H132     1.0000 0.85820  0.10750  0.63780  Biso   1.000  H
  N89      1.0000 0.68240  0.40710  0.98460  Biso   1.000  N
  N90      1.0000 0.68700  0.36530  0.91800  Biso   1.000  N
  H133     1.0000 0.55520  0.37010  0.11810  Biso   1.000  H
  H134     1.0000 0.58550  0.45490  0.10140  Biso   1.000  H
  H135     1.0000 0.64180  0.39250  0.13780  Biso   1.000  H
  N91      1.0000 0.18240  0.90710  0.48460  Biso   1.000  N
  N92      1.0000 0.18700  0.86530  0.41800  Biso   1.000  N
  H136     1.0000 0.05520  0.87010  0.61810  Biso   1.000  H
  H137     1.0000 0.08550  0.95490  0.60140  Biso   1.000  H
  H138     1.0000 0.14180  0.89250  0.63780  Biso   1.000  H
  N93      1.0000 0.68240  0.59290  0.01540  Biso   1.000  N
  N94      1.0000 0.68700  0.63470  0.08200  Biso   1.000  N
  H139     1.0000 0.55520  0.62990  0.88190  Biso   1.000  H
  H140     1.0000 0.58550  0.54510  0.89860  Biso   1.000  H
  H141     1.0000 0.64180  0.60750  0.86220  Biso   1.000  H
  N95      1.0000 0.18240  0.09290  0.51540  Biso   1.000  N
  N96      1.0000 0.18700  0.13470  0.58200  Biso   1.000  N
  H142     1.0000 0.05520  0.12990  0.38190  Biso   1.000  H
  H143     1.0000 0.08550  0.04510  0.39860  Biso   1.000  H
  H144     1.0000 0.14180  0.10750  0.36220  Biso   1.000  H
  Zn1      1.0000 0.00000  0.50000  0.25000  Biso   1.000  Zn
  Zn2      1.0000 0.00000  0.50000  0.75000  Biso   1.000  Zn
  Zn3      1.0000 0.25000  0.00000  0.50000  Biso   1.000  Zn
  Zn4      1.0000 0.75000  0.00000  0.50000  Biso   1.000  Zn
  Zn5      1.0000 0.50000  0.25000  0.00000  Biso   1.000  Zn
  Zn6      1.0000 0.50000  0.75000  0.00000  Biso   1.000  Zn
  Zn7      1.0000 0.50000  0.00000  0.25000  Biso   1.000  Zn
  Zn8      1.0000 0.50000  0.00000  0.75000  Biso   1.000  Zn
  Zn9      1.0000 0.00000  0.25000  0.50000  Biso   1.000  Zn
  Zn10     1.0000 0.00000  0.75000  0.50000  Biso   1.000  Zn
  Zn11     1.0000 0.25000  0.50000  0.00000  Biso   1.000  Zn
  Zn12     1.0000 0.75000  0.50000  0.00000  Biso   1.000  Zn
  C1       1.0000 0.97850  0.37590  0.37590  Biso   1.000  C
  C2       1.0000 0.89810  0.40060  0.40060  Biso   1.000  C
  C3       1.0000 0.47850  0.87590  0.87590  Biso   1.000  C
  C4       1.0000 0.39810  0.90060  0.90060  Biso   1.000  C
  C5       1.0000 0.02150  0.62410  0.37590  Biso   1.000  C
  C6       1.0000 0.10190  0.59940  0.40060  Biso   1.000  C
  C7       1.0000 0.52150  0.12410  0.87590  Biso   1.000  C
  C8       1.0000 0.60190  0.09940  0.90060  Biso   1.000  C
  C9       1.0000 0.02150  0.37590  0.62410  Biso   1.000  C
  C10      1.0000 0.10190  0.40060  0.59940  Biso   1.000  C
  C11      1.0000 0.52150  0.87590  0.12410  Biso   1.000  C
  C12      1.0000 0.60190  0.90060  0.09940  Biso   1.000  C
  C13      1.0000 0.97850  0.62410  0.62410  Biso   1.000  C
  C14      1.0000 0.89810  0.59940  0.59940  Biso   1.000  C
  C15      1.0000 0.47850  0.12410  0.12410  Biso   1.000  C
  C16      1.0000 0.39810  0.09940  0.09940  Biso   1.000  C
  C17      1.0000 0.37590  0.97850  0.37590  Biso   1.000  C
  C18      1.0000 0.40060  0.89810  0.40060  Biso   1.000  C
  C19      1.0000 0.87590  0.47850  0.87590  Biso   1.000  C
  C20      1.0000 0.90060  0.39810  0.90060  Biso   1.000  C
  C21      1.0000 0.37590  0.02150  0.62410  Biso   1.000  C
  C22      1.0000 0.40060  0.10190  0.59940  Biso   1.000  C
  C23      1.0000 0.87590  0.52150  0.12410  Biso   1.000  C
  C24      1.0000 0.90060  0.60190  0.09940  Biso   1.000  C
  C25      1.0000 0.62410  0.02150  0.37590  Biso   1.000  C
  C26      1.0000 0.59940  0.10190  0.40060  Biso   1.000  C
  C27      1.0000 0.12410  0.52150  0.87590  Biso   1.000  C
  C28      1.0000 0.09940  0.60190  0.90060  Biso   1.000  C
  C29      1.0000 0.62410  0.97850  0.62410  Biso   1.000  C
  C30      1.0000 0.59940  0.89810  0.59940  Biso   1.000  C
  C31      1.0000 0.12410  0.47850  0.12410  Biso   1.000  C
  C32      1.0000 0.09940  0.39810  0.09940  Biso   1.000  C
  C33      1.0000 0.37590  0.37590  0.97850  Biso   1.000  C
  C34      1.0000 0.40060  0.40060  0.89810  Biso   1.000  C
  C35      1.0000 0.87590  0.87590  0.47850  Biso   1.000  C
  C36      1.0000 0.90060  0.90060  0.39810  Biso   1.000  C
  C37      1.0000 0.62410  0.37590  0.02150  Biso   1.000  C
  C38      1.0000 0.59940  0.40060  0.10190  Biso   1.000  C
  C39      1.0000 0.12410  0.87590  0.52150  Biso   1.000  C
  C40      1.0000 0.09940  0.90060  0.60190  Biso   1.000  C
  C41      1.0000 0.37590  0.62410  0.02150  Biso   1.000  C
  C42      1.0000 0.40060  0.59940  0.10190  Biso   1.000  C
  C43      1.0000 0.87590  0.12410  0.52150  Biso   1.000  C
  C44      1.0000 0.90060  0.09940  0.60190  Biso   1.000  C
  C45      1.0000 0.62410  0.62410  0.97850  Biso   1.000  C
  C46      1.0000 0.59940  0.59940  0.89810  Biso   1.000  C
  C47      1.0000 0.12410  0.12410  0.47850  Biso   1.000  C
  C48      1.0000 0.09940  0.09940  0.39810  Biso   1.000  C
