data_image0
_cell_length_a       10.267
_cell_length_b       32.086
_cell_length_c       6.955
_cell_angle_alpha    90
_cell_angle_beta     90
_cell_angle_gamma    90

_symmetry_space_group_name_H-M    "P 1"
_symmetry_int_tables_number       1

loop_
  _symmetry_equiv_pos_as_xyz
  'x, y, z'

loop_
  _atom_site_label
  _atom_site_occupancy
  _atom_site_fract_x
  _atom_site_fract_y
  _atom_site_fract_z
  _atom_site_thermal_displace_type
  _atom_site_B_iso_or_equiv
  _atom_site_type_symbol
  C1       1.0000 0.06830  0.23030  0.11130  Biso   1.000  C
  H1       1.0000 0.11650  0.24500  0.01470  Biso   1.000  H
  C2       1.0000 0.06640  0.18639  0.11130  Biso   1.000  C
  H2       1.0000 0.11270  0.17130  0.01360  Biso   1.000  H
  C3       1.0000 0.56830  0.73030  0.11130  Biso   1.000  C
  H3       1.0000 0.61650  0.74500  0.01470  Biso   1.000  H
  C4       1.0000 0.56640  0.68639  0.11130  Biso   1.000  C
  H4       1.0000 0.61270  0.67130  0.01360  Biso   1.000  H
  C5       1.0000 0.93170  0.76970  0.61130  Biso   1.000  C
  H5       1.0000 0.88350  0.75500  0.51470  Biso   1.000  H
  C6       1.0000 0.93360  0.81361  0.61130  Biso   1.000  C
  H6       1.0000 0.88730  0.82870  0.51360  Biso   1.000  H
  C7       1.0000 0.43170  0.26970  0.61130  Biso   1.000  C
  H7       1.0000 0.38350  0.25500  0.51470  Biso   1.000  H
  C8       1.0000 0.43360  0.31361  0.61130  Biso   1.000  C
  H8       1.0000 0.38730  0.32870  0.51360  Biso   1.000  H
  C9       1.0000 0.93170  0.23030  0.38870  Biso   1.000  C
  H9       1.0000 0.88350  0.24500  0.48530  Biso   1.000  H
  C10      1.0000 0.93360  0.18639  0.38870  Biso   1.000  C
  H10      1.0000 0.88730  0.17130  0.48640  Biso   1.000  H
  C11      1.0000 0.43170  0.73030  0.38870  Biso   1.000  C
  H11      1.0000 0.38350  0.74500  0.48530  Biso   1.000  H
  C12      1.0000 0.43360  0.68639  0.38870  Biso   1.000  C
  H12      1.0000 0.38730  0.67130  0.48640  Biso   1.000  H
  C13      1.0000 0.06830  0.76970  0.88870  Biso   1.000  C
  H13      1.0000 0.11650  0.75500  0.98530  Biso   1.000  H
  C14      1.0000 0.06640  0.81361  0.88870  Biso   1.000  C
  H14      1.0000 0.11270  0.82870  0.98640  Biso   1.000  H
  C15      1.0000 0.56830  0.26970  0.88870  Biso   1.000  C
  H15      1.0000 0.61650  0.25500  0.98530  Biso   1.000  H
  C16      1.0000 0.56640  0.31361  0.88870  Biso   1.000  C
  H16      1.0000 0.61270  0.32870  0.98640  Biso   1.000  H
  C17      1.0000 0.93170  0.76970  0.88870  Biso   1.000  C
  H17      1.0000 0.88350  0.75500  0.98530  Biso   1.000  H
  C18      1.0000 0.93360  0.81361  0.88870  Biso   1.000  C
  H18      1.0000 0.88730  0.82870  0.98640  Biso   1.000  H
  C19      1.0000 0.43170  0.26970  0.88870  Biso   1.000  C
  H19      1.0000 0.38350  0.25500  0.98530  Biso   1.000  H
  C20      1.0000 0.43360  0.31361  0.88870  Biso   1.000  C
  H20      1.0000 0.38730  0.32870  0.98640  Biso   1.000  H
  C21      1.0000 0.06830  0.23030  0.38870  Biso   1.000  C
  H21      1.0000 0.11650  0.24500  0.48530  Biso   1.000  H
  C22      1.0000 0.06640  0.18639  0.38870  Biso   1.000  C
  H22      1.0000 0.11270  0.17130  0.48640  Biso   1.000  H
  C23      1.0000 0.56830  0.73030  0.38870  Biso   1.000  C
  H23      1.0000 0.61650  0.74500  0.48530  Biso   1.000  H
  C24      1.0000 0.56640  0.68639  0.38870  Biso   1.000  C
  H24      1.0000 0.61270  0.67130  0.48640  Biso   1.000  H
  C25      1.0000 0.06830  0.76970  0.61130  Biso   1.000  C
  H25      1.0000 0.11650  0.75500  0.51470  Biso   1.000  H
  C26      1.0000 0.06640  0.81361  0.61130  Biso   1.000  C
  H26      1.0000 0.11270  0.82870  0.51360  Biso   1.000  H
  C27      1.0000 0.56830  0.26970  0.61130  Biso   1.000  C
  H27      1.0000 0.61650  0.25500  0.51470  Biso   1.000  H
  C28      1.0000 0.56640  0.31361  0.61130  Biso   1.000  C
  H28      1.0000 0.61270  0.32870  0.51360  Biso   1.000  H
  C29      1.0000 0.93170  0.23030  0.11130  Biso   1.000  C
  H29      1.0000 0.88350  0.24500  0.01470  Biso   1.000  H
  C30      1.0000 0.93360  0.18639  0.11130  Biso   1.000  C
  H30      1.0000 0.88730  0.17130  0.01360  Biso   1.000  H
  C31      1.0000 0.43170  0.73030  0.11130  Biso   1.000  C
  H31      1.0000 0.38350  0.74500  0.01470  Biso   1.000  H
  C32      1.0000 0.43360  0.68639  0.11130  Biso   1.000  C
  H32      1.0000 0.38730  0.67130  0.01360  Biso   1.000  H
  Zn1      1.0000 0.50000  0.50000  0.50000  Biso   1.000  Zn
  Zn2      1.0000 0.00000  0.00000  0.50000  Biso   1.000  Zn
  Zn3      1.0000 0.50000  0.50000  0.00000  Biso   1.000  Zn
  Zn4      1.0000 0.00000  0.00000  0.00000  Biso   1.000  Zn
  Zn5      1.0000 0.50000  0.40393  0.25000  Biso   1.000  Zn
  Zn6      1.0000 0.00000  0.90393  0.25000  Biso   1.000  Zn
  Zn7      1.0000 0.50000  0.59607  0.75000  Biso   1.000  Zn
  Zn8      1.0000 0.00000  0.09607  0.75000  Biso   1.000  Zn
  O1       1.0000 0.23530  0.42730  0.25000  Biso   1.000  O
  O2       1.0000 0.45470  0.46568  0.25000  Biso   1.000  O
  O3       1.0000 0.33960  0.36950  0.25000  Biso   1.000  O
  C33      1.0000 0.23600  0.38850  0.25000  Biso   1.000  C
  C34      1.0000 0.11440  0.36461  0.25000  Biso   1.000  C
  C35      1.0000 0.11600  0.32058  0.25000  Biso   1.000  C
  H33      1.0000 0.19490  0.30640  0.25000  Biso   1.000  H
  O4       1.0000 0.73530  0.92730  0.25000  Biso   1.000  O
  O5       1.0000 0.95470  0.96568  0.25000  Biso   1.000  O
  O6       1.0000 0.83960  0.86950  0.25000  Biso   1.000  O
  C36      1.0000 0.73600  0.88850  0.25000  Biso   1.000  C
  C37      1.0000 0.61440  0.86461  0.25000  Biso   1.000  C
  C38      1.0000 0.61600  0.82058  0.25000  Biso   1.000  C
  H34      1.0000 0.69490  0.80640  0.25000  Biso   1.000  H
  O7       1.0000 0.76470  0.57270  0.75000  Biso   1.000  O
  O8       1.0000 0.54530  0.53432  0.75000  Biso   1.000  O
  O9       1.0000 0.66040  0.63050  0.75000  Biso   1.000  O
  C39      1.0000 0.76400  0.61150  0.75000  Biso   1.000  C
  C40      1.0000 0.88560  0.63539  0.75000  Biso   1.000  C
  C41      1.0000 0.88400  0.67942  0.75000  Biso   1.000  C
  H35      1.0000 0.80510  0.69360  0.75000  Biso   1.000  H
  O10      1.0000 0.26470  0.07270  0.75000  Biso   1.000  O
  O11      1.0000 0.04530  0.03432  0.75000  Biso   1.000  O
  O12      1.0000 0.16040  0.13050  0.75000  Biso   1.000  O
  C42      1.0000 0.26400  0.11150  0.75000  Biso   1.000  C
  C43      1.0000 0.38560  0.13539  0.75000  Biso   1.000  C
  C44      1.0000 0.38400  0.17942  0.75000  Biso   1.000  C
  H36      1.0000 0.30510  0.19360  0.75000  Biso   1.000  H
  O13      1.0000 0.76470  0.42730  0.25000  Biso   1.000  O
  O14      1.0000 0.54530  0.46568  0.25000  Biso   1.000  O
  O15      1.0000 0.66040  0.36950  0.25000  Biso   1.000  O
  C45      1.0000 0.76400  0.38850  0.25000  Biso   1.000  C
  C46      1.0000 0.88560  0.36461  0.25000  Biso   1.000  C
  C47      1.0000 0.88400  0.32058  0.25000  Biso   1.000  C
  H37      1.0000 0.80510  0.30640  0.25000  Biso   1.000  H
  O16      1.0000 0.26470  0.92730  0.25000  Biso   1.000  O
  O17      1.0000 0.04530  0.96568  0.25000  Biso   1.000  O
  O18      1.0000 0.16040  0.86950  0.25000  Biso   1.000  O
  C48      1.0000 0.26400  0.88850  0.25000  Biso   1.000  C
  C49      1.0000 0.38560  0.86461  0.25000  Biso   1.000  C
  C50      1.0000 0.38400  0.82058  0.25000  Biso   1.000  C
  H38      1.0000 0.30510  0.80640  0.25000  Biso   1.000  H
  O19      1.0000 0.23530  0.57270  0.75000  Biso   1.000  O
  O20      1.0000 0.45470  0.53432  0.75000  Biso   1.000  O
  O21      1.0000 0.33960  0.63050  0.75000  Biso   1.000  O
  C51      1.0000 0.23600  0.61150  0.75000  Biso   1.000  C
  C52      1.0000 0.11440  0.63539  0.75000  Biso   1.000  C
  C53      1.0000 0.11600  0.67942  0.75000  Biso   1.000  C
  H39      1.0000 0.19490  0.69360  0.75000  Biso   1.000  H
  O22      1.0000 0.73530  0.07270  0.75000  Biso   1.000  O
  O23      1.0000 0.95470  0.03432  0.75000  Biso   1.000  O
  O24      1.0000 0.83960  0.13050  0.75000  Biso   1.000  O
  C54      1.0000 0.73600  0.11150  0.75000  Biso   1.000  C
  C55      1.0000 0.61440  0.13539  0.75000  Biso   1.000  C
  C56      1.0000 0.61600  0.17942  0.75000  Biso   1.000  C
  H40      1.0000 0.69490  0.19360  0.75000  Biso   1.000  H
  N1       1.0000 0.00000  0.05633  0.34300  Biso   1.000  N
  N2       1.0000 0.00000  0.09541  0.40720  Biso   1.000  N
  N3       1.0000 0.50000  0.55633  0.34300  Biso   1.000  N
  N4       1.0000 0.50000  0.59541  0.40720  Biso   1.000  N
  N5       1.0000 0.00000  0.94367  0.84300  Biso   1.000  N
  N6       1.0000 0.00000  0.90459  0.90720  Biso   1.000  N
  N7       1.0000 0.50000  0.44367  0.84300  Biso   1.000  N
  N8       1.0000 0.50000  0.40459  0.90720  Biso   1.000  N
  N9       1.0000 0.00000  0.05633  0.15700  Biso   1.000  N
  N10      1.0000 0.00000  0.09541  0.09280  Biso   1.000  N
  N11      1.0000 0.50000  0.55633  0.15700  Biso   1.000  N
  N12      1.0000 0.50000  0.59541  0.09280  Biso   1.000  N
  N13      1.0000 0.00000  0.94367  0.65700  Biso   1.000  N
  N14      1.0000 0.00000  0.90459  0.59280  Biso   1.000  N
  N15      1.0000 0.50000  0.44367  0.65700  Biso   1.000  N
  N16      1.0000 0.50000  0.40459  0.59280  Biso   1.000  N
  C57      1.0000 0.00000  0.38550  0.25000  Biso   1.000  C
  H41      1.0000 0.00000  0.41450  0.25000  Biso   1.000  H
  C58      1.0000 0.00000  0.29864  0.25000  Biso   1.000  C
  C59      1.0000 0.00000  0.25196  0.25000  Biso   1.000  C
  C60      1.0000 0.00000  0.16507  0.25000  Biso   1.000  C
  C61      1.0000 0.00000  0.11868  0.25000  Biso   1.000  C
  C62      1.0000 0.50000  0.88550  0.25000  Biso   1.000  C
  H42      1.0000 0.50000  0.91450  0.25000  Biso   1.000  H
  C63      1.0000 0.50000  0.79864  0.25000  Biso   1.000  C
  C64      1.0000 0.50000  0.75196  0.25000  Biso   1.000  C
  C65      1.0000 0.50000  0.66507  0.25000  Biso   1.000  C
  C66      1.0000 0.50000  0.61868  0.25000  Biso   1.000  C
  C67      1.0000 0.00000  0.61450  0.75000  Biso   1.000  C
  H43      1.0000 0.00000  0.58550  0.75000  Biso   1.000  H
  C68      1.0000 0.00000  0.70136  0.75000  Biso   1.000  C
  C69      1.0000 0.00000  0.74804  0.75000  Biso   1.000  C
  C70      1.0000 0.00000  0.83493  0.75000  Biso   1.000  C
  C71      1.0000 0.00000  0.88132  0.75000  Biso   1.000  C
  C72      1.0000 0.50000  0.11450  0.75000  Biso   1.000  C
  H44      1.0000 0.50000  0.08550  0.75000  Biso   1.000  H
  C73      1.0000 0.50000  0.20136  0.75000  Biso   1.000  C
  C74      1.0000 0.50000  0.24804  0.75000  Biso   1.000  C
  C75      1.0000 0.50000  0.33493  0.75000  Biso   1.000  C
  C76      1.0000 0.50000  0.38132  0.75000  Biso   1.000  C
