data_image0
_cell_length_a       9.9523
_cell_length_b       9.9523
_cell_length_c       36.798
_cell_angle_alpha    90
_cell_angle_beta     90
_cell_angle_gamma    90

_symmetry_space_group_name_H-M    "P 1"
_symmetry_int_tables_number       1

loop_
  _symmetry_equiv_pos_as_xyz
  'x, y, z'

loop_
  _atom_site_label
  _atom_site_occupancy
  _atom_site_fract_x
  _atom_site_fract_y
  _atom_site_fract_z
  _atom_site_thermal_displace_type
  _atom_site_B_iso_or_equiv
  _atom_site_type_symbol
  C1       1.0000 0.06670  0.37850  0.01860  Biso   1.000  C
  C2       1.0000 0.08630  0.26410  0.03890  Biso   1.000  C
  H1       1.0000 0.07680  0.26190  0.06410  Biso   1.000  H
  C3       1.0000 0.12000  0.15600  0.01910  Biso   1.000  C
  H2       1.0000 0.14520  0.07730  0.03110  Biso   1.000  H
  C4       1.0000 0.93330  0.62150  0.01860  Biso   1.000  C
  C5       1.0000 0.91370  0.73590  0.03890  Biso   1.000  C
  H3       1.0000 0.92320  0.73810  0.06410  Biso   1.000  H
  C6       1.0000 0.88000  0.84400  0.01910  Biso   1.000  C
  H4       1.0000 0.85480  0.92270  0.03110  Biso   1.000  H
  C7       1.0000 0.62150  0.06670  0.51860  Biso   1.000  C
  C8       1.0000 0.73590  0.08630  0.53890  Biso   1.000  C
  H5       1.0000 0.73810  0.07680  0.56410  Biso   1.000  H
  C9       1.0000 0.84400  0.12000  0.51910  Biso   1.000  C
  H6       1.0000 0.92270  0.14520  0.53110  Biso   1.000  H
  C10      1.0000 0.37850  0.93330  0.51860  Biso   1.000  C
  C11      1.0000 0.26410  0.91370  0.53890  Biso   1.000  C
  H7       1.0000 0.26190  0.92320  0.56410  Biso   1.000  H
  C12      1.0000 0.15600  0.88000  0.51910  Biso   1.000  C
  H8       1.0000 0.07730  0.85480  0.53110  Biso   1.000  H
  C13      1.0000 0.93330  0.37850  0.98140  Biso   1.000  C
  C14      1.0000 0.91370  0.26410  0.96110  Biso   1.000  C
  H9       1.0000 0.92320  0.26190  0.93590  Biso   1.000  H
  C15      1.0000 0.88000  0.15600  0.98090  Biso   1.000  C
  H10      1.0000 0.85480  0.07730  0.96890  Biso   1.000  H
  C16      1.0000 0.06670  0.62150  0.98140  Biso   1.000  C
  C17      1.0000 0.08630  0.73590  0.96110  Biso   1.000  C
  H11      1.0000 0.07680  0.73810  0.93590  Biso   1.000  H
  C18      1.0000 0.12000  0.84400  0.98090  Biso   1.000  C
  H12      1.0000 0.14520  0.92270  0.96890  Biso   1.000  H
  C19      1.0000 0.37850  0.06670  0.48140  Biso   1.000  C
  C20      1.0000 0.26410  0.08630  0.46110  Biso   1.000  C
  H13      1.0000 0.26190  0.07680  0.43590  Biso   1.000  H
  C21      1.0000 0.15600  0.12000  0.48090  Biso   1.000  C
  H14      1.0000 0.07730  0.14520  0.46890  Biso   1.000  H
  C22      1.0000 0.62150  0.93330  0.48140  Biso   1.000  C
  C23      1.0000 0.73590  0.91370  0.46110  Biso   1.000  C
  H15      1.0000 0.73810  0.92320  0.43590  Biso   1.000  H
  C24      1.0000 0.84400  0.88000  0.48090  Biso   1.000  C
  H16      1.0000 0.92270  0.85480  0.46890  Biso   1.000  H
  C25      1.0000 0.93330  0.62150  0.98140  Biso   1.000  C
  C26      1.0000 0.91370  0.73590  0.96110  Biso   1.000  C
  H17      1.0000 0.92320  0.73810  0.93590  Biso   1.000  H
  C27      1.0000 0.88000  0.84400  0.98090  Biso   1.000  C
  H18      1.0000 0.85480  0.92270  0.96890  Biso   1.000  H
  C28      1.0000 0.06670  0.37850  0.98140  Biso   1.000  C
  C29      1.0000 0.08630  0.26410  0.96110  Biso   1.000  C
  H19      1.0000 0.07680  0.26190  0.93590  Biso   1.000  H
  C30      1.0000 0.12000  0.15600  0.98090  Biso   1.000  C
  H20      1.0000 0.14520  0.07730  0.96890  Biso   1.000  H
  C31      1.0000 0.37850  0.93330  0.48140  Biso   1.000  C
  C32      1.0000 0.26410  0.91370  0.46110  Biso   1.000  C
  H21      1.0000 0.26190  0.92320  0.43590  Biso   1.000  H
  C33      1.0000 0.15600  0.88000  0.48090  Biso   1.000  C
  H22      1.0000 0.07730  0.85480  0.46890  Biso   1.000  H
  C34      1.0000 0.62150  0.06670  0.48140  Biso   1.000  C
  C35      1.0000 0.73590  0.08630  0.46110  Biso   1.000  C
  H23      1.0000 0.73810  0.07680  0.43590  Biso   1.000  H
  C36      1.0000 0.84400  0.12000  0.48090  Biso   1.000  C
  H24      1.0000 0.92270  0.14520  0.46890  Biso   1.000  H
  C37      1.0000 0.06670  0.62150  0.01860  Biso   1.000  C
  C38      1.0000 0.08630  0.73590  0.03890  Biso   1.000  C
  H25      1.0000 0.07680  0.73810  0.06410  Biso   1.000  H
  C39      1.0000 0.12000  0.84400  0.01910  Biso   1.000  C
  H26      1.0000 0.14520  0.92270  0.03110  Biso   1.000  H
  C40      1.0000 0.93330  0.37850  0.01860  Biso   1.000  C
  C41      1.0000 0.91370  0.26410  0.03890  Biso   1.000  C
  H27      1.0000 0.92320  0.26190  0.06410  Biso   1.000  H
  C42      1.0000 0.88000  0.15600  0.01910  Biso   1.000  C
  H28      1.0000 0.85480  0.07730  0.03110  Biso   1.000  H
  C43      1.0000 0.62150  0.93330  0.51860  Biso   1.000  C
  C44      1.0000 0.73590  0.91370  0.53890  Biso   1.000  C
  H29      1.0000 0.73810  0.92320  0.56410  Biso   1.000  H
  C45      1.0000 0.84400  0.88000  0.51910  Biso   1.000  C
  H30      1.0000 0.92270  0.85480  0.53110  Biso   1.000  H
  C46      1.0000 0.37850  0.06670  0.51860  Biso   1.000  C
  C47      1.0000 0.26410  0.08630  0.53890  Biso   1.000  C
  H31      1.0000 0.26190  0.07680  0.56410  Biso   1.000  H
  C48      1.0000 0.15600  0.12000  0.51910  Biso   1.000  C
  H32      1.0000 0.07730  0.14520  0.53110  Biso   1.000  H
  In1      1.0000 0.00000  0.00000  0.25000  Biso   1.000  In
  In2      1.0000 0.00000  0.00000  0.75000  Biso   1.000  In
  O1       1.0000 0.00000  0.14310  0.20526  Biso   1.000  O
  O2       1.0000 0.00000  0.24440  0.25683  Biso   1.000  O
  C49      1.0000 0.00000  0.24570  0.22408  Biso   1.000  C
  C50      1.0000 0.00000  0.38170  0.20457  Biso   1.000  C
  C51      1.0000 0.00000  0.38260  0.16726  Biso   1.000  C
  H33      1.0000 0.00000  0.30170  0.15460  Biso   1.000  H
  O3       1.0000 0.00000  0.85690  0.20526  Biso   1.000  O
  O4       1.0000 0.00000  0.75560  0.25683  Biso   1.000  O
  C52      1.0000 0.00000  0.75430  0.22408  Biso   1.000  C
  C53      1.0000 0.00000  0.61830  0.20457  Biso   1.000  C
  C54      1.0000 0.00000  0.61740  0.16726  Biso   1.000  C
  H34      1.0000 0.00000  0.69830  0.15460  Biso   1.000  H
  O5       1.0000 0.85690  0.00000  0.70526  Biso   1.000  O
  O6       1.0000 0.75560  0.00000  0.75683  Biso   1.000  O
  C55      1.0000 0.75430  0.00000  0.72408  Biso   1.000  C
  C56      1.0000 0.61830  0.00000  0.70457  Biso   1.000  C
  C57      1.0000 0.61740  0.00000  0.66726  Biso   1.000  C
  H35      1.0000 0.69830  0.00000  0.65460  Biso   1.000  H
  O7       1.0000 0.14310  0.00000  0.70526  Biso   1.000  O
  O8       1.0000 0.24440  0.00000  0.75683  Biso   1.000  O
  C58      1.0000 0.24570  0.00000  0.72408  Biso   1.000  C
  C59      1.0000 0.38170  0.00000  0.70457  Biso   1.000  C
  C60      1.0000 0.38260  0.00000  0.66726  Biso   1.000  C
  H36      1.0000 0.30170  0.00000  0.65460  Biso   1.000  H
  O9       1.0000 0.00000  0.14310  0.79474  Biso   1.000  O
  O10      1.0000 0.00000  0.24440  0.74317  Biso   1.000  O
  C61      1.0000 0.00000  0.24570  0.77592  Biso   1.000  C
  C62      1.0000 0.00000  0.38170  0.79543  Biso   1.000  C
  C63      1.0000 0.00000  0.38260  0.83274  Biso   1.000  C
  H37      1.0000 0.00000  0.30170  0.84540  Biso   1.000  H
  O11      1.0000 0.00000  0.85690  0.79474  Biso   1.000  O
  O12      1.0000 0.00000  0.75560  0.74317  Biso   1.000  O
  C64      1.0000 0.00000  0.75430  0.77592  Biso   1.000  C
  C65      1.0000 0.00000  0.61830  0.79543  Biso   1.000  C
  C66      1.0000 0.00000  0.61740  0.83274  Biso   1.000  C
  H38      1.0000 0.00000  0.69830  0.84540  Biso   1.000  H
  O13      1.0000 0.14310  0.00000  0.29474  Biso   1.000  O
  O14      1.0000 0.24440  0.00000  0.24317  Biso   1.000  O
  C67      1.0000 0.24570  0.00000  0.27592  Biso   1.000  C
  C68      1.0000 0.38170  0.00000  0.29543  Biso   1.000  C
  C69      1.0000 0.38260  0.00000  0.33274  Biso   1.000  C
  H39      1.0000 0.30170  0.00000  0.34540  Biso   1.000  H
  O15      1.0000 0.85690  0.00000  0.29474  Biso   1.000  O
  O16      1.0000 0.75560  0.00000  0.24317  Biso   1.000  O
  C70      1.0000 0.75430  0.00000  0.27592  Biso   1.000  C
  C71      1.0000 0.61830  0.00000  0.29543  Biso   1.000  C
  C72      1.0000 0.61740  0.00000  0.33274  Biso   1.000  C
  H40      1.0000 0.69830  0.00000  0.34540  Biso   1.000  H
  C73      1.0000 0.00000  0.50000  0.22350  Biso   1.000  C
  H41      1.0000 0.00000  0.50000  0.24880  Biso   1.000  H
  C74      1.0000 0.00000  0.50000  0.14880  Biso   1.000  C
  C75      1.0000 0.00000  0.50000  0.10770  Biso   1.000  C
  C76      1.0000 0.00000  0.50000  0.07660  Biso   1.000  C
  C77      1.0000 0.00000  0.50000  0.03780  Biso   1.000  C
  C78      1.0000 0.50000  0.00000  0.72350  Biso   1.000  C
  H42      1.0000 0.50000  0.00000  0.74880  Biso   1.000  H
  C79      1.0000 0.50000  0.00000  0.64880  Biso   1.000  C
  C80      1.0000 0.50000  0.00000  0.60770  Biso   1.000  C
  C81      1.0000 0.50000  0.00000  0.57660  Biso   1.000  C
  C82      1.0000 0.50000  0.00000  0.53780  Biso   1.000  C
  C83      1.0000 0.00000  0.50000  0.77650  Biso   1.000  C
  H43      1.0000 0.00000  0.50000  0.75120  Biso   1.000  H
  C84      1.0000 0.00000  0.50000  0.85120  Biso   1.000  C
  C85      1.0000 0.00000  0.50000  0.89230  Biso   1.000  C
  C86      1.0000 0.00000  0.50000  0.92340  Biso   1.000  C
  C87      1.0000 0.00000  0.50000  0.96220  Biso   1.000  C
  C88      1.0000 0.50000  0.00000  0.27650  Biso   1.000  C
  H44      1.0000 0.50000  0.00000  0.25120  Biso   1.000  H
  C89      1.0000 0.50000  0.00000  0.35120  Biso   1.000  C
  C90      1.0000 0.50000  0.00000  0.39230  Biso   1.000  C
  C91      1.0000 0.50000  0.00000  0.42340  Biso   1.000  C
  C92      1.0000 0.50000  0.00000  0.46220  Biso   1.000  C
