data_image0
_cell_length_a       17.9643
_cell_length_b       22.2539
_cell_length_c       20.8724
_cell_angle_alpha    90
_cell_angle_beta     108.065
_cell_angle_gamma    90

_symmetry_space_group_name_H-M    "P 1"
_symmetry_int_tables_number       1

loop_
  _symmetry_equiv_pos_as_xyz
  'x, y, z'

loop_
  _atom_site_label
  _atom_site_occupancy
  _atom_site_fract_x
  _atom_site_fract_y
  _atom_site_fract_z
  _atom_site_thermal_displace_type
  _atom_site_B_iso_or_equiv
  _atom_site_type_symbol
  Zn1      1.0000 0.01851  0.68426  0.07701  Biso   1.000  Zn
  Zn2      1.0000 0.93793  0.79084  0.11015  Biso   1.000  Zn
  O1       1.0000 0.02770  0.58080  0.98620  Biso   1.000  O
  O2       1.0000 0.92060  0.73700  0.02424  Biso   1.000  O
  O3       1.0000 0.81480  0.88970  0.07380  Biso   1.000  O
  O4       1.0000 0.09570  0.56050  0.10800  Biso   1.000  O
  O5       1.0000 0.95970  0.70080  0.14850  Biso   1.000  O
  O6       1.0000 0.84160  0.84990  0.18980  Biso   1.000  O
  O7       1.0000 0.15650  0.62870  0.04410  Biso   1.000  O
  O8       1.0000 0.05320  0.77430  0.11060  Biso   1.000  O
  O9       1.0000 0.93630  0.91890  0.16390  Biso   1.000  O
  N1       1.0000 0.98120  0.63070  0.98990  Biso   1.000  N
  N2       1.0000 0.83720  0.83600  0.04910  Biso   1.000  N
  N3       1.0000 0.05410  0.60350  0.13290  Biso   1.000  N
  N4       1.0000 0.88490  0.79780  0.18890  Biso   1.000  N
  N5       1.0000 0.13310  0.68250  0.06720  Biso   1.000  N
  N6       1.0000 0.98510  0.87780  0.14290  Biso   1.000  N
  N7       1.0000 0.36770  0.28180  0.93380  Biso   1.000  N
  B1       1.0000 0.10530  0.57460  0.04000  Biso   1.000  B
  B2       1.0000 0.85200  0.90140  0.14750  Biso   1.000  B
  C1       1.0000 0.91550  0.63080  0.94120  Biso   1.000  C
  H1       1.0000 0.90670  0.59790  0.91070  Biso   1.000  H
  C2       1.0000 0.85460  0.67520  0.92850  Biso   1.000  C
  C3       1.0000 0.78680  0.66590  0.87290  Biso   1.000  C
  H2       1.0000 0.78460  0.63110  0.84600  Biso   1.000  H
  C4       1.0000 0.72300  0.70470  0.85530  Biso   1.000  C
  C5       1.0000 0.72930  0.75530  0.89480  Biso   1.000  C
  H3       1.0000 0.68760  0.78350  0.88270  Biso   1.000  H
  C6       1.0000 0.79360  0.76760  0.95200  Biso   1.000  C
  C7       1.0000 0.85820  0.72700  0.97050  Biso   1.000  C
  C8       1.0000 0.78930  0.82130  0.99010  Biso   1.000  C
  H4       1.0000 0.74770  0.84840  0.97030  Biso   1.000  H
  C9       1.0000 0.64900  0.69090  0.79540  Biso   1.000  C
  C10      1.0000 0.65700  0.63640  0.75450  Biso   1.000  C
  H5       1.0000 0.70140  0.64220  0.73720  Biso   1.000  H
  H6       1.0000 0.66600  0.60060  0.78310  Biso   1.000  H
  H7       1.0000 0.60890  0.63130  0.71660  Biso   1.000  H
  C11      1.0000 0.63190  0.74680  0.74770  Biso   1.000  C
  H8       1.0000 0.62650  0.78260  0.77320  Biso   1.000  H
  H9       1.0000 0.67530  0.75260  0.72910  Biso   1.000  H
  H10      1.0000 0.58330  0.74030  0.71080  Biso   1.000  H
  C12      1.0000 0.58070  0.68440  0.82370  Biso   1.000  C
  H11      1.0000 0.57740  0.72030  0.84980  Biso   1.000  H
  H12      1.0000 0.53190  0.67970  0.78650  Biso   1.000  H
  H13      1.0000 0.58900  0.64900  0.85290  Biso   1.000  H
  C13      1.0000 0.58010  0.73120  0.79080  Biso   1.000  C
  H14      1.0000 0.56690  0.72890  0.83290  Biso   1.000  H
  H15      1.0000 0.59350  0.77280  0.78340  Biso   1.000  H
  H16      1.0000 0.53500  0.71820  0.75320  Biso   1.000  H
  C14      1.0000 0.67140  0.69350  0.73000  Biso   1.000  C
  H17      1.0000 0.71620  0.66710  0.73410  Biso   1.000  H
  H18      1.0000 0.62680  0.68030  0.69200  Biso   1.000  H
  H19      1.0000 0.68530  0.73490  0.72220  Biso   1.000  H
  C15      1.0000 0.62300  0.62450  0.80180  Biso   1.000  C
  H20      1.0000 0.66690  0.59730  0.80490  Biso   1.000  H
  H21      1.0000 0.60700  0.62060  0.84240  Biso   1.000  H
  H22      1.0000 0.57890  0.61420  0.76210  Biso   1.000  H
  C16      1.0000 0.04690  0.58750  0.19100  Biso   1.000  C
  H23      1.0000 0.06950  0.55020  0.20930  Biso   1.000  H
  C17      1.0000 0.00670  0.62230  0.23080  Biso   1.000  C
  C18      1.0000 0.01210  0.59800  0.29470  Biso   1.000  C
  H24      1.0000 0.04090  0.56190  0.30880  Biso   1.000  H
  C19      1.0000 0.97590  0.62550  0.33840  Biso   1.000  C
  C20      1.0000 0.93380  0.67750  0.31490  Biso   1.000  C
  H25      1.0000 0.90710  0.69610  0.34240  Biso   1.000  H
  C21      1.0000 0.92860  0.70420  0.25250  Biso   1.000  C
  C22      1.0000 0.96540  0.67600  0.20840  Biso   1.000  C
  C23      1.0000 0.88660  0.76170  0.23730  Biso   1.000  C
  H26      1.0000 0.85770  0.77340  0.26640  Biso   1.000  H
  C24      1.0000 0.97970  0.59930  0.40810  Biso   1.000  C
  C25      1.0000 0.99620  0.64940  0.46140  Biso   1.000  C
  H27      1.0000 0.95590  0.68060  0.44690  Biso   1.000  H
  H28      1.0000 0.99530  0.63260  0.50450  Biso   1.000  H
  H29      1.0000 0.04780  0.66700  0.46660  Biso   1.000  H
  C26      1.0000 0.89890  0.57180  0.40350  Biso   1.000  C
  H30      1.0000 0.88650  0.53950  0.36990  Biso   1.000  H
  H31      1.0000 0.90050  0.55540  0.44750  Biso   1.000  H
  H32      1.0000 0.85850  0.60300  0.39020  Biso   1.000  H
  C27      1.0000 0.04390  0.55080  0.43210  Biso   1.000  C
  H33      1.0000 0.03430  0.51840  0.39870  Biso   1.000  H
  H34      1.0000 0.09530  0.56880  0.43750  Biso   1.000  H
  H35      1.0000 0.04290  0.53440  0.47540  Biso   1.000  H
  C28      1.0000 0.18880  0.72210  0.08030  Biso   1.000  C
  H36      1.0000 0.23730  0.71000  0.07510  Biso   1.000  H
  C29      1.0000 0.18280  0.78410  0.10240  Biso   1.000  C
  C30      1.0000 0.24830  0.82130  0.10840  Biso   1.000  C
  H37      1.0000 0.29260  0.80400  0.09980  Biso   1.000  H
  C31      1.0000 0.25180  0.88120  0.12600  Biso   1.000  C
  C32      1.0000 0.18590  0.90420  0.14030  Biso   1.000  C
  H38      1.0000 0.18670  0.94500  0.15390  Biso   1.000  H
  C33      1.0000 0.11850  0.86950  0.13540  Biso   1.000  C
  C34      1.0000 0.11560  0.80840  0.11540  Biso   1.000  C
  C35      1.0000 0.05390  0.90010  0.15090  Biso   1.000  C
  H39      1.0000 0.06340  0.93970  0.16830  Biso   1.000  H
  C36      1.0000 0.32380  0.91970  0.12720  Biso   1.000  C
  C37      1.0000 0.31480  0.98510  0.14260  Biso   1.000  C
  H40      1.0000 0.26620  0.00090  0.11120  Biso   1.000  H
  H41      1.0000 0.31300  0.98900  0.18890  Biso   1.000  H
  H42      1.0000 0.35940  0.00800  0.13780  Biso   1.000  H
  C38      1.0000 0.39820  0.89270  0.17430  Biso   1.000  C
  H43      1.0000 0.40190  0.85040  0.16260  Biso   1.000  H
  H44      1.0000 0.44370  0.91460  0.16980  Biso   1.000  H
  H45      1.0000 0.39730  0.89570  0.22090  Biso   1.000  H
  C39      1.0000 0.33220  0.91880  0.05340  Biso   1.000  C
  H46      1.0000 0.33820  0.87730  0.04030  Biso   1.000  H
  H47      1.0000 0.28520  0.93640  0.02140  Biso   1.000  H
  H48      1.0000 0.37820  0.94230  0.05310  Biso   1.000  H
  C40      1.0000 0.15010  0.51920  0.01910  Biso   1.000  C
  C41      1.0000 0.22870  0.50640  0.05490  Biso   1.000  C
  H49      1.0000 0.25450  0.53040  0.09290  Biso   1.000  H
  C42      1.0000 0.27010  0.46010  0.03690  Biso   1.000  C
  H50      1.0000 0.32300  0.45330  0.06300  Biso   1.000  H
  C43      1.0000 0.23570  0.42330  0.98130  Biso   1.000  C
  C44      1.0000 0.15760  0.43610  0.94440  Biso   1.000  C
  H51      1.0000 0.13230  0.41250  0.90580  Biso   1.000  H
  C45      1.0000 0.11620  0.48260  0.96300  Biso   1.000  C
  H52      1.0000 0.06330  0.48960  0.93680  Biso   1.000  H
  C46      1.0000 0.27960  0.37240  0.96300  Biso   1.000  C
  C47      1.0000 0.36040  0.37510  0.97890  Biso   1.000  C
  H53      1.0000 0.38610  0.41030  0.00070  Biso   1.000  H
  C48      1.0000 0.40460  0.33090  0.96550  Biso   1.000  C
  H54      1.0000 0.46000  0.33430  0.97800  Biso   1.000  H
  C49      1.0000 0.28740  0.27620  0.91250  Biso   1.000  C
  H55      1.0000 0.26300  0.24170  0.88790  Biso   1.000  H
  C50      1.0000 0.24240  0.32200  0.92760  Biso   1.000  C
  H56      1.0000 0.18690  0.31880  0.91400  Biso   1.000  H
  C51      1.0000 0.80820  0.95790  0.16620  Biso   1.000  C
  C52      1.0000 0.77900  0.00510  0.12010  Biso   1.000  C
  H57      1.0000 0.78570  0.00250  0.07680  Biso   1.000  H
  C53      1.0000 0.74070  0.05530  0.13470  Biso   1.000  C
  H58      1.0000 0.72330  0.08620  0.10210  Biso   1.000  H
  C54      1.0000 0.72780  0.06030  0.19750  Biso   1.000  C
  C55      1.0000 0.75840  0.01520  0.24430  Biso   1.000  C
  H59      1.0000 0.75190  0.01780  0.28770  Biso   1.000  H
  C56      1.0000 0.79800  0.96700  0.22940  Biso   1.000  C
  H60      1.0000 0.81950  0.93820  0.26380  Biso   1.000  H
  C57      1.0000 0.68570  0.11800  0.20890  Biso   1.000  C
  C58      1.0000 0.63740  0.15260  0.15720  Biso   1.000  C
  H61      1.0000 0.62900  0.14140  0.11160  Biso   1.000  H
  C59      1.0000 0.60140  0.20370  0.17210  Biso   1.000  C
  H62      1.0000 0.56840  0.22730  0.13670  Biso   1.000  H
  N8       1.0000 0.61370  0.22010  0.23880  Biso   1.000  N
  C60      1.0000 0.66200  0.18560  0.29060  Biso   1.000  C
  H63      1.0000 0.67040  0.19680  0.33620  Biso   1.000  H
  C61      1.0000 0.69800  0.13450  0.27570  Biso   1.000  C
  H64      1.0000 0.73100  0.11090  0.31110  Biso   1.000  H
  C62      1.0000 0.67160  0.09910  0.22270  Biso   1.000  C
  C63      1.0000 0.59390  0.10450  0.18300  Biso   1.000  C
  H65      1.0000 0.57460  0.08110  0.14320  Biso   1.000  H
  C64      1.0000 0.54440  0.14420  0.20150  Biso   1.000  C
  H66      1.0000 0.49130  0.14790  0.17440  Biso   1.000  H
  N9       1.0000 0.57260  0.17840  0.25970  Biso   1.000  N
  C65      1.0000 0.65030  0.17300  0.29940  Biso   1.000  C
  H67      1.0000 0.66960  0.19650  0.33910  Biso   1.000  H
  C66      1.0000 0.69980  0.13340  0.28090  Biso   1.000  C
  H68      1.0000 0.75290  0.12970  0.30800  Biso   1.000  H
  Zn3      1.0000 0.98149  0.18426  0.42299  Biso   1.000  Zn
  Zn4      1.0000 0.06207  0.29084  0.38985  Biso   1.000  Zn
  O10      1.0000 0.97230  0.08080  0.51380  Biso   1.000  O
  O11      1.0000 0.07940  0.23700  0.47576  Biso   1.000  O
  O12      1.0000 0.18520  0.38970  0.42620  Biso   1.000  O
  O13      1.0000 0.90430  0.06050  0.39200  Biso   1.000  O
  O14      1.0000 0.04030  0.20080  0.35150  Biso   1.000  O
  O15      1.0000 0.15840  0.34990  0.31020  Biso   1.000  O
  O16      1.0000 0.84350  0.12870  0.45590  Biso   1.000  O
  O17      1.0000 0.94680  0.27430  0.38940  Biso   1.000  O
  O18      1.0000 0.06370  0.41890  0.33610  Biso   1.000  O
  N10      1.0000 0.01880  0.13070  0.51010  Biso   1.000  N
  N11      1.0000 0.16280  0.33600  0.45090  Biso   1.000  N
  N12      1.0000 0.94590  0.10350  0.36710  Biso   1.000  N
  N13      1.0000 0.11510  0.29780  0.31110  Biso   1.000  N
  N14      1.0000 0.86690  0.18250  0.43280  Biso   1.000  N
  N15      1.0000 0.01490  0.37780  0.35710  Biso   1.000  N
  N16      1.0000 0.63230  0.78180  0.56620  Biso   1.000  N
  B3       1.0000 0.89470  0.07460  0.46000  Biso   1.000  B
  B4       1.0000 0.14800  0.40140  0.35250  Biso   1.000  B
  C67      1.0000 0.08450  0.13080  0.55880  Biso   1.000  C
  H69      1.0000 0.09330  0.09790  0.58930  Biso   1.000  H
  C68      1.0000 0.14540  0.17520  0.57150  Biso   1.000  C
  C69      1.0000 0.21320  0.16590  0.62710  Biso   1.000  C
  H70      1.0000 0.21540  0.13110  0.65400  Biso   1.000  H
  C70      1.0000 0.27700  0.20470  0.64470  Biso   1.000  C
  C71      1.0000 0.27070  0.25530  0.60520  Biso   1.000  C
  H71      1.0000 0.31240  0.28350  0.61730  Biso   1.000  H
  C72      1.0000 0.20640  0.26760  0.54800  Biso   1.000  C
  C73      1.0000 0.14180  0.22700  0.52950  Biso   1.000  C
  C74      1.0000 0.21070  0.32130  0.50990  Biso   1.000  C
  H72      1.0000 0.25230  0.34840  0.52970  Biso   1.000  H
  C75      1.0000 0.35100  0.19090  0.70460  Biso   1.000  C
  C76      1.0000 0.34300  0.13640  0.74550  Biso   1.000  C
  H73      1.0000 0.29860  0.14220  0.76280  Biso   1.000  H
  H74      1.0000 0.33400  0.10060  0.71690  Biso   1.000  H
  H75      1.0000 0.39110  0.13130  0.78340  Biso   1.000  H
  C77      1.0000 0.36810  0.24680  0.75230  Biso   1.000  C
  H76      1.0000 0.37350  0.28260  0.72680  Biso   1.000  H
  H77      1.0000 0.32470  0.25260  0.77090  Biso   1.000  H
  H78      1.0000 0.41670  0.24030  0.78920  Biso   1.000  H
  C78      1.0000 0.41930  0.18440  0.67630  Biso   1.000  C
  H79      1.0000 0.42260  0.22030  0.65020  Biso   1.000  H
  H80      1.0000 0.46810  0.17970  0.71350  Biso   1.000  H
  H81      1.0000 0.41100  0.14900  0.64710  Biso   1.000  H
  C79      1.0000 0.41990  0.23120  0.70920  Biso   1.000  C
  H82      1.0000 0.43310  0.22890  0.66710  Biso   1.000  H
  H83      1.0000 0.40650  0.27280  0.71660  Biso   1.000  H
  H84      1.0000 0.46500  0.21820  0.74680  Biso   1.000  H
  C80      1.0000 0.32860  0.19350  0.77000  Biso   1.000  C
  H85      1.0000 0.28380  0.16710  0.76590  Biso   1.000  H
  H86      1.0000 0.37320  0.18030  0.80800  Biso   1.000  H
  H87      1.0000 0.31470  0.23490  0.77780  Biso   1.000  H
  C81      1.0000 0.37700  0.12450  0.69820  Biso   1.000  C
  H88      1.0000 0.33310  0.09730  0.69510  Biso   1.000  H
  H89      1.0000 0.39300  0.12060  0.65760  Biso   1.000  H
  H90      1.0000 0.42110  0.11420  0.73790  Biso   1.000  H
  C82      1.0000 0.95310  0.08750  0.30900  Biso   1.000  C
  H91      1.0000 0.93050  0.05020  0.29070  Biso   1.000  H
  C83      1.0000 0.99330  0.12230  0.26920  Biso   1.000  C
  C84      1.0000 0.98790  0.09800  0.20530  Biso   1.000  C
  H92      1.0000 0.95910  0.06190  0.19120  Biso   1.000  H
  C85      1.0000 0.02410  0.12550  0.16160  Biso   1.000  C
  C86      1.0000 0.06620  0.17750  0.18510  Biso   1.000  C
  H93      1.0000 0.09290  0.19610  0.15760  Biso   1.000  H
  C87      1.0000 0.07140  0.20420  0.24750  Biso   1.000  C
  C88      1.0000 0.03460  0.17600  0.29160  Biso   1.000  C
  C89      1.0000 0.11340  0.26170  0.26270  Biso   1.000  C
  H94      1.0000 0.14230  0.27340  0.23360  Biso   1.000  H
  C90      1.0000 0.02030  0.09930  0.09190  Biso   1.000  C
  C91      1.0000 0.00380  0.14940  0.03860  Biso   1.000  C
  H95      1.0000 0.04410  0.18060  0.05310  Biso   1.000  H
  H96      1.0000 0.00470  0.13260  0.99550  Biso   1.000  H
  H97      1.0000 0.95220  0.16700  0.03340  Biso   1.000  H
  C92      1.0000 0.10110  0.07180  0.09650  Biso   1.000  C
  H98      1.0000 0.11350  0.03950  0.13010  Biso   1.000  H
  H99      1.0000 0.09950  0.05540  0.05250  Biso   1.000  H
  H100     1.0000 0.14150  0.10300  0.10980  Biso   1.000  H
  C93      1.0000 0.95610  0.05080  0.06790  Biso   1.000  C
  H101     1.0000 0.96570  0.01840  0.10130  Biso   1.000  H
  H102     1.0000 0.90470  0.06880  0.06250  Biso   1.000  H
  H103     1.0000 0.95710  0.03440  0.02460  Biso   1.000  H
  C94      1.0000 0.81120  0.22210  0.41970  Biso   1.000  C
  H104     1.0000 0.76270  0.21000  0.42490  Biso   1.000  H
  C95      1.0000 0.81720  0.28410  0.39760  Biso   1.000  C
  C96      1.0000 0.75170  0.32130  0.39160  Biso   1.000  C
  H105     1.0000 0.70740  0.30400  0.40020  Biso   1.000  H
  C97      1.0000 0.74820  0.38120  0.37400  Biso   1.000  C
  C98      1.0000 0.81410  0.40420  0.35970  Biso   1.000  C
  H106     1.0000 0.81330  0.44500  0.34610  Biso   1.000  H
  C99      1.0000 0.88150  0.36950  0.36460  Biso   1.000  C
  C100     1.0000 0.88440  0.30840  0.38460  Biso   1.000  C
  C101     1.0000 0.94610  0.40010  0.34910  Biso   1.000  C
  H107     1.0000 0.93660  0.43970  0.33170  Biso   1.000  H
  C102     1.0000 0.67620  0.41970  0.37280  Biso   1.000  C
  C103     1.0000 0.68520  0.48510  0.35740  Biso   1.000  C
  H108     1.0000 0.73380  0.50090  0.38880  Biso   1.000  H
  H109     1.0000 0.68700  0.48900  0.31110  Biso   1.000  H
  H110     1.0000 0.64060  0.50800  0.36220  Biso   1.000  H
  C104     1.0000 0.60180  0.39270  0.32570  Biso   1.000  C
  H111     1.0000 0.59810  0.35040  0.33740  Biso   1.000  H
  H112     1.0000 0.55630  0.41460  0.33020  Biso   1.000  H
  H113     1.0000 0.60270  0.39570  0.27910  Biso   1.000  H
  C105     1.0000 0.66780  0.41880  0.44660  Biso   1.000  C
  H114     1.0000 0.66180  0.37730  0.45970  Biso   1.000  H
  H115     1.0000 0.71480  0.43640  0.47860  Biso   1.000  H
  H116     1.0000 0.62180  0.44230  0.44690  Biso   1.000  H
  C106     1.0000 0.84990  0.01920  0.48090  Biso   1.000  C
  C107     1.0000 0.77130  0.00640  0.44510  Biso   1.000  C
  H117     1.0000 0.74550  0.03040  0.40710  Biso   1.000  H
  C108     1.0000 0.72990  0.96010  0.46310  Biso   1.000  C
  H118     1.0000 0.67700  0.95330  0.43700  Biso   1.000  H
  C109     1.0000 0.76430  0.92330  0.51870  Biso   1.000  C
  C110     1.0000 0.84240  0.93610  0.55560  Biso   1.000  C
  H119     1.0000 0.86770  0.91250  0.59420  Biso   1.000  H
  C111     1.0000 0.88380  0.98260  0.53700  Biso   1.000  C
  H120     1.0000 0.93670  0.98960  0.56320  Biso   1.000  H
  C112     1.0000 0.72040  0.87240  0.53700  Biso   1.000  C
  C113     1.0000 0.63960  0.87510  0.52110  Biso   1.000  C
  H121     1.0000 0.61390  0.91030  0.49930  Biso   1.000  H
  C114     1.0000 0.59540  0.83090  0.53450  Biso   1.000  C
  H122     1.0000 0.54000  0.83430  0.52200  Biso   1.000  H
  C115     1.0000 0.71260  0.77620  0.58750  Biso   1.000  C
  H123     1.0000 0.73700  0.74170  0.61210  Biso   1.000  H
  C116     1.0000 0.75760  0.82200  0.57240  Biso   1.000  C
  H124     1.0000 0.81310  0.81880  0.58600  Biso   1.000  H
  C117     1.0000 0.19180  0.45790  0.33380  Biso   1.000  C
  C118     1.0000 0.22100  0.50510  0.37990  Biso   1.000  C
  H125     1.0000 0.21430  0.50250  0.42320  Biso   1.000  H
  C119     1.0000 0.25930  0.55530  0.36530  Biso   1.000  C
  H126     1.0000 0.27670  0.58620  0.39790  Biso   1.000  H
  C120     1.0000 0.27220  0.56030  0.30250  Biso   1.000  C
  C121     1.0000 0.24160  0.51520  0.25570  Biso   1.000  C
  H127     1.0000 0.24810  0.51780  0.21230  Biso   1.000  H
  C122     1.0000 0.20200  0.46700  0.27060  Biso   1.000  C
  H128     1.0000 0.18050  0.43820  0.23620  Biso   1.000  H
  C123     1.0000 0.31430  0.61800  0.29110  Biso   1.000  C
  C124     1.0000 0.36260  0.65260  0.34280  Biso   1.000  C
  H129     1.0000 0.37100  0.64140  0.38840  Biso   1.000  H
  C125     1.0000 0.39860  0.70370  0.32790  Biso   1.000  C
  H130     1.0000 0.43160  0.72730  0.36330  Biso   1.000  H
  N17      1.0000 0.38630  0.72010  0.26120  Biso   1.000  N
  C126     1.0000 0.33800  0.68560  0.20940  Biso   1.000  C
  H131     1.0000 0.32960  0.69680  0.16380  Biso   1.000  H
  C127     1.0000 0.30200  0.63450  0.22430  Biso   1.000  C
  H132     1.0000 0.26900  0.61090  0.18890  Biso   1.000  H
  C128     1.0000 0.32840  0.59910  0.27730  Biso   1.000  C
  C129     1.0000 0.40610  0.60450  0.31700  Biso   1.000  C
  H133     1.0000 0.42540  0.58110  0.35680  Biso   1.000  H
  C130     1.0000 0.45560  0.64420  0.29850  Biso   1.000  C
  H134     1.0000 0.50870  0.64790  0.32560  Biso   1.000  H
  N18      1.0000 0.42740  0.67840  0.24030  Biso   1.000  N
  C131     1.0000 0.34970  0.67300  0.20060  Biso   1.000  C
  H135     1.0000 0.33040  0.69650  0.16090  Biso   1.000  H
  C132     1.0000 0.30020  0.63340  0.21910  Biso   1.000  C
  H136     1.0000 0.24710  0.62970  0.19200  Biso   1.000  H
  Zn5      1.0000 0.98149  0.31574  0.92299  Biso   1.000  Zn
  Zn6      1.0000 0.06207  0.20916  0.88985  Biso   1.000  Zn
  O19      1.0000 0.97230  0.41920  0.01380  Biso   1.000  O
  O20      1.0000 0.07940  0.26300  0.97576  Biso   1.000  O
  O21      1.0000 0.18520  0.11030  0.92620  Biso   1.000  O
  O22      1.0000 0.90430  0.43950  0.89200  Biso   1.000  O
  O23      1.0000 0.04030  0.29920  0.85150  Biso   1.000  O
  O24      1.0000 0.15840  0.15010  0.81020  Biso   1.000  O
  O25      1.0000 0.84350  0.37130  0.95590  Biso   1.000  O
  O26      1.0000 0.94680  0.22570  0.88940  Biso   1.000  O
  O27      1.0000 0.06370  0.08110  0.83610  Biso   1.000  O
  N19      1.0000 0.01880  0.36930  0.01010  Biso   1.000  N
  N20      1.0000 0.16280  0.16400  0.95090  Biso   1.000  N
  N21      1.0000 0.94590  0.39650  0.86710  Biso   1.000  N
  N22      1.0000 0.11510  0.20220  0.81110  Biso   1.000  N
  N23      1.0000 0.86690  0.31750  0.93280  Biso   1.000  N
  N24      1.0000 0.01490  0.12220  0.85710  Biso   1.000  N
  N25      1.0000 0.63230  0.71820  0.06620  Biso   1.000  N
  B5       1.0000 0.89470  0.42540  0.96000  Biso   1.000  B
  B6       1.0000 0.14800  0.09860  0.85250  Biso   1.000  B
  C133     1.0000 0.08450  0.36920  0.05880  Biso   1.000  C
  H137     1.0000 0.09330  0.40210  0.08930  Biso   1.000  H
  C134     1.0000 0.14540  0.32480  0.07150  Biso   1.000  C
  C135     1.0000 0.21320  0.33410  0.12710  Biso   1.000  C
  H138     1.0000 0.21540  0.36890  0.15400  Biso   1.000  H
  C136     1.0000 0.27700  0.29530  0.14470  Biso   1.000  C
  C137     1.0000 0.27070  0.24470  0.10520  Biso   1.000  C
  H139     1.0000 0.31240  0.21650  0.11730  Biso   1.000  H
  C138     1.0000 0.20640  0.23240  0.04800  Biso   1.000  C
  C139     1.0000 0.14180  0.27300  0.02950  Biso   1.000  C
  C140     1.0000 0.21070  0.17870  0.00990  Biso   1.000  C
  H140     1.0000 0.25230  0.15160  0.02970  Biso   1.000  H
  C141     1.0000 0.35100  0.30910  0.20460  Biso   1.000  C
  C142     1.0000 0.34300  0.36360  0.24550  Biso   1.000  C
  H141     1.0000 0.29860  0.35780  0.26280  Biso   1.000  H
  H142     1.0000 0.33400  0.39940  0.21690  Biso   1.000  H
  H143     1.0000 0.39110  0.36870  0.28340  Biso   1.000  H
  C143     1.0000 0.36810  0.25320  0.25230  Biso   1.000  C
  H144     1.0000 0.37350  0.21740  0.22680  Biso   1.000  H
  H145     1.0000 0.32470  0.24740  0.27090  Biso   1.000  H
  H146     1.0000 0.41670  0.25970  0.28920  Biso   1.000  H
  C144     1.0000 0.41930  0.31560  0.17630  Biso   1.000  C
  H147     1.0000 0.42260  0.27970  0.15020  Biso   1.000  H
  H148     1.0000 0.46810  0.32030  0.21350  Biso   1.000  H
  H149     1.0000 0.41100  0.35100  0.14710  Biso   1.000  H
  C145     1.0000 0.41990  0.26880  0.20920  Biso   1.000  C
  H150     1.0000 0.43310  0.27110  0.16710  Biso   1.000  H
  H151     1.0000 0.40650  0.22720  0.21660  Biso   1.000  H
  H152     1.0000 0.46500  0.28180  0.24680  Biso   1.000  H
  C146     1.0000 0.32860  0.30650  0.27000  Biso   1.000  C
  H153     1.0000 0.28380  0.33290  0.26590  Biso   1.000  H
  H154     1.0000 0.37320  0.31970  0.30800  Biso   1.000  H
  H155     1.0000 0.31470  0.26510  0.27780  Biso   1.000  H
  C147     1.0000 0.37700  0.37550  0.19820  Biso   1.000  C
  H156     1.0000 0.33310  0.40270  0.19510  Biso   1.000  H
  H157     1.0000 0.39300  0.37940  0.15760  Biso   1.000  H
  H158     1.0000 0.42110  0.38580  0.23790  Biso   1.000  H
  C148     1.0000 0.95310  0.41250  0.80900  Biso   1.000  C
  H159     1.0000 0.93050  0.44980  0.79070  Biso   1.000  H
  C149     1.0000 0.99330  0.37770  0.76920  Biso   1.000  C
  C150     1.0000 0.98790  0.40200  0.70530  Biso   1.000  C
  H160     1.0000 0.95910  0.43810  0.69120  Biso   1.000  H
  C151     1.0000 0.02410  0.37450  0.66160  Biso   1.000  C
  C152     1.0000 0.06620  0.32250  0.68510  Biso   1.000  C
  H161     1.0000 0.09290  0.30390  0.65760  Biso   1.000  H
  C153     1.0000 0.07140  0.29580  0.74750  Biso   1.000  C
  C154     1.0000 0.03460  0.32400  0.79160  Biso   1.000  C
  C155     1.0000 0.11340  0.23830  0.76270  Biso   1.000  C
  H162     1.0000 0.14230  0.22660  0.73360  Biso   1.000  H
  C156     1.0000 0.02030  0.40070  0.59190  Biso   1.000  C
  C157     1.0000 0.00380  0.35060  0.53860  Biso   1.000  C
  H163     1.0000 0.04410  0.31940  0.55310  Biso   1.000  H
  H164     1.0000 0.00470  0.36740  0.49550  Biso   1.000  H
  H165     1.0000 0.95220  0.33300  0.53340  Biso   1.000  H
  C158     1.0000 0.10110  0.42820  0.59650  Biso   1.000  C
  H166     1.0000 0.11350  0.46050  0.63010  Biso   1.000  H
  H167     1.0000 0.09950  0.44460  0.55250  Biso   1.000  H
  H168     1.0000 0.14150  0.39700  0.60980  Biso   1.000  H
  C159     1.0000 0.95610  0.44920  0.56790  Biso   1.000  C
  H169     1.0000 0.96570  0.48160  0.60130  Biso   1.000  H
  H170     1.0000 0.90470  0.43120  0.56250  Biso   1.000  H
  H171     1.0000 0.95710  0.46560  0.52460  Biso   1.000  H
  C160     1.0000 0.81120  0.27790  0.91970  Biso   1.000  C
  H172     1.0000 0.76270  0.29000  0.92490  Biso   1.000  H
  C161     1.0000 0.81720  0.21590  0.89760  Biso   1.000  C
  C162     1.0000 0.75170  0.17870  0.89160  Biso   1.000  C
  H173     1.0000 0.70740  0.19600  0.90020  Biso   1.000  H
  C163     1.0000 0.74820  0.11880  0.87400  Biso   1.000  C
  C164     1.0000 0.81410  0.09580  0.85970  Biso   1.000  C
  H174     1.0000 0.81330  0.05500  0.84610  Biso   1.000  H
  C165     1.0000 0.88150  0.13050  0.86460  Biso   1.000  C
  C166     1.0000 0.88440  0.19160  0.88460  Biso   1.000  C
  C167     1.0000 0.94610  0.09990  0.84910  Biso   1.000  C
  H175     1.0000 0.93660  0.06030  0.83170  Biso   1.000  H
  C168     1.0000 0.67620  0.08030  0.87280  Biso   1.000  C
  C169     1.0000 0.68520  0.01490  0.85740  Biso   1.000  C
  H176     1.0000 0.73380  0.99910  0.88880  Biso   1.000  H
  H177     1.0000 0.68700  0.01100  0.81110  Biso   1.000  H
  H178     1.0000 0.64060  0.99200  0.86220  Biso   1.000  H
  C170     1.0000 0.60180  0.10730  0.82570  Biso   1.000  C
  H179     1.0000 0.59810  0.14960  0.83740  Biso   1.000  H
  H180     1.0000 0.55630  0.08540  0.83020  Biso   1.000  H
  H181     1.0000 0.60270  0.10430  0.77910  Biso   1.000  H
  C171     1.0000 0.66780  0.08120  0.94660  Biso   1.000  C
  H182     1.0000 0.66180  0.12270  0.95970  Biso   1.000  H
  H183     1.0000 0.71480  0.06360  0.97860  Biso   1.000  H
  H184     1.0000 0.62180  0.05770  0.94690  Biso   1.000  H
  C172     1.0000 0.84990  0.48080  0.98090  Biso   1.000  C
  C173     1.0000 0.77130  0.49360  0.94510  Biso   1.000  C
  H185     1.0000 0.74550  0.46960  0.90710  Biso   1.000  H
  C174     1.0000 0.72990  0.53990  0.96310  Biso   1.000  C
  H186     1.0000 0.67700  0.54670  0.93700  Biso   1.000  H
  C175     1.0000 0.76430  0.57670  0.01870  Biso   1.000  C
  C176     1.0000 0.84240  0.56390  0.05560  Biso   1.000  C
  H187     1.0000 0.86770  0.58750  0.09420  Biso   1.000  H
  C177     1.0000 0.88380  0.51740  0.03700  Biso   1.000  C
  H188     1.0000 0.93670  0.51040  0.06320  Biso   1.000  H
  C178     1.0000 0.72040  0.62760  0.03700  Biso   1.000  C
  C179     1.0000 0.63960  0.62490  0.02110  Biso   1.000  C
  H189     1.0000 0.61390  0.58970  0.99930  Biso   1.000  H
  C180     1.0000 0.59540  0.66910  0.03450  Biso   1.000  C
  H190     1.0000 0.54000  0.66570  0.02200  Biso   1.000  H
  C181     1.0000 0.71260  0.72380  0.08750  Biso   1.000  C
  H191     1.0000 0.73700  0.75830  0.11210  Biso   1.000  H
  C182     1.0000 0.75760  0.67800  0.07240  Biso   1.000  C
  H192     1.0000 0.81310  0.68120  0.08600  Biso   1.000  H
  C183     1.0000 0.19180  0.04210  0.83380  Biso   1.000  C
  C184     1.0000 0.22100  0.99490  0.87990  Biso   1.000  C
  H193     1.0000 0.21430  0.99750  0.92320  Biso   1.000  H
  C185     1.0000 0.25930  0.94470  0.86530  Biso   1.000  C
  H194     1.0000 0.27670  0.91380  0.89790  Biso   1.000  H
  C186     1.0000 0.27220  0.93970  0.80250  Biso   1.000  C
  C187     1.0000 0.24160  0.98480  0.75570  Biso   1.000  C
  H195     1.0000 0.24810  0.98220  0.71230  Biso   1.000  H
  C188     1.0000 0.20200  0.03300  0.77060  Biso   1.000  C
  H196     1.0000 0.18050  0.06180  0.73620  Biso   1.000  H
  C189     1.0000 0.31430  0.88200  0.79110  Biso   1.000  C
  C190     1.0000 0.36260  0.84740  0.84280  Biso   1.000  C
  H197     1.0000 0.37100  0.85860  0.88840  Biso   1.000  H
  C191     1.0000 0.39860  0.79630  0.82790  Biso   1.000  C
  H198     1.0000 0.43160  0.77270  0.86330  Biso   1.000  H
  N26      1.0000 0.38630  0.77990  0.76120  Biso   1.000  N
  C192     1.0000 0.33800  0.81440  0.70940  Biso   1.000  C
  H199     1.0000 0.32960  0.80320  0.66380  Biso   1.000  H
  C193     1.0000 0.30200  0.86550  0.72430  Biso   1.000  C
  H200     1.0000 0.26900  0.88910  0.68890  Biso   1.000  H
  C194     1.0000 0.32840  0.90090  0.77730  Biso   1.000  C
  C195     1.0000 0.40610  0.89550  0.81700  Biso   1.000  C
  H201     1.0000 0.42540  0.91890  0.85680  Biso   1.000  H
  C196     1.0000 0.45560  0.85580  0.79850  Biso   1.000  C
  H202     1.0000 0.50870  0.85210  0.82560  Biso   1.000  H
  N27      1.0000 0.42740  0.82160  0.74030  Biso   1.000  N
  C197     1.0000 0.34970  0.82700  0.70060  Biso   1.000  C
  H203     1.0000 0.33040  0.80350  0.66090  Biso   1.000  H
  C198     1.0000 0.30020  0.86660  0.71910  Biso   1.000  C
  H204     1.0000 0.24710  0.87030  0.69200  Biso   1.000  H
  Zn7      1.0000 0.01851  0.81574  0.57701  Biso   1.000  Zn
  Zn8      1.0000 0.93793  0.70916  0.61015  Biso   1.000  Zn
  O28      1.0000 0.02770  0.91920  0.48620  Biso   1.000  O
  O29      1.0000 0.92060  0.76300  0.52424  Biso   1.000  O
  O30      1.0000 0.81480  0.61030  0.57380  Biso   1.000  O
  O31      1.0000 0.09570  0.93950  0.60800  Biso   1.000  O
  O32      1.0000 0.95970  0.79920  0.64850  Biso   1.000  O
  O33      1.0000 0.84160  0.65010  0.68980  Biso   1.000  O
  O34      1.0000 0.15650  0.87130  0.54410  Biso   1.000  O
  O35      1.0000 0.05320  0.72570  0.61060  Biso   1.000  O
  O36      1.0000 0.93630  0.58110  0.66390  Biso   1.000  O
  N28      1.0000 0.98120  0.86930  0.48990  Biso   1.000  N
  N29      1.0000 0.83720  0.66400  0.54910  Biso   1.000  N
  N30      1.0000 0.05410  0.89650  0.63290  Biso   1.000  N
  N31      1.0000 0.88490  0.70220  0.68890  Biso   1.000  N
  N32      1.0000 0.13310  0.81750  0.56720  Biso   1.000  N
  N33      1.0000 0.98510  0.62220  0.64290  Biso   1.000  N
  N34      1.0000 0.36770  0.21820  0.43380  Biso   1.000  N
  B7       1.0000 0.10530  0.92540  0.54000  Biso   1.000  B
  B8       1.0000 0.85200  0.59860  0.64750  Biso   1.000  B
  C199     1.0000 0.91550  0.86920  0.44120  Biso   1.000  C
  H205     1.0000 0.90670  0.90210  0.41070  Biso   1.000  H
  C200     1.0000 0.85460  0.82480  0.42850  Biso   1.000  C
  C201     1.0000 0.78680  0.83410  0.37290  Biso   1.000  C
  H206     1.0000 0.78460  0.86890  0.34600  Biso   1.000  H
  C202     1.0000 0.72300  0.79530  0.35530  Biso   1.000  C
  C203     1.0000 0.72930  0.74470  0.39480  Biso   1.000  C
  H207     1.0000 0.68760  0.71650  0.38270  Biso   1.000  H
  C204     1.0000 0.79360  0.73240  0.45200  Biso   1.000  C
  C205     1.0000 0.85820  0.77300  0.47050  Biso   1.000  C
  C206     1.0000 0.78930  0.67870  0.49010  Biso   1.000  C
  H208     1.0000 0.74770  0.65160  0.47030  Biso   1.000  H
  C207     1.0000 0.64900  0.80910  0.29540  Biso   1.000  C
  C208     1.0000 0.65700  0.86360  0.25450  Biso   1.000  C
  H209     1.0000 0.70140  0.85780  0.23720  Biso   1.000  H
  H210     1.0000 0.66600  0.89940  0.28310  Biso   1.000  H
  H211     1.0000 0.60890  0.86870  0.21660  Biso   1.000  H
  C209     1.0000 0.63190  0.75320  0.24770  Biso   1.000  C
  H212     1.0000 0.62650  0.71740  0.27320  Biso   1.000  H
  H213     1.0000 0.67530  0.74740  0.22910  Biso   1.000  H
  H214     1.0000 0.58330  0.75970  0.21080  Biso   1.000  H
  C210     1.0000 0.58070  0.81560  0.32370  Biso   1.000  C
  H215     1.0000 0.57740  0.77970  0.34980  Biso   1.000  H
  H216     1.0000 0.53190  0.82030  0.28650  Biso   1.000  H
  H217     1.0000 0.58900  0.85100  0.35290  Biso   1.000  H
  C211     1.0000 0.58010  0.76880  0.29080  Biso   1.000  C
  H218     1.0000 0.56690  0.77110  0.33290  Biso   1.000  H
  H219     1.0000 0.59350  0.72720  0.28340  Biso   1.000  H
  H220     1.0000 0.53500  0.78180  0.25320  Biso   1.000  H
  C212     1.0000 0.67140  0.80650  0.23000  Biso   1.000  C
  H221     1.0000 0.71620  0.83290  0.23410  Biso   1.000  H
  H222     1.0000 0.62680  0.81970  0.19200  Biso   1.000  H
  H223     1.0000 0.68530  0.76510  0.22220  Biso   1.000  H
  C213     1.0000 0.62300  0.87550  0.30180  Biso   1.000  C
  H224     1.0000 0.66690  0.90270  0.30490  Biso   1.000  H
  H225     1.0000 0.60700  0.87940  0.34240  Biso   1.000  H
  H226     1.0000 0.57890  0.88580  0.26210  Biso   1.000  H
  C214     1.0000 0.04690  0.91250  0.69100  Biso   1.000  C
  H227     1.0000 0.06950  0.94980  0.70930  Biso   1.000  H
  C215     1.0000 0.00670  0.87770  0.73080  Biso   1.000  C
  C216     1.0000 0.01210  0.90200  0.79470  Biso   1.000  C
  H228     1.0000 0.04090  0.93810  0.80880  Biso   1.000  H
  C217     1.0000 0.97590  0.87450  0.83840  Biso   1.000  C
  C218     1.0000 0.93380  0.82250  0.81490  Biso   1.000  C
  H229     1.0000 0.90710  0.80390  0.84240  Biso   1.000  H
  C219     1.0000 0.92860  0.79580  0.75250  Biso   1.000  C
  C220     1.0000 0.96540  0.82400  0.70840  Biso   1.000  C
  C221     1.0000 0.88660  0.73830  0.73730  Biso   1.000  C
  H230     1.0000 0.85770  0.72660  0.76640  Biso   1.000  H
  C222     1.0000 0.97970  0.90070  0.90810  Biso   1.000  C
  C223     1.0000 0.99620  0.85060  0.96140  Biso   1.000  C
  H231     1.0000 0.95590  0.81940  0.94690  Biso   1.000  H
  H232     1.0000 0.99530  0.86740  0.00450  Biso   1.000  H
  H233     1.0000 0.04780  0.83300  0.96660  Biso   1.000  H
  C224     1.0000 0.89890  0.92820  0.90350  Biso   1.000  C
  H234     1.0000 0.88650  0.96050  0.86990  Biso   1.000  H
  H235     1.0000 0.90050  0.94460  0.94750  Biso   1.000  H
  H236     1.0000 0.85850  0.89700  0.89020  Biso   1.000  H
  C225     1.0000 0.04390  0.94920  0.93210  Biso   1.000  C
  H237     1.0000 0.03430  0.98160  0.89870  Biso   1.000  H
  H238     1.0000 0.09530  0.93120  0.93750  Biso   1.000  H
  H239     1.0000 0.04290  0.96560  0.97540  Biso   1.000  H
  C226     1.0000 0.18880  0.77790  0.58030  Biso   1.000  C
  H240     1.0000 0.23730  0.79000  0.57510  Biso   1.000  H
  C227     1.0000 0.18280  0.71590  0.60240  Biso   1.000  C
  C228     1.0000 0.24830  0.67870  0.60840  Biso   1.000  C
  H241     1.0000 0.29260  0.69600  0.59980  Biso   1.000  H
  C229     1.0000 0.25180  0.61880  0.62600  Biso   1.000  C
  C230     1.0000 0.18590  0.59580  0.64030  Biso   1.000  C
  H242     1.0000 0.18670  0.55500  0.65390  Biso   1.000  H
  C231     1.0000 0.11850  0.63050  0.63540  Biso   1.000  C
  C232     1.0000 0.11560  0.69160  0.61540  Biso   1.000  C
  C233     1.0000 0.05390  0.59990  0.65090  Biso   1.000  C
  H243     1.0000 0.06340  0.56030  0.66830  Biso   1.000  H
  C234     1.0000 0.32380  0.58030  0.62720  Biso   1.000  C
  C235     1.0000 0.31480  0.51490  0.64260  Biso   1.000  C
  H244     1.0000 0.26620  0.49910  0.61120  Biso   1.000  H
  H245     1.0000 0.31300  0.51100  0.68890  Biso   1.000  H
  H246     1.0000 0.35940  0.49200  0.63780  Biso   1.000  H
  C236     1.0000 0.39820  0.60730  0.67430  Biso   1.000  C
  H247     1.0000 0.40190  0.64960  0.66260  Biso   1.000  H
  H248     1.0000 0.44370  0.58540  0.66980  Biso   1.000  H
  H249     1.0000 0.39730  0.60430  0.72090  Biso   1.000  H
  C237     1.0000 0.33220  0.58120  0.55340  Biso   1.000  C
  H250     1.0000 0.33820  0.62270  0.54030  Biso   1.000  H
  H251     1.0000 0.28520  0.56360  0.52140  Biso   1.000  H
  H252     1.0000 0.37820  0.55770  0.55310  Biso   1.000  H
  C238     1.0000 0.15010  0.98080  0.51910  Biso   1.000  C
  C239     1.0000 0.22870  0.99360  0.55490  Biso   1.000  C
  H253     1.0000 0.25450  0.96960  0.59290  Biso   1.000  H
  C240     1.0000 0.27010  0.03990  0.53690  Biso   1.000  C
  H254     1.0000 0.32300  0.04670  0.56300  Biso   1.000  H
  C241     1.0000 0.23570  0.07670  0.48130  Biso   1.000  C
  C242     1.0000 0.15760  0.06390  0.44440  Biso   1.000  C
  H255     1.0000 0.13230  0.08750  0.40580  Biso   1.000  H
  C243     1.0000 0.11620  0.01740  0.46300  Biso   1.000  C
  H256     1.0000 0.06330  0.01040  0.43680  Biso   1.000  H
  C244     1.0000 0.27960  0.12760  0.46300  Biso   1.000  C
  C245     1.0000 0.36040  0.12490  0.47890  Biso   1.000  C
  H257     1.0000 0.38610  0.08970  0.50070  Biso   1.000  H
  C246     1.0000 0.40460  0.16910  0.46550  Biso   1.000  C
  H258     1.0000 0.46000  0.16570  0.47800  Biso   1.000  H
  C247     1.0000 0.28740  0.22380  0.41250  Biso   1.000  C
  H259     1.0000 0.26300  0.25830  0.38790  Biso   1.000  H
  C248     1.0000 0.24240  0.17800  0.42760  Biso   1.000  C
  H260     1.0000 0.18690  0.18120  0.41400  Biso   1.000  H
  C249     1.0000 0.80820  0.54210  0.66620  Biso   1.000  C
  C250     1.0000 0.77900  0.49490  0.62010  Biso   1.000  C
  H261     1.0000 0.78570  0.49750  0.57680  Biso   1.000  H
  C251     1.0000 0.74070  0.44470  0.63470  Biso   1.000  C
  H262     1.0000 0.72330  0.41380  0.60210  Biso   1.000  H
  C252     1.0000 0.72780  0.43970  0.69750  Biso   1.000  C
  C253     1.0000 0.75840  0.48480  0.74430  Biso   1.000  C
  H263     1.0000 0.75190  0.48220  0.78770  Biso   1.000  H
  C254     1.0000 0.79800  0.53300  0.72940  Biso   1.000  C
  H264     1.0000 0.81950  0.56180  0.76380  Biso   1.000  H
  C255     1.0000 0.68570  0.38200  0.70890  Biso   1.000  C
  C256     1.0000 0.63740  0.34740  0.65720  Biso   1.000  C
  H265     1.0000 0.62900  0.35860  0.61160  Biso   1.000  H
  C257     1.0000 0.60140  0.29630  0.67210  Biso   1.000  C
  H266     1.0000 0.56840  0.27270  0.63670  Biso   1.000  H
  N35      1.0000 0.61370  0.27990  0.73880  Biso   1.000  N
  C258     1.0000 0.66200  0.31440  0.79060  Biso   1.000  C
  H267     1.0000 0.67040  0.30320  0.83620  Biso   1.000  H
  C259     1.0000 0.69800  0.36550  0.77570  Biso   1.000  C
  H268     1.0000 0.73100  0.38910  0.81110  Biso   1.000  H
  C260     1.0000 0.67160  0.40090  0.72270  Biso   1.000  C
  C261     1.0000 0.59390  0.39550  0.68300  Biso   1.000  C
  H269     1.0000 0.57460  0.41890  0.64320  Biso   1.000  H
  C262     1.0000 0.54440  0.35580  0.70150  Biso   1.000  C
  H270     1.0000 0.49130  0.35210  0.67440  Biso   1.000  H
  N36      1.0000 0.57260  0.32160  0.75970  Biso   1.000  N
  C263     1.0000 0.65030  0.32700  0.79940  Biso   1.000  C
  H271     1.0000 0.66960  0.30350  0.83910  Biso   1.000  H
  C264     1.0000 0.69980  0.36660  0.78090  Biso   1.000  C
  H272     1.0000 0.75290  0.37030  0.80800  Biso   1.000  H
