data_image0
_cell_length_a       11.9109
_cell_length_b       14.3578
_cell_length_c       22.283
_cell_angle_alpha    90
_cell_angle_beta     113.733
_cell_angle_gamma    90

_symmetry_space_group_name_H-M    "P 1"
_symmetry_int_tables_number       1

loop_
  _symmetry_equiv_pos_as_xyz
  'x, y, z'

loop_
  _atom_site_label
  _atom_site_occupancy
  _atom_site_fract_x
  _atom_site_fract_y
  _atom_site_fract_z
  _atom_site_thermal_displace_type
  _atom_site_B_iso_or_equiv
  _atom_site_type_symbol
  Co1      1.0000 0.01772  0.78927  0.77255  Biso   1.000  Co
  Co2      1.0000 0.81761  0.66455  0.80310  Biso   1.000  Co
  Co3      1.0000 0.18628  0.92465  0.72939  Biso   1.000  Co
  O1       1.0000 0.88640  0.87519  0.77436  Biso   1.000  O
  O2       1.0000 0.75350  0.79477  0.80194  Biso   1.000  O
  O3       1.0000 0.74330  0.28836  0.77143  Biso   1.000  O
  O4       1.0000 0.86160  0.20007  0.73751  Biso   1.000  O
  O5       1.0000 0.37150  0.96968  0.77531  Biso   1.000  O
  O6       1.0000 0.36290  0.12307  0.75445  Biso   1.000  O
  O7       1.0000 0.18760  0.39501  0.11693  Biso   1.000  O
  O8       1.0000 0.18940  0.54947  0.13532  Biso   1.000  O
  O9       1.0000 0.99840  0.36112  0.81700  Biso   1.000  O
  O10      1.0000 0.15970  0.28690  0.89380  Biso   1.000  O
  O11      1.0000 0.00880  0.71008  0.85124  Biso   1.000  O
  O12      1.0000 0.13070  0.76320  0.94740  Biso   1.000  O
  O13      1.0000 0.13440  0.05123  0.84514  Biso   1.000  O
  O14      1.0000 0.15030  0.89220  0.81261  Biso   1.000  O
  O15      1.0000 0.11920  0.93310  0.91050  Biso   1.000  O
  H1       1.0000 0.11320  0.87650  0.91300  Biso   1.000  H
  O16      1.0000 0.12510  0.05714  0.73555  Biso   1.000  O
  O17      1.0000 0.12740  0.19344  0.79118  Biso   1.000  O
  B1       1.0000 0.14070  0.95470  0.85520  Biso   1.000  B
  B2       1.0000 0.12800  0.09640  0.79050  Biso   1.000  B
  C1       1.0000 0.79350  0.86810  0.78698  Biso   1.000  C
  C2       1.0000 0.77900  0.21190  0.75871  Biso   1.000  C
  C3       1.0000 0.41630  0.04630  0.76740  Biso   1.000  C
  C4       1.0000 0.72560  0.95810  0.78261  Biso   1.000  C
  C5       1.0000 0.77840  0.04050  0.77418  Biso   1.000  C
  H2       1.0000 0.85560  0.03920  0.77300  Biso   1.000  H
  C6       1.0000 0.71790  0.12460  0.76749  Biso   1.000  C
  C7       1.0000 0.60230  0.12630  0.76711  Biso   1.000  C
  H3       1.0000 0.56110  0.18270  0.76220  Biso   1.000  H
  C8       1.0000 0.54640  0.04470  0.77395  Biso   1.000  C
  C9       1.0000 0.60900  0.95970  0.78225  Biso   1.000  C
  H4       1.0000 0.57250  0.90480  0.78750  Biso   1.000  H
  C10      1.0000 0.17980  0.47900  0.09978  Biso   1.000  C
  C11      1.0000 0.08310  0.35480  0.87477  Biso   1.000  C
  C12      1.0000 0.08780  0.69680  0.90913  Biso   1.000  C
  C13      1.0000 0.15600  0.49630  0.02898  Biso   1.000  C
  C14      1.0000 0.13990  0.58620  0.00332  Biso   1.000  C
  H5       1.0000 0.15180  0.63710  0.03110  Biso   1.000  H
  C15      1.0000 0.10610  0.60070  0.93664  Biso   1.000  C
  C16      1.0000 0.08830  0.52440  0.89545  Biso   1.000  C
  H6       1.0000 0.06510  0.53370  0.85070  Biso   1.000  H
  C17      1.0000 0.10480  0.43450  0.92035  Biso   1.000  C
  C18      1.0000 0.14050  0.42090  0.98699  Biso   1.000  C
  H7       1.0000 0.15440  0.36070  0.00390  Biso   1.000  H
  O18      1.0000 0.11500  0.27790  0.89550  Biso   1.000  O
  O19      1.0000 0.17730  0.75110  0.94110  Biso   1.000  O
  O20      1.0000 0.17300  0.93220  0.91680  Biso   1.000  O
  H8       1.0000 0.19170  0.87690  0.92200  Biso   1.000  H
  In1      1.0000 0.81372  0.42465  0.77061  Biso   1.000  In
  Co4      1.0000 0.98228  0.28927  0.72745  Biso   1.000  Co
  Co5      1.0000 0.18239  0.16455  0.69690  Biso   1.000  Co
  O21      1.0000 0.11360  0.37519  0.72564  Biso   1.000  O
  O22      1.0000 0.24650  0.29477  0.69806  Biso   1.000  O
  O23      1.0000 0.25670  0.78836  0.72857  Biso   1.000  O
  O24      1.0000 0.13840  0.70007  0.76249  Biso   1.000  O
  O25      1.0000 0.62850  0.46968  0.72469  Biso   1.000  O
  O26      1.0000 0.63710  0.62307  0.74555  Biso   1.000  O
  O27      1.0000 0.81240  0.89501  0.38307  Biso   1.000  O
  O28      1.0000 0.81060  0.04947  0.36468  Biso   1.000  O
  O29      1.0000 0.00160  0.86112  0.68300  Biso   1.000  O
  O30      1.0000 0.84030  0.78690  0.60620  Biso   1.000  O
  O31      1.0000 0.99120  0.21008  0.64876  Biso   1.000  O
  O32      1.0000 0.86930  0.26320  0.55260  Biso   1.000  O
  O33      1.0000 0.86560  0.55123  0.65486  Biso   1.000  O
  O34      1.0000 0.84970  0.39220  0.68739  Biso   1.000  O
  O35      1.0000 0.88080  0.43310  0.58950  Biso   1.000  O
  H9       1.0000 0.88680  0.37650  0.58700  Biso   1.000  H
  O36      1.0000 0.87490  0.55714  0.76445  Biso   1.000  O
  O37      1.0000 0.87260  0.69344  0.70882  Biso   1.000  O
  B3       1.0000 0.85930  0.45470  0.64480  Biso   1.000  B
  B4       1.0000 0.87200  0.59640  0.70950  Biso   1.000  B
  C19      1.0000 0.20650  0.36810  0.71302  Biso   1.000  C
  C20      1.0000 0.22100  0.71190  0.74129  Biso   1.000  C
  C21      1.0000 0.58370  0.54630  0.73260  Biso   1.000  C
  C22      1.0000 0.27440  0.45810  0.71739  Biso   1.000  C
  C23      1.0000 0.22160  0.54050  0.72582  Biso   1.000  C
  H10      1.0000 0.14440  0.53920  0.72700  Biso   1.000  H
  C24      1.0000 0.28210  0.62460  0.73251  Biso   1.000  C
  C25      1.0000 0.39770  0.62630  0.73289  Biso   1.000  C
  H11      1.0000 0.43890  0.68270  0.73780  Biso   1.000  H
  C26      1.0000 0.45360  0.54470  0.72605  Biso   1.000  C
  C27      1.0000 0.39100  0.45970  0.71775  Biso   1.000  C
  H12      1.0000 0.42750  0.40480  0.71250  Biso   1.000  H
  C28      1.0000 0.82020  0.97900  0.40022  Biso   1.000  C
  C29      1.0000 0.91690  0.85480  0.62523  Biso   1.000  C
  C30      1.0000 0.91220  0.19680  0.59087  Biso   1.000  C
  C31      1.0000 0.84400  0.99630  0.47102  Biso   1.000  C
  C32      1.0000 0.86010  0.08620  0.49668  Biso   1.000  C
  H13      1.0000 0.84820  0.13710  0.46890  Biso   1.000  H
  C33      1.0000 0.89390  0.10070  0.56336  Biso   1.000  C
  C34      1.0000 0.91170  0.02440  0.60455  Biso   1.000  C
  H14      1.0000 0.93490  0.03370  0.64930  Biso   1.000  H
  C35      1.0000 0.89520  0.93450  0.57965  Biso   1.000  C
  C36      1.0000 0.85950  0.92090  0.51301  Biso   1.000  C
  H15      1.0000 0.84560  0.86070  0.49610  Biso   1.000  H
  O38      1.0000 0.88500  0.77790  0.60450  Biso   1.000  O
  O39      1.0000 0.82270  0.25110  0.55890  Biso   1.000  O
  O40      1.0000 0.82700  0.43220  0.58320  Biso   1.000  O
  H16      1.0000 0.80830  0.37690  0.57800  Biso   1.000  H
  Co6      1.0000 0.98228  0.21073  0.22745  Biso   1.000  Co
  Co7      1.0000 0.18239  0.33545  0.19690  Biso   1.000  Co
  Co8      1.0000 0.81372  0.07535  0.27061  Biso   1.000  Co
  O41      1.0000 0.11360  0.12481  0.22564  Biso   1.000  O
  O42      1.0000 0.24650  0.20523  0.19806  Biso   1.000  O
  O43      1.0000 0.25670  0.71164  0.22857  Biso   1.000  O
  O44      1.0000 0.13840  0.79993  0.26249  Biso   1.000  O
  O45      1.0000 0.62850  0.03032  0.22469  Biso   1.000  O
  O46      1.0000 0.63710  0.87693  0.24555  Biso   1.000  O
  O47      1.0000 0.81240  0.60499  0.88307  Biso   1.000  O
  O48      1.0000 0.81060  0.45053  0.86468  Biso   1.000  O
  O49      1.0000 0.00160  0.63888  0.18300  Biso   1.000  O
  O50      1.0000 0.84030  0.71310  0.10620  Biso   1.000  O
  O51      1.0000 0.99120  0.28992  0.14876  Biso   1.000  O
  O52      1.0000 0.86930  0.23680  0.05260  Biso   1.000  O
  O53      1.0000 0.86560  0.94877  0.15486  Biso   1.000  O
  O54      1.0000 0.84970  0.10780  0.18739  Biso   1.000  O
  O55      1.0000 0.88080  0.06690  0.08950  Biso   1.000  O
  H17      1.0000 0.88680  0.12350  0.08700  Biso   1.000  H
  O56      1.0000 0.87490  0.94286  0.26445  Biso   1.000  O
  O57      1.0000 0.87260  0.80656  0.20882  Biso   1.000  O
  B5       1.0000 0.85930  0.04530  0.14480  Biso   1.000  B
  B6       1.0000 0.87200  0.90360  0.20950  Biso   1.000  B
  C37      1.0000 0.20650  0.13190  0.21302  Biso   1.000  C
  C38      1.0000 0.22100  0.78810  0.24129  Biso   1.000  C
  C39      1.0000 0.58370  0.95370  0.23260  Biso   1.000  C
  C40      1.0000 0.27440  0.04190  0.21739  Biso   1.000  C
  C41      1.0000 0.22160  0.95950  0.22582  Biso   1.000  C
  H18      1.0000 0.14440  0.96080  0.22700  Biso   1.000  H
  C42      1.0000 0.28210  0.87540  0.23251  Biso   1.000  C
  C43      1.0000 0.39770  0.87370  0.23289  Biso   1.000  C
  H19      1.0000 0.43890  0.81730  0.23780  Biso   1.000  H
  C44      1.0000 0.45360  0.95530  0.22605  Biso   1.000  C
  C45      1.0000 0.39100  0.04030  0.21775  Biso   1.000  C
  H20      1.0000 0.42750  0.09520  0.21250  Biso   1.000  H
  C46      1.0000 0.82020  0.52100  0.90022  Biso   1.000  C
  C47      1.0000 0.91690  0.64520  0.12523  Biso   1.000  C
  C48      1.0000 0.91220  0.30320  0.09087  Biso   1.000  C
  C49      1.0000 0.84400  0.50370  0.97102  Biso   1.000  C
  C50      1.0000 0.86010  0.41380  0.99668  Biso   1.000  C
  H21      1.0000 0.84820  0.36290  0.96890  Biso   1.000  H
  C51      1.0000 0.89390  0.39930  0.06336  Biso   1.000  C
  C52      1.0000 0.91170  0.47560  0.10455  Biso   1.000  C
  H22      1.0000 0.93490  0.46630  0.14930  Biso   1.000  H
  C53      1.0000 0.89520  0.56550  0.07965  Biso   1.000  C
  C54      1.0000 0.85950  0.57910  0.01301  Biso   1.000  C
  H23      1.0000 0.84560  0.63930  0.99610  Biso   1.000  H
  O58      1.0000 0.88500  0.72210  0.10450  Biso   1.000  O
  O59      1.0000 0.82270  0.24890  0.05890  Biso   1.000  O
  O60      1.0000 0.82700  0.06780  0.08320  Biso   1.000  O
  H24      1.0000 0.80830  0.12310  0.07800  Biso   1.000  H
  In2      1.0000 0.18628  0.57535  0.22939  Biso   1.000  In
  Co9      1.0000 0.01772  0.71073  0.27255  Biso   1.000  Co
  Co10     1.0000 0.81761  0.83545  0.30310  Biso   1.000  Co
  O61      1.0000 0.88640  0.62481  0.27436  Biso   1.000  O
  O62      1.0000 0.75350  0.70523  0.30194  Biso   1.000  O
  O63      1.0000 0.74330  0.21164  0.27143  Biso   1.000  O
  O64      1.0000 0.86160  0.29993  0.23751  Biso   1.000  O
  O65      1.0000 0.37150  0.53032  0.27531  Biso   1.000  O
  O66      1.0000 0.36290  0.37693  0.25445  Biso   1.000  O
  O67      1.0000 0.18760  0.10499  0.61693  Biso   1.000  O
  O68      1.0000 0.18940  0.95053  0.63532  Biso   1.000  O
  O69      1.0000 0.99840  0.13888  0.31700  Biso   1.000  O
  O70      1.0000 0.15970  0.21310  0.39380  Biso   1.000  O
  O71      1.0000 0.00880  0.78992  0.35124  Biso   1.000  O
  O72      1.0000 0.13070  0.73680  0.44740  Biso   1.000  O
  O73      1.0000 0.13440  0.44877  0.34514  Biso   1.000  O
  O74      1.0000 0.15030  0.60780  0.31261  Biso   1.000  O
  O75      1.0000 0.11920  0.56690  0.41050  Biso   1.000  O
  H25      1.0000 0.11320  0.62350  0.41300  Biso   1.000  H
  O76      1.0000 0.12510  0.44286  0.23555  Biso   1.000  O
  O77      1.0000 0.12740  0.30656  0.29118  Biso   1.000  O
  B7       1.0000 0.14070  0.54530  0.35520  Biso   1.000  B
  B8       1.0000 0.12800  0.40360  0.29050  Biso   1.000  B
  C55      1.0000 0.79350  0.63190  0.28698  Biso   1.000  C
  C56      1.0000 0.77900  0.28810  0.25871  Biso   1.000  C
  C57      1.0000 0.41630  0.45370  0.26740  Biso   1.000  C
  C58      1.0000 0.72560  0.54190  0.28261  Biso   1.000  C
  C59      1.0000 0.77840  0.45950  0.27418  Biso   1.000  C
  H26      1.0000 0.85560  0.46080  0.27300  Biso   1.000  H
  C60      1.0000 0.71790  0.37540  0.26749  Biso   1.000  C
  C61      1.0000 0.60230  0.37370  0.26711  Biso   1.000  C
  H27      1.0000 0.56110  0.31730  0.26220  Biso   1.000  H
  C62      1.0000 0.54640  0.45530  0.27395  Biso   1.000  C
  C63      1.0000 0.60900  0.54030  0.28225  Biso   1.000  C
  H28      1.0000 0.57250  0.59520  0.28750  Biso   1.000  H
  C64      1.0000 0.17980  0.02100  0.59978  Biso   1.000  C
  C65      1.0000 0.08310  0.14520  0.37477  Biso   1.000  C
  C66      1.0000 0.08780  0.80320  0.40913  Biso   1.000  C
  C67      1.0000 0.15600  0.00370  0.52898  Biso   1.000  C
  C68      1.0000 0.13990  0.91380  0.50332  Biso   1.000  C
  H29      1.0000 0.15180  0.86290  0.53110  Biso   1.000  H
  C69      1.0000 0.10610  0.89930  0.43664  Biso   1.000  C
  C70      1.0000 0.08830  0.97560  0.39545  Biso   1.000  C
  H30      1.0000 0.06510  0.96630  0.35070  Biso   1.000  H
  C71      1.0000 0.10480  0.06550  0.42035  Biso   1.000  C
  C72      1.0000 0.14050  0.07910  0.48699  Biso   1.000  C
  H31      1.0000 0.15440  0.13930  0.50390  Biso   1.000  H
  O78      1.0000 0.11500  0.22210  0.39550  Biso   1.000  O
  O79      1.0000 0.17730  0.74890  0.44110  Biso   1.000  O
  O80      1.0000 0.17300  0.56780  0.41680  Biso   1.000  O
  H32      1.0000 0.19170  0.62310  0.42200  Biso   1.000  H
