data_image0
_cell_length_a       10.2909
_cell_length_b       10.655
_cell_length_c       11.4221
_cell_angle_alpha    79.594
_cell_angle_beta     75.334
_cell_angle_gamma    61.906

_symmetry_space_group_name_H-M    "P 1"
_symmetry_int_tables_number       1

loop_
  _symmetry_equiv_pos_as_xyz
  'x, y, z'

loop_
  _atom_site_label
  _atom_site_occupancy
  _atom_site_fract_x
  _atom_site_fract_y
  _atom_site_fract_z
  _atom_site_thermal_displace_type
  _atom_site_B_iso_or_equiv
  _atom_site_type_symbol
  Mn1      1.0000 0.55889  0.35795  0.19134  Biso   1.000  Mn
  N1       1.0000 0.35330  0.33290  0.27490  Biso   1.000  N
  N2       1.0000 0.98950  0.13590  0.49870  Biso   1.000  N
  O1       1.0000 0.51740  0.34890  0.01690  Biso   1.000  O
  O2       1.0000 0.54690  0.41880  0.82150  Biso   1.000  O
  O3       1.0000 0.19260  0.73030  0.86520  Biso   1.000  O
  O4       1.0000 0.28870  0.87870  0.78640  Biso   1.000  O
  O5       1.0000 0.84600  0.36240  0.43280  Biso   1.000  O
  C1       1.0000 0.49710  0.10080  0.90570  Biso   1.000  C
  H1       1.0000 0.49450  0.16870  0.84130  Biso   1.000  H
  C2       1.0000 0.62230  0.03260  0.96090  Biso   1.000  C
  C3       1.0000 0.62180  0.93100  0.05500  Biso   1.000  C
  H2       1.0000 0.70450  0.88300  0.09260  Biso   1.000  H
  C4       1.0000 0.58810  0.33310  0.91030  Biso   1.000  C
  C5       1.0000 0.17690  0.85480  0.83260  Biso   1.000  C
  C6       1.0000 0.73730  0.20360  0.88570  Biso   1.000  C
  C7       1.0000 0.75370  0.06510  0.91590  Biso   1.000  C
  C8       1.0000 0.89870  0.95330  0.89840  Biso   1.000  C
  H3       1.0000 0.91170  0.86030  0.91960  Biso   1.000  H
  C9       1.0000 0.02340  0.97680  0.85030  Biso   1.000  C
  C10      1.0000 0.00530  0.11520  0.81740  Biso   1.000  C
  H4       1.0000 0.08820  0.13250  0.78430  Biso   1.000  H
  C11      1.0000 0.86210  0.22680  0.83450  Biso   1.000  C
  H5       1.0000 0.84920  0.31960  0.81110  Biso   1.000  H
  C12      1.0000 0.26400  0.39300  0.38000  Biso   1.000  C
  H6       1.0000 0.28460  0.45410  0.41270  Biso   1.000  H
  C13      1.0000 0.14600  0.36700  0.43910  Biso   1.000  C
  H7       1.0000 0.09090  0.40420  0.51360  Biso   1.000  H
  C14      1.0000 0.10660  0.28100  0.38290  Biso   1.000  C
  C15      1.0000 0.20290  0.21800  0.28390  Biso   1.000  C
  H8       1.0000 0.18790  0.15410  0.24960  Biso   1.000  H
  C16      1.0000 0.32290  0.24600  0.23200  Biso   1.000  C
  H9       1.0000 0.38630  0.20000  0.16280  Biso   1.000  H
  C17      1.0000 0.97120  0.26070  0.44060  Biso   1.000  C
  C18      1.0000 0.86170  0.10700  0.55810  Biso   1.000  C
  H10      1.0000 0.76860  0.19290  0.55310  Biso   1.000  H
  H11      1.0000 0.86570  0.07740  0.64300  Biso   1.000  H
  C19      1.0000 0.13330  0.00710  0.50260  Biso   1.000  C
  H12      1.0000 0.14370  0.97500  0.58620  Biso   1.000  H
  H13      1.0000 0.21590  0.02900  0.46210  Biso   1.000  H
  C20      1.0000 0.30100  0.33200  0.39000  Biso   1.000  C
  H14      1.0000 0.34270  0.35620  0.44000  Biso   1.000  H
  C21      1.0000 0.18200  0.29700  0.44200  Biso   1.000  C
  H15      1.0000 0.15870  0.28430  0.52650  Biso   1.000  H
  C22      1.0000 0.13900  0.30800  0.25050  Biso   1.000  C
  H16      1.0000 0.07760  0.31170  0.20170  Biso   1.000  H
  C23      1.0000 0.26400  0.32800  0.20250  Biso   1.000  C
  H17      1.0000 0.29160  0.33970  0.11860  Biso   1.000  H
  Mn2      1.0000 0.44111  0.64205  0.80866  Biso   1.000  Mn
  N3       1.0000 0.64670  0.66710  0.72510  Biso   1.000  N
  N4       1.0000 0.01050  0.86410  0.50130  Biso   1.000  N
  O6       1.0000 0.48260  0.65110  0.98310  Biso   1.000  O
  O7       1.0000 0.45310  0.58120  0.17850  Biso   1.000  O
  O8       1.0000 0.80740  0.26970  0.13480  Biso   1.000  O
  O9       1.0000 0.71130  0.12130  0.21360  Biso   1.000  O
  O10      1.0000 0.15400  0.63760  0.56720  Biso   1.000  O
  C24      1.0000 0.50290  0.89920  0.09430  Biso   1.000  C
  H18      1.0000 0.50550  0.83130  0.15870  Biso   1.000  H
  C25      1.0000 0.37770  0.96740  0.03910  Biso   1.000  C
  C26      1.0000 0.37820  0.06900  0.94500  Biso   1.000  C
  H19      1.0000 0.29550  0.11700  0.90740  Biso   1.000  H
  C27      1.0000 0.41190  0.66690  0.08970  Biso   1.000  C
  C28      1.0000 0.82310  0.14520  0.16740  Biso   1.000  C
  C29      1.0000 0.26270  0.79640  0.11430  Biso   1.000  C
  C30      1.0000 0.24630  0.93490  0.08410  Biso   1.000  C
  C31      1.0000 0.10130  0.04670  0.10160  Biso   1.000  C
  H20      1.0000 0.08830  0.13970  0.08040  Biso   1.000  H
  C32      1.0000 0.97660  0.02320  0.14970  Biso   1.000  C
  C33      1.0000 0.99470  0.88480  0.18260  Biso   1.000  C
  H21      1.0000 0.91180  0.86750  0.21570  Biso   1.000  H
  C34      1.0000 0.13790  0.77320  0.16550  Biso   1.000  C
  H22      1.0000 0.15080  0.68040  0.18890  Biso   1.000  H
  C35      1.0000 0.73600  0.60700  0.62000  Biso   1.000  C
  H23      1.0000 0.71540  0.54590  0.58730  Biso   1.000  H
  C36      1.0000 0.85400  0.63300  0.56090  Biso   1.000  C
  H24      1.0000 0.90910  0.59580  0.48640  Biso   1.000  H
  C37      1.0000 0.89340  0.71900  0.61710  Biso   1.000  C
  C38      1.0000 0.79710  0.78200  0.71610  Biso   1.000  C
  H25      1.0000 0.81210  0.84590  0.75040  Biso   1.000  H
  C39      1.0000 0.67710  0.75400  0.76800  Biso   1.000  C
  H26      1.0000 0.61370  0.80000  0.83720  Biso   1.000  H
  C40      1.0000 0.02880  0.73930  0.55940  Biso   1.000  C
  C41      1.0000 0.13830  0.89300  0.44190  Biso   1.000  C
  H27      1.0000 0.23140  0.80710  0.44690  Biso   1.000  H
  H28      1.0000 0.13430  0.92260  0.35700  Biso   1.000  H
  C42      1.0000 0.86670  0.99290  0.49740  Biso   1.000  C
  H29      1.0000 0.85630  0.02500  0.41380  Biso   1.000  H
  H30      1.0000 0.78410  0.97100  0.53790  Biso   1.000  H
  C43      1.0000 0.69900  0.66800  0.61000  Biso   1.000  C
  H31      1.0000 0.65730  0.64380  0.56000  Biso   1.000  H
  C44      1.0000 0.81800  0.70300  0.55800  Biso   1.000  C
  H32      1.0000 0.84130  0.71570  0.47350  Biso   1.000  H
  C45      1.0000 0.86100  0.69200  0.74950  Biso   1.000  C
  H33      1.0000 0.92240  0.68830  0.79830  Biso   1.000  H
  C46      1.0000 0.73600  0.67200  0.79750  Biso   1.000  C
  H34      1.0000 0.70840  0.66030  0.88140  Biso   1.000  H
