data_image0
_cell_length_a       15.269
_cell_length_b       15.269
_cell_length_c       10.336
_cell_angle_alpha    90
_cell_angle_beta     90
_cell_angle_gamma    120

_symmetry_space_group_name_H-M    "P 1"
_symmetry_int_tables_number       1

loop_
  _symmetry_equiv_pos_as_xyz
  'x, y, z'

loop_
  _atom_site_label
  _atom_site_occupancy
  _atom_site_fract_x
  _atom_site_fract_y
  _atom_site_fract_z
  _atom_site_thermal_displace_type
  _atom_site_B_iso_or_equiv
  _atom_site_type_symbol
  O1       1.0000 0.15562  0.47295  0.06114  Biso   1.000  O
  P1       1.0000 0.10779  0.52766  0.68915  Biso   1.000  P
  O2       1.0000 0.52705  0.68267  0.06114  Biso   1.000  O
  P2       1.0000 0.47234  0.58013  0.68915  Biso   1.000  P
  O3       1.0000 0.31733  0.84438  0.06114  Biso   1.000  O
  P3       1.0000 0.41987  0.89221  0.68915  Biso   1.000  P
  O4       1.0000 0.84438  0.52705  0.56114  Biso   1.000  O
  P4       1.0000 0.89221  0.47234  0.18915  Biso   1.000  P
  O5       1.0000 0.47295  0.31733  0.56114  Biso   1.000  O
  P5       1.0000 0.52766  0.41987  0.18915  Biso   1.000  P
  O6       1.0000 0.68267  0.15562  0.56114  Biso   1.000  O
  P6       1.0000 0.58013  0.10779  0.18915  Biso   1.000  P
  O7       1.0000 0.52705  0.84438  0.06114  Biso   1.000  O
  P7       1.0000 0.47234  0.89221  0.68915  Biso   1.000  P
  O8       1.0000 0.31733  0.47295  0.06114  Biso   1.000  O
  P8       1.0000 0.41987  0.52766  0.68915  Biso   1.000  P
  O9       1.0000 0.15562  0.68267  0.06114  Biso   1.000  O
  P9       1.0000 0.10779  0.58013  0.68915  Biso   1.000  P
  O10      1.0000 0.47295  0.15562  0.56114  Biso   1.000  O
  P10      1.0000 0.52766  0.10779  0.18915  Biso   1.000  P
  O11      1.0000 0.68267  0.52705  0.56114  Biso   1.000  O
  P11      1.0000 0.58013  0.47234  0.18915  Biso   1.000  P
  O12      1.0000 0.84438  0.31733  0.56114  Biso   1.000  O
  P12      1.0000 0.89221  0.41987  0.18915  Biso   1.000  P
  Zn1      1.0000 0.08602  0.54301  0.99905  Biso   1.000  Zn
  O13      1.0000 0.05766  0.52883  0.81528  Biso   1.000  O
  O14      1.0000 0.04752  0.52376  0.57061  Biso   1.000  O
  O15      1.0000 0.21700  0.60850  0.67146  Biso   1.000  O
  Zn2      1.0000 0.45699  0.54301  0.99905  Biso   1.000  Zn
  O16      1.0000 0.47117  0.52883  0.81528  Biso   1.000  O
  O17      1.0000 0.47624  0.52376  0.57061  Biso   1.000  O
  O18      1.0000 0.39150  0.60850  0.67146  Biso   1.000  O
  Zn3      1.0000 0.45699  0.91398  0.99905  Biso   1.000  Zn
  O19      1.0000 0.47117  0.94234  0.81528  Biso   1.000  O
  O20      1.0000 0.47624  0.95248  0.57061  Biso   1.000  O
  O21      1.0000 0.39150  0.78300  0.67146  Biso   1.000  O
  Zn4      1.0000 0.91398  0.45699  0.49905  Biso   1.000  Zn
  O22      1.0000 0.94234  0.47117  0.31528  Biso   1.000  O
  O23      1.0000 0.95248  0.47624  0.07061  Biso   1.000  O
  O24      1.0000 0.78300  0.39150  0.17146  Biso   1.000  O
  Zn5      1.0000 0.54301  0.45699  0.49905  Biso   1.000  Zn
  O25      1.0000 0.52883  0.47117  0.31528  Biso   1.000  O
  O26      1.0000 0.52376  0.47624  0.07061  Biso   1.000  O
  O27      1.0000 0.60850  0.39150  0.17146  Biso   1.000  O
  Zn6      1.0000 0.54301  0.08602  0.49905  Biso   1.000  Zn
  O28      1.0000 0.52883  0.05766  0.31528  Biso   1.000  O
  O29      1.0000 0.52376  0.04752  0.07061  Biso   1.000  O
  O30      1.0000 0.60850  0.21700  0.17146  Biso   1.000  O
  Al1      1.0000 0.33333  0.66667  0.77877  Biso   1.000  Al
  Al2      1.0000 0.66667  0.33333  0.27877  Biso   1.000  Al
  P13      1.0000 0.23546  0.47092  0.98042  Biso   1.000  P
  O31      1.0000 0.27444  0.54888  0.87825  Biso   1.000  O
  P14      1.0000 0.52908  0.76454  0.98042  Biso   1.000  P
  O32      1.0000 0.45112  0.72556  0.87825  Biso   1.000  O
  P15      1.0000 0.23546  0.76454  0.98042  Biso   1.000  P
  O33      1.0000 0.27444  0.72556  0.87825  Biso   1.000  O
  P16      1.0000 0.76454  0.52908  0.48042  Biso   1.000  P
  O34      1.0000 0.72556  0.45112  0.37825  Biso   1.000  O
  P17      1.0000 0.47092  0.23546  0.48042  Biso   1.000  P
  O35      1.0000 0.54888  0.27444  0.37825  Biso   1.000  O
  P18      1.0000 0.76454  0.23546  0.48042  Biso   1.000  P
  O36      1.0000 0.72556  0.27444  0.37825  Biso   1.000  O
