data_image0
_cell_length_a       8.464
_cell_length_b       7.613
_cell_length_c       13.176
_cell_angle_alpha    90
_cell_angle_beta     90.482
_cell_angle_gamma    90

_symmetry_space_group_name_H-M    "P 1"
_symmetry_int_tables_number       1

loop_
  _symmetry_equiv_pos_as_xyz
  'x, y, z'

loop_
  _atom_site_label
  _atom_site_occupancy
  _atom_site_fract_x
  _atom_site_fract_y
  _atom_site_fract_z
  _atom_site_thermal_displace_type
  _atom_site_B_iso_or_equiv
  _atom_site_type_symbol
  C1       1.0000 0.94790  0.82870  0.61187  Biso   1.000  C
  N1       1.0000 0.99920  0.70850  0.57218  Biso   1.000  N
  C2       1.0000 0.92370  0.66150  0.11554  Biso   1.000  C
  N2       1.0000 0.96970  0.78500  0.07640  Biso   1.000  N
  C3       1.0000 0.59540  0.39730  0.47620  Biso   1.000  C
  H1       1.0000 0.60360  0.29060  0.43490  Biso   1.000  H
  H2       1.0000 0.64140  0.37560  0.54350  Biso   1.000  H
  H3       1.0000 0.65270  0.49320  0.44310  Biso   1.000  H
  C4       1.0000 0.43170  0.44510  0.48630  Biso   1.000  C
  N3       1.0000 0.30210  0.48290  0.49440  Biso   1.000  N
  C5       1.0000 0.53040  0.21190  0.03800  Biso   1.000  C
  H4       1.0000 0.52740  0.31800  0.99590  Biso   1.000  H
  H5       1.0000 0.62350  0.14190  0.02060  Biso   1.000  H
  H6       1.0000 0.53610  0.24530  0.10970  Biso   1.000  H
  C6       1.0000 0.38970  0.11000  0.01990  Biso   1.000  C
  N4       1.0000 0.27830  0.02900  0.00550  Biso   1.000  N
  C7       1.0000 0.69018  0.00869  0.66041  Biso   1.000  C
  C8       1.0000 0.60914  0.12350  0.72330  Biso   1.000  C
  H7       1.0000 0.66590  0.19710  0.76910  Biso   1.000  H
  C9       1.0000 0.44512  0.13070  0.71940  Biso   1.000  C
  H8       1.0000 0.38970  0.20920  0.76240  Biso   1.000  H
  C10      1.0000 0.36211  0.02300  0.65251  Biso   1.000  C
  H9       1.0000 0.25000  0.02780  0.64980  Biso   1.000  H
  C11      1.0000 0.44315  0.09190  0.58960  Biso   1.000  C
  H10      1.0000 0.38640  0.16550  0.54390  Biso   1.000  H
  C12      1.0000 0.60718  0.90100  0.59350  Biso   1.000  C
  H11      1.0000 0.66260  0.82250  0.55050  Biso   1.000  H
  C13      1.0000 0.66549  0.48663  0.18011  Biso   1.000  C
  C14      1.0000 0.59430  0.34970  0.23240  Biso   1.000  C
  H12      1.0000 0.65760  0.26410  0.26600  Biso   1.000  H
  C15      1.0000 0.43053  0.33780  0.23560  Biso   1.000  C
  H13      1.0000 0.38190  0.24420  0.27130  Biso   1.000  H
  C16      1.0000 0.33797  0.46300  0.18641  Biso   1.000  C
  H14      1.0000 0.22600  0.45490  0.18860  Biso   1.000  H
  C17      1.0000 0.40916  0.40010  0.13412  Biso   1.000  C
  H15      1.0000 0.34590  0.31450  0.10050  Biso   1.000  H
  C18      1.0000 0.57292  0.38820  0.13097  Biso   1.000  C
  H16      1.0000 0.62160  0.29460  0.09520  Biso   1.000  H
  C19      1.0000 0.56120  0.12000  0.96930  Biso   1.000  C
  H17      1.0000 0.62410  0.01970  0.94700  Biso   1.000  H
  H18      1.0000 0.61040  0.17280  0.02970  Biso   1.000  H
  H19      1.0000 0.55630  0.20810  0.91490  Biso   1.000  H
  C20      1.0000 0.40380  0.06300  0.99320  Biso   1.000  C
  N5       1.0000 0.27920  0.01700  0.01210  Biso   1.000  N
  C21      1.0000 0.56300  0.97400  0.08350  Biso   1.000  C
  H20      1.0000 0.60440  0.09110  0.09860  Biso   1.000  H
  H21      1.0000 0.63080  0.91610  0.03360  Biso   1.000  H
  H22      1.0000 0.56150  0.90370  0.14600  Biso   1.000  H
  C22      1.0000 0.40490  0.98800  0.04320  Biso   1.000  C
  C23      1.0000 0.57280  0.05100  0.96960  Biso   1.000  C
  H23      1.0000 0.62350  0.06500  0.96710  Biso   1.000  H
  H24      1.0000 0.58090  0.10740  0.90310  Biso   1.000  H
  H25      1.0000 0.62570  0.12350  0.02090  Biso   1.000  H
  C24      1.0000 0.40890  0.97000  0.99540  Biso   1.000  C
  N6       1.0000 0.27910  0.98600  0.01580  Biso   1.000  N
  C25      1.0000 0.94790  0.17130  0.61187  Biso   1.000  C
  N7       1.0000 0.99920  0.29150  0.57218  Biso   1.000  N
  C26      1.0000 0.92370  0.33850  0.11554  Biso   1.000  C
  N8       1.0000 0.96970  0.21500  0.07640  Biso   1.000  N
  C27      1.0000 0.59540  0.60270  0.47620  Biso   1.000  C
  H26      1.0000 0.60360  0.70940  0.43490  Biso   1.000  H
  H27      1.0000 0.64140  0.62440  0.54350  Biso   1.000  H
  H28      1.0000 0.65270  0.50680  0.44310  Biso   1.000  H
  C28      1.0000 0.43170  0.55490  0.48630  Biso   1.000  C
  N9       1.0000 0.30210  0.51710  0.49440  Biso   1.000  N
  C29      1.0000 0.53040  0.78810  0.03800  Biso   1.000  C
  H29      1.0000 0.52740  0.68200  0.99590  Biso   1.000  H
  H30      1.0000 0.62350  0.85810  0.02060  Biso   1.000  H
  H31      1.0000 0.53610  0.75470  0.10970  Biso   1.000  H
  C30      1.0000 0.38970  0.89000  0.01990  Biso   1.000  C
  N10      1.0000 0.27830  0.97100  0.00550  Biso   1.000  N
  C31      1.0000 0.69018  0.99131  0.66041  Biso   1.000  C
  C32      1.0000 0.60914  0.87650  0.72330  Biso   1.000  C
  H32      1.0000 0.66590  0.80290  0.76910  Biso   1.000  H
  C33      1.0000 0.44512  0.86930  0.71940  Biso   1.000  C
  H33      1.0000 0.38970  0.79080  0.76240  Biso   1.000  H
  C34      1.0000 0.36211  0.97700  0.65251  Biso   1.000  C
  H34      1.0000 0.25000  0.97220  0.64980  Biso   1.000  H
  C35      1.0000 0.44315  0.90810  0.58960  Biso   1.000  C
  H35      1.0000 0.38640  0.83450  0.54390  Biso   1.000  H
  C36      1.0000 0.60718  0.09900  0.59350  Biso   1.000  C
  H36      1.0000 0.66260  0.17750  0.55050  Biso   1.000  H
  C37      1.0000 0.66549  0.51337  0.18011  Biso   1.000  C
  C38      1.0000 0.59430  0.65030  0.23240  Biso   1.000  C
  H37      1.0000 0.65760  0.73590  0.26600  Biso   1.000  H
  C39      1.0000 0.43053  0.66220  0.23560  Biso   1.000  C
  H38      1.0000 0.38190  0.75580  0.27130  Biso   1.000  H
  C40      1.0000 0.33797  0.53700  0.18641  Biso   1.000  C
  H39      1.0000 0.22600  0.54510  0.18860  Biso   1.000  H
  C41      1.0000 0.40916  0.59990  0.13412  Biso   1.000  C
  H40      1.0000 0.34590  0.68550  0.10050  Biso   1.000  H
  C42      1.0000 0.57292  0.61180  0.13097  Biso   1.000  C
  H41      1.0000 0.62160  0.70540  0.09520  Biso   1.000  H
  C43      1.0000 0.56120  0.88000  0.96930  Biso   1.000  C
  H42      1.0000 0.62410  0.98030  0.94700  Biso   1.000  H
  H43      1.0000 0.61040  0.82720  0.02970  Biso   1.000  H
  H44      1.0000 0.55630  0.79190  0.91490  Biso   1.000  H
  C44      1.0000 0.40380  0.93700  0.99320  Biso   1.000  C
  N11      1.0000 0.27920  0.98300  0.01210  Biso   1.000  N
  C45      1.0000 0.56300  0.02600  0.08350  Biso   1.000  C
  H45      1.0000 0.60440  0.90890  0.09860  Biso   1.000  H
  H46      1.0000 0.63080  0.08390  0.03360  Biso   1.000  H
  H47      1.0000 0.56150  0.09630  0.14600  Biso   1.000  H
  C46      1.0000 0.40490  0.01200  0.04320  Biso   1.000  C
  C47      1.0000 0.57280  0.94900  0.96960  Biso   1.000  C
  H48      1.0000 0.62350  0.93500  0.96710  Biso   1.000  H
  H49      1.0000 0.58090  0.89260  0.90310  Biso   1.000  H
  H50      1.0000 0.62570  0.87650  0.02090  Biso   1.000  H
  C48      1.0000 0.40890  0.03000  0.99540  Biso   1.000  C
  N12      1.0000 0.27910  0.01400  0.01580  Biso   1.000  N
  Cu1      1.0000 0.08048  0.50000  0.50338  Biso   1.000  Cu
  C49      1.0000 0.93910  0.50000  0.28544  Biso   1.000  C
  N13      1.0000 0.99060  0.50000  0.36566  Biso   1.000  N
  B1       1.0000 0.86250  0.50000  0.17665  Biso   1.000  B
  Cu2      1.0000 0.04892  0.00000  0.00538  Biso   1.000  Cu
  C50      1.0000 0.93650  0.00000  0.77990  Biso   1.000  C
  N14      1.0000 0.97980  0.00000  0.86258  Biso   1.000  N
  B2       1.0000 0.88789  0.00000  0.66513  Biso   1.000  B
  N15      1.0000 0.27980  0.00000  0.01120  Biso   1.000  N
