data_image0
_cell_length_a       24.495
_cell_length_b       27.929
_cell_length_c       22.13
_cell_angle_alpha    90
_cell_angle_beta     90
_cell_angle_gamma    90

_symmetry_space_group_name_H-M    "P 1"
_symmetry_int_tables_number       1

loop_
  _symmetry_equiv_pos_as_xyz
  'x, y, z'

loop_
  _atom_site_label
  _atom_site_occupancy
  _atom_site_fract_x
  _atom_site_fract_y
  _atom_site_fract_z
  _atom_site_thermal_displace_type
  _atom_site_B_iso_or_equiv
  _atom_site_type_symbol
  Cu1      1.0000 0.74360  0.53125  0.54606  Biso   1.000  Cu
  Cu2      1.0000 0.46169  0.24470  0.54127  Biso   1.000  Cu
  C1       1.0000 0.40340  0.50940  0.96780  Biso   1.000  C
  C2       1.0000 0.37080  0.54950  0.95820  Biso   1.000  C
  C3       1.0000 0.37140  0.57250  0.90250  Biso   1.000  C
  C4       1.0000 0.40470  0.55540  0.85640  Biso   1.000  C
  C5       1.0000 0.43730  0.51540  0.86590  Biso   1.000  C
  C6       1.0000 0.43660  0.49240  0.92160  Biso   1.000  C
  C7       1.0000 0.46800  0.45110  0.93260  Biso   1.000  C
  C8       1.0000 0.50020  0.43150  0.88720  Biso   1.000  C
  C9       1.0000 0.50340  0.45530  0.83290  Biso   1.000  C
  C10      1.0000 0.47130  0.49560  0.82130  Biso   1.000  C
  C11      1.0000 0.93910  0.48350  0.97260  Biso   1.000  C
  C12      1.0000 0.90500  0.44440  0.96380  Biso   1.000  C
  C13      1.0000 0.90200  0.42280  0.90730  Biso   1.000  C
  C14      1.0000 0.93310  0.44040  0.85960  Biso   1.000  C
  C15      1.0000 0.96710  0.47960  0.86850  Biso   1.000  C
  C16      1.0000 0.97010  0.50110  0.92500  Biso   1.000  C
  C17      1.0000 0.99260  0.46240  0.93720  Biso   1.000  C
  C18      1.0000 0.95950  0.44360  0.89200  Biso   1.000  C
  C19      1.0000 0.96430  0.46300  0.83390  Biso   1.000  C
  C20      1.0000 0.57710  0.41140  0.67120  Biso   1.000  C
  C21      1.0000 0.61790  0.43500  0.63950  Biso   1.000  C
  H1       1.0000 0.63350  0.46350  0.65530  Biso   1.000  H
  C22      1.0000 0.63610  0.41690  0.58450  Biso   1.000  C
  C23      1.0000 0.61330  0.37520  0.56130  Biso   1.000  C
  H2       1.0000 0.62570  0.36280  0.52370  Biso   1.000  H
  C24      1.0000 0.57250  0.35150  0.59310  Biso   1.000  C
  C25      1.0000 0.55430  0.36960  0.64810  Biso   1.000  C
  H3       1.0000 0.52640  0.35350  0.66980  Biso   1.000  H
  C26      1.0000 0.54620  0.30900  0.56630  Biso   1.000  C
  C27      1.0000 0.67660  0.44630  0.55250  Biso   1.000  C
  C28      1.0000 0.82070  0.45390  0.55670  Biso   1.000  C
  C29      1.0000 0.94970  0.31890  0.55260  Biso   1.000  C
  C30      1.0000 0.90720  0.40020  0.67870  Biso   1.000  C
  C31      1.0000 0.87030  0.43020  0.64980  Biso   1.000  C
  H4       1.0000 0.85330  0.45550  0.67150  Biso   1.000  H
  C32      1.0000 0.85820  0.42330  0.58910  Biso   1.000  C
  C33      1.0000 0.88300  0.38630  0.55730  Biso   1.000  C
  H5       1.0000 0.87480  0.38150  0.51580  Biso   1.000  H
  C34      1.0000 0.92000  0.35630  0.58620  Biso   1.000  C
  C35      1.0000 0.93200  0.36320  0.64700  Biso   1.000  C
  H6       1.0000 0.95730  0.34270  0.66680  Biso   1.000  H
  C36      1.0000 0.53470  0.43770  0.78290  Biso   1.000  C
  C37      1.0000 0.55840  0.42960  0.72770  Biso   1.000  C
  C38      1.0000 0.92240  0.42420  0.79940  Biso   1.000  C
  C39      1.0000 0.91980  0.40770  0.74140  Biso   1.000  C
  O1       1.0000 0.50530  0.28930  0.59190  Biso   1.000  O
  O2       1.0000 0.56740  0.29310  0.51680  Biso   1.000  O
  O3       1.0000 0.69740  0.48380  0.57890  Biso   1.000  O
  O4       1.0000 0.68720  0.43610  0.49600  Biso   1.000  O
  O5       1.0000 0.80800  0.49510  0.57760  Biso   1.000  O
  O6       1.0000 0.80250  0.43800  0.50620  Biso   1.000  O
  O7       1.0000 0.99260  0.30080  0.57520  Biso   1.000  O
  O8       1.0000 0.93280  0.30510  0.50000  Biso   1.000  O
  O9       1.0000 0.34350  0.56700  0.00650  Biso   1.000  O
  O10      1.0000 0.87500  0.42800  0.01100  Biso   1.000  O
  Cu3      1.0000 0.24360  0.03125  0.54606  Biso   1.000  Cu
  Cu4      1.0000 0.96169  0.74470  0.54127  Biso   1.000  Cu
  C40      1.0000 0.90340  0.00940  0.96780  Biso   1.000  C
  C41      1.0000 0.87080  0.04950  0.95820  Biso   1.000  C
  C42      1.0000 0.87140  0.07250  0.90250  Biso   1.000  C
  C43      1.0000 0.90470  0.05540  0.85640  Biso   1.000  C
  C44      1.0000 0.93730  0.01540  0.86590  Biso   1.000  C
  C45      1.0000 0.93660  0.99240  0.92160  Biso   1.000  C
  C46      1.0000 0.96800  0.95110  0.93260  Biso   1.000  C
  C47      1.0000 0.00020  0.93150  0.88720  Biso   1.000  C
  C48      1.0000 0.00340  0.95530  0.83290  Biso   1.000  C
  C49      1.0000 0.97130  0.99560  0.82130  Biso   1.000  C
  C50      1.0000 0.43910  0.98350  0.97260  Biso   1.000  C
  C51      1.0000 0.40500  0.94440  0.96380  Biso   1.000  C
  C52      1.0000 0.40200  0.92280  0.90730  Biso   1.000  C
  C53      1.0000 0.43310  0.94040  0.85960  Biso   1.000  C
  C54      1.0000 0.46710  0.97960  0.86850  Biso   1.000  C
  C55      1.0000 0.47010  0.00110  0.92500  Biso   1.000  C
  C56      1.0000 0.49260  0.96240  0.93720  Biso   1.000  C
  C57      1.0000 0.45950  0.94360  0.89200  Biso   1.000  C
  C58      1.0000 0.46430  0.96300  0.83390  Biso   1.000  C
  C59      1.0000 0.07710  0.91140  0.67120  Biso   1.000  C
  C60      1.0000 0.11790  0.93500  0.63950  Biso   1.000  C
  H7       1.0000 0.13350  0.96350  0.65530  Biso   1.000  H
  C61      1.0000 0.13610  0.91690  0.58450  Biso   1.000  C
  C62      1.0000 0.11330  0.87520  0.56130  Biso   1.000  C
  H8       1.0000 0.12570  0.86280  0.52370  Biso   1.000  H
  C63      1.0000 0.07250  0.85150  0.59310  Biso   1.000  C
  C64      1.0000 0.05430  0.86960  0.64810  Biso   1.000  C
  H9       1.0000 0.02640  0.85350  0.66980  Biso   1.000  H
  C65      1.0000 0.04620  0.80900  0.56630  Biso   1.000  C
  C66      1.0000 0.17660  0.94630  0.55250  Biso   1.000  C
  C67      1.0000 0.32070  0.95390  0.55670  Biso   1.000  C
  C68      1.0000 0.44970  0.81890  0.55260  Biso   1.000  C
  C69      1.0000 0.40720  0.90020  0.67870  Biso   1.000  C
  C70      1.0000 0.37030  0.93020  0.64980  Biso   1.000  C
  H10      1.0000 0.35330  0.95550  0.67150  Biso   1.000  H
  C71      1.0000 0.35820  0.92330  0.58910  Biso   1.000  C
  C72      1.0000 0.38300  0.88630  0.55730  Biso   1.000  C
  H11      1.0000 0.37480  0.88150  0.51580  Biso   1.000  H
  C73      1.0000 0.42000  0.85630  0.58620  Biso   1.000  C
  C74      1.0000 0.43200  0.86320  0.64700  Biso   1.000  C
  H12      1.0000 0.45730  0.84270  0.66680  Biso   1.000  H
  C75      1.0000 0.03470  0.93770  0.78290  Biso   1.000  C
  C76      1.0000 0.05840  0.92960  0.72770  Biso   1.000  C
  C77      1.0000 0.42240  0.92420  0.79940  Biso   1.000  C
  C78      1.0000 0.41980  0.90770  0.74140  Biso   1.000  C
  O11      1.0000 0.00530  0.78930  0.59190  Biso   1.000  O
  O12      1.0000 0.06740  0.79310  0.51680  Biso   1.000  O
  O13      1.0000 0.19740  0.98380  0.57890  Biso   1.000  O
  O14      1.0000 0.18720  0.93610  0.49600  Biso   1.000  O
  O15      1.0000 0.30800  0.99510  0.57760  Biso   1.000  O
  O16      1.0000 0.30250  0.93800  0.50620  Biso   1.000  O
  O17      1.0000 0.49260  0.80080  0.57520  Biso   1.000  O
  O18      1.0000 0.43280  0.80510  0.50000  Biso   1.000  O
  O19      1.0000 0.84350  0.06700  0.00650  Biso   1.000  O
  O20      1.0000 0.37500  0.92800  0.01100  Biso   1.000  O
  Cu5      1.0000 0.25640  0.46875  0.54606  Biso   1.000  Cu
  Cu6      1.0000 0.53831  0.75530  0.54127  Biso   1.000  Cu
  C79      1.0000 0.59660  0.49060  0.96780  Biso   1.000  C
  C80      1.0000 0.62920  0.45050  0.95820  Biso   1.000  C
  C81      1.0000 0.62860  0.42750  0.90250  Biso   1.000  C
  C82      1.0000 0.59530  0.44460  0.85640  Biso   1.000  C
  C83      1.0000 0.56270  0.48460  0.86590  Biso   1.000  C
  C84      1.0000 0.56340  0.50760  0.92160  Biso   1.000  C
  C85      1.0000 0.53200  0.54890  0.93260  Biso   1.000  C
  C86      1.0000 0.49980  0.56850  0.88720  Biso   1.000  C
  C87      1.0000 0.49660  0.54470  0.83290  Biso   1.000  C
  C88      1.0000 0.52870  0.50440  0.82130  Biso   1.000  C
  C89      1.0000 0.06090  0.51650  0.97260  Biso   1.000  C
  C90      1.0000 0.09500  0.55560  0.96380  Biso   1.000  C
  C91      1.0000 0.09800  0.57720  0.90730  Biso   1.000  C
  C92      1.0000 0.06690  0.55960  0.85960  Biso   1.000  C
  C93      1.0000 0.03290  0.52040  0.86850  Biso   1.000  C
  C94      1.0000 0.02990  0.49890  0.92500  Biso   1.000  C
  C95      1.0000 0.00740  0.53760  0.93720  Biso   1.000  C
  C96      1.0000 0.04050  0.55640  0.89200  Biso   1.000  C
  C97      1.0000 0.03570  0.53700  0.83390  Biso   1.000  C
  C98      1.0000 0.42290  0.58860  0.67120  Biso   1.000  C
  C99      1.0000 0.38210  0.56500  0.63950  Biso   1.000  C
  H13      1.0000 0.36650  0.53650  0.65530  Biso   1.000  H
  C100     1.0000 0.36390  0.58310  0.58450  Biso   1.000  C
  C101     1.0000 0.38670  0.62480  0.56130  Biso   1.000  C
  H14      1.0000 0.37430  0.63720  0.52370  Biso   1.000  H
  C102     1.0000 0.42750  0.64850  0.59310  Biso   1.000  C
  C103     1.0000 0.44570  0.63040  0.64810  Biso   1.000  C
  H15      1.0000 0.47360  0.64650  0.66980  Biso   1.000  H
  C104     1.0000 0.45380  0.69100  0.56630  Biso   1.000  C
  C105     1.0000 0.32340  0.55370  0.55250  Biso   1.000  C
  C106     1.0000 0.17930  0.54610  0.55670  Biso   1.000  C
  C107     1.0000 0.05030  0.68110  0.55260  Biso   1.000  C
  C108     1.0000 0.09280  0.59980  0.67870  Biso   1.000  C
  C109     1.0000 0.12970  0.56980  0.64980  Biso   1.000  C
  H16      1.0000 0.14670  0.54450  0.67150  Biso   1.000  H
  C110     1.0000 0.14180  0.57670  0.58910  Biso   1.000  C
  C111     1.0000 0.11700  0.61370  0.55730  Biso   1.000  C
  H17      1.0000 0.12520  0.61850  0.51580  Biso   1.000  H
  C112     1.0000 0.08000  0.64370  0.58620  Biso   1.000  C
  C113     1.0000 0.06800  0.63680  0.64700  Biso   1.000  C
  H18      1.0000 0.04270  0.65730  0.66680  Biso   1.000  H
  C114     1.0000 0.46530  0.56230  0.78290  Biso   1.000  C
  C115     1.0000 0.44160  0.57040  0.72770  Biso   1.000  C
  C116     1.0000 0.07760  0.57580  0.79940  Biso   1.000  C
  C117     1.0000 0.08020  0.59230  0.74140  Biso   1.000  C
  O21      1.0000 0.49470  0.71070  0.59190  Biso   1.000  O
  O22      1.0000 0.43260  0.70690  0.51680  Biso   1.000  O
  O23      1.0000 0.30260  0.51620  0.57890  Biso   1.000  O
  O24      1.0000 0.31280  0.56390  0.49600  Biso   1.000  O
  O25      1.0000 0.19200  0.50490  0.57760  Biso   1.000  O
  O26      1.0000 0.19750  0.56200  0.50620  Biso   1.000  O
  O27      1.0000 0.00740  0.69920  0.57520  Biso   1.000  O
  O28      1.0000 0.06720  0.69490  0.50000  Biso   1.000  O
  O29      1.0000 0.65650  0.43300  0.00650  Biso   1.000  O
  O30      1.0000 0.12500  0.57200  0.01100  Biso   1.000  O
  Cu7      1.0000 0.75640  0.96875  0.54606  Biso   1.000  Cu
  Cu8      1.0000 0.03831  0.25530  0.54127  Biso   1.000  Cu
  C118     1.0000 0.09660  0.99060  0.96780  Biso   1.000  C
  C119     1.0000 0.12920  0.95050  0.95820  Biso   1.000  C
  C120     1.0000 0.12860  0.92750  0.90250  Biso   1.000  C
  C121     1.0000 0.09530  0.94460  0.85640  Biso   1.000  C
  C122     1.0000 0.06270  0.98460  0.86590  Biso   1.000  C
  C123     1.0000 0.06340  0.00760  0.92160  Biso   1.000  C
  C124     1.0000 0.03200  0.04890  0.93260  Biso   1.000  C
  C125     1.0000 0.99980  0.06850  0.88720  Biso   1.000  C
  C126     1.0000 0.99660  0.04470  0.83290  Biso   1.000  C
  C127     1.0000 0.02870  0.00440  0.82130  Biso   1.000  C
  C128     1.0000 0.56090  0.01650  0.97260  Biso   1.000  C
  C129     1.0000 0.59500  0.05560  0.96380  Biso   1.000  C
  C130     1.0000 0.59800  0.07720  0.90730  Biso   1.000  C
  C131     1.0000 0.56690  0.05960  0.85960  Biso   1.000  C
  C132     1.0000 0.53290  0.02040  0.86850  Biso   1.000  C
  C133     1.0000 0.52990  0.99890  0.92500  Biso   1.000  C
  C134     1.0000 0.50740  0.03760  0.93720  Biso   1.000  C
  C135     1.0000 0.54050  0.05640  0.89200  Biso   1.000  C
  C136     1.0000 0.53570  0.03700  0.83390  Biso   1.000  C
  C137     1.0000 0.92290  0.08860  0.67120  Biso   1.000  C
  C138     1.0000 0.88210  0.06500  0.63950  Biso   1.000  C
  H19      1.0000 0.86650  0.03650  0.65530  Biso   1.000  H
  C139     1.0000 0.86390  0.08310  0.58450  Biso   1.000  C
  C140     1.0000 0.88670  0.12480  0.56130  Biso   1.000  C
  H20      1.0000 0.87430  0.13720  0.52370  Biso   1.000  H
  C141     1.0000 0.92750  0.14850  0.59310  Biso   1.000  C
  C142     1.0000 0.94570  0.13040  0.64810  Biso   1.000  C
  H21      1.0000 0.97360  0.14650  0.66980  Biso   1.000  H
  C143     1.0000 0.95380  0.19100  0.56630  Biso   1.000  C
  C144     1.0000 0.82340  0.05370  0.55250  Biso   1.000  C
  C145     1.0000 0.67930  0.04610  0.55670  Biso   1.000  C
  C146     1.0000 0.55030  0.18110  0.55260  Biso   1.000  C
  C147     1.0000 0.59280  0.09980  0.67870  Biso   1.000  C
  C148     1.0000 0.62970  0.06980  0.64980  Biso   1.000  C
  H22      1.0000 0.64670  0.04450  0.67150  Biso   1.000  H
  C149     1.0000 0.64180  0.07670  0.58910  Biso   1.000  C
  C150     1.0000 0.61700  0.11370  0.55730  Biso   1.000  C
  H23      1.0000 0.62520  0.11850  0.51580  Biso   1.000  H
  C151     1.0000 0.58000  0.14370  0.58620  Biso   1.000  C
  C152     1.0000 0.56800  0.13680  0.64700  Biso   1.000  C
  H24      1.0000 0.54270  0.15730  0.66680  Biso   1.000  H
  C153     1.0000 0.96530  0.06230  0.78290  Biso   1.000  C
  C154     1.0000 0.94160  0.07040  0.72770  Biso   1.000  C
  C155     1.0000 0.57760  0.07580  0.79940  Biso   1.000  C
  C156     1.0000 0.58020  0.09230  0.74140  Biso   1.000  C
  O31      1.0000 0.99470  0.21070  0.59190  Biso   1.000  O
  O32      1.0000 0.93260  0.20690  0.51680  Biso   1.000  O
  O33      1.0000 0.80260  0.01620  0.57890  Biso   1.000  O
  O34      1.0000 0.81280  0.06390  0.49600  Biso   1.000  O
  O35      1.0000 0.69200  0.00490  0.57760  Biso   1.000  O
  O36      1.0000 0.69750  0.06200  0.50620  Biso   1.000  O
  O37      1.0000 0.50740  0.19920  0.57520  Biso   1.000  O
  O38      1.0000 0.56720  0.19490  0.50000  Biso   1.000  O
  O39      1.0000 0.15650  0.93300  0.00650  Biso   1.000  O
  O40      1.0000 0.62500  0.07200  0.01100  Biso   1.000  O
  Cu9      1.0000 0.25640  0.53125  0.45394  Biso   1.000  Cu
  Cu10     1.0000 0.53831  0.24470  0.45873  Biso   1.000  Cu
  C157     1.0000 0.59660  0.50940  0.03220  Biso   1.000  C
  C158     1.0000 0.62920  0.54950  0.04180  Biso   1.000  C
  C159     1.0000 0.62860  0.57250  0.09750  Biso   1.000  C
  C160     1.0000 0.59530  0.55540  0.14360  Biso   1.000  C
  C161     1.0000 0.56270  0.51540  0.13410  Biso   1.000  C
  C162     1.0000 0.56340  0.49240  0.07840  Biso   1.000  C
  C163     1.0000 0.53200  0.45110  0.06740  Biso   1.000  C
  C164     1.0000 0.49980  0.43150  0.11280  Biso   1.000  C
  C165     1.0000 0.49660  0.45530  0.16710  Biso   1.000  C
  C166     1.0000 0.52870  0.49560  0.17870  Biso   1.000  C
  C167     1.0000 0.06090  0.48350  0.02740  Biso   1.000  C
  C168     1.0000 0.09500  0.44440  0.03620  Biso   1.000  C
  C169     1.0000 0.09800  0.42280  0.09270  Biso   1.000  C
  C170     1.0000 0.06690  0.44040  0.14040  Biso   1.000  C
  C171     1.0000 0.03290  0.47960  0.13150  Biso   1.000  C
  C172     1.0000 0.02990  0.50110  0.07500  Biso   1.000  C
  C173     1.0000 0.00740  0.46240  0.06280  Biso   1.000  C
  C174     1.0000 0.04050  0.44360  0.10800  Biso   1.000  C
  C175     1.0000 0.03570  0.46300  0.16610  Biso   1.000  C
  C176     1.0000 0.42290  0.41140  0.32880  Biso   1.000  C
  C177     1.0000 0.38210  0.43500  0.36050  Biso   1.000  C
  H25      1.0000 0.36650  0.46350  0.34470  Biso   1.000  H
  C178     1.0000 0.36390  0.41690  0.41550  Biso   1.000  C
  C179     1.0000 0.38670  0.37520  0.43870  Biso   1.000  C
  H26      1.0000 0.37430  0.36280  0.47630  Biso   1.000  H
  C180     1.0000 0.42750  0.35150  0.40690  Biso   1.000  C
  C181     1.0000 0.44570  0.36960  0.35190  Biso   1.000  C
  H27      1.0000 0.47360  0.35350  0.33020  Biso   1.000  H
  C182     1.0000 0.45380  0.30900  0.43370  Biso   1.000  C
  C183     1.0000 0.32340  0.44630  0.44750  Biso   1.000  C
  C184     1.0000 0.17930  0.45390  0.44330  Biso   1.000  C
  C185     1.0000 0.05030  0.31890  0.44740  Biso   1.000  C
  C186     1.0000 0.09280  0.40020  0.32130  Biso   1.000  C
  C187     1.0000 0.12970  0.43020  0.35020  Biso   1.000  C
  H28      1.0000 0.14670  0.45550  0.32850  Biso   1.000  H
  C188     1.0000 0.14180  0.42330  0.41090  Biso   1.000  C
  C189     1.0000 0.11700  0.38630  0.44270  Biso   1.000  C
  H29      1.0000 0.12520  0.38150  0.48420  Biso   1.000  H
  C190     1.0000 0.08000  0.35630  0.41380  Biso   1.000  C
  C191     1.0000 0.06800  0.36320  0.35300  Biso   1.000  C
  H30      1.0000 0.04270  0.34270  0.33320  Biso   1.000  H
  C192     1.0000 0.46530  0.43770  0.21710  Biso   1.000  C
  C193     1.0000 0.44160  0.42960  0.27230  Biso   1.000  C
  C194     1.0000 0.07760  0.42420  0.20060  Biso   1.000  C
  C195     1.0000 0.08020  0.40770  0.25860  Biso   1.000  C
  O41      1.0000 0.49470  0.28930  0.40810  Biso   1.000  O
  O42      1.0000 0.43260  0.29310  0.48320  Biso   1.000  O
  O43      1.0000 0.30260  0.48380  0.42110  Biso   1.000  O
  O44      1.0000 0.31280  0.43610  0.50400  Biso   1.000  O
  O45      1.0000 0.19200  0.49510  0.42240  Biso   1.000  O
  O46      1.0000 0.19750  0.43800  0.49380  Biso   1.000  O
  O47      1.0000 0.00740  0.30080  0.42480  Biso   1.000  O
  O48      1.0000 0.06720  0.30510  0.50000  Biso   1.000  O
  O49      1.0000 0.65650  0.56700  0.99350  Biso   1.000  O
  O50      1.0000 0.12500  0.42800  0.98900  Biso   1.000  O
  Cu11     1.0000 0.75640  0.03125  0.45394  Biso   1.000  Cu
  Cu12     1.0000 0.03831  0.74470  0.45873  Biso   1.000  Cu
  C196     1.0000 0.09660  0.00940  0.03220  Biso   1.000  C
  C197     1.0000 0.12920  0.04950  0.04180  Biso   1.000  C
  C198     1.0000 0.12860  0.07250  0.09750  Biso   1.000  C
  C199     1.0000 0.09530  0.05540  0.14360  Biso   1.000  C
  C200     1.0000 0.06270  0.01540  0.13410  Biso   1.000  C
  C201     1.0000 0.06340  0.99240  0.07840  Biso   1.000  C
  C202     1.0000 0.03200  0.95110  0.06740  Biso   1.000  C
  C203     1.0000 0.99980  0.93150  0.11280  Biso   1.000  C
  C204     1.0000 0.99660  0.95530  0.16710  Biso   1.000  C
  C205     1.0000 0.02870  0.99560  0.17870  Biso   1.000  C
  C206     1.0000 0.56090  0.98350  0.02740  Biso   1.000  C
  C207     1.0000 0.59500  0.94440  0.03620  Biso   1.000  C
  C208     1.0000 0.59800  0.92280  0.09270  Biso   1.000  C
  C209     1.0000 0.56690  0.94040  0.14040  Biso   1.000  C
  C210     1.0000 0.53290  0.97960  0.13150  Biso   1.000  C
  C211     1.0000 0.52990  0.00110  0.07500  Biso   1.000  C
  C212     1.0000 0.50740  0.96240  0.06280  Biso   1.000  C
  C213     1.0000 0.54050  0.94360  0.10800  Biso   1.000  C
  C214     1.0000 0.53570  0.96300  0.16610  Biso   1.000  C
  C215     1.0000 0.92290  0.91140  0.32880  Biso   1.000  C
  C216     1.0000 0.88210  0.93500  0.36050  Biso   1.000  C
  H31      1.0000 0.86650  0.96350  0.34470  Biso   1.000  H
  C217     1.0000 0.86390  0.91690  0.41550  Biso   1.000  C
  C218     1.0000 0.88670  0.87520  0.43870  Biso   1.000  C
  H32      1.0000 0.87430  0.86280  0.47630  Biso   1.000  H
  C219     1.0000 0.92750  0.85150  0.40690  Biso   1.000  C
  C220     1.0000 0.94570  0.86960  0.35190  Biso   1.000  C
  H33      1.0000 0.97360  0.85350  0.33020  Biso   1.000  H
  C221     1.0000 0.95380  0.80900  0.43370  Biso   1.000  C
  C222     1.0000 0.82340  0.94630  0.44750  Biso   1.000  C
  C223     1.0000 0.67930  0.95390  0.44330  Biso   1.000  C
  C224     1.0000 0.55030  0.81890  0.44740  Biso   1.000  C
  C225     1.0000 0.59280  0.90020  0.32130  Biso   1.000  C
  C226     1.0000 0.62970  0.93020  0.35020  Biso   1.000  C
  H34      1.0000 0.64670  0.95550  0.32850  Biso   1.000  H
  C227     1.0000 0.64180  0.92330  0.41090  Biso   1.000  C
  C228     1.0000 0.61700  0.88630  0.44270  Biso   1.000  C
  H35      1.0000 0.62520  0.88150  0.48420  Biso   1.000  H
  C229     1.0000 0.58000  0.85630  0.41380  Biso   1.000  C
  C230     1.0000 0.56800  0.86320  0.35300  Biso   1.000  C
  H36      1.0000 0.54270  0.84270  0.33320  Biso   1.000  H
  C231     1.0000 0.96530  0.93770  0.21710  Biso   1.000  C
  C232     1.0000 0.94160  0.92960  0.27230  Biso   1.000  C
  C233     1.0000 0.57760  0.92420  0.20060  Biso   1.000  C
  C234     1.0000 0.58020  0.90770  0.25860  Biso   1.000  C
  O51      1.0000 0.99470  0.78930  0.40810  Biso   1.000  O
  O52      1.0000 0.93260  0.79310  0.48320  Biso   1.000  O
  O53      1.0000 0.80260  0.98380  0.42110  Biso   1.000  O
  O54      1.0000 0.81280  0.93610  0.50400  Biso   1.000  O
  O55      1.0000 0.69200  0.99510  0.42240  Biso   1.000  O
  O56      1.0000 0.69750  0.93800  0.49380  Biso   1.000  O
  O57      1.0000 0.50740  0.80080  0.42480  Biso   1.000  O
  O58      1.0000 0.56720  0.80510  0.50000  Biso   1.000  O
  O59      1.0000 0.15650  0.06700  0.99350  Biso   1.000  O
  O60      1.0000 0.62500  0.92800  0.98900  Biso   1.000  O
  Cu13     1.0000 0.74360  0.46875  0.45394  Biso   1.000  Cu
  Cu14     1.0000 0.46169  0.75530  0.45873  Biso   1.000  Cu
  C235     1.0000 0.40340  0.49060  0.03220  Biso   1.000  C
  C236     1.0000 0.37080  0.45050  0.04180  Biso   1.000  C
  C237     1.0000 0.37140  0.42750  0.09750  Biso   1.000  C
  C238     1.0000 0.40470  0.44460  0.14360  Biso   1.000  C
  C239     1.0000 0.43730  0.48460  0.13410  Biso   1.000  C
  C240     1.0000 0.43660  0.50760  0.07840  Biso   1.000  C
  C241     1.0000 0.46800  0.54890  0.06740  Biso   1.000  C
  C242     1.0000 0.50020  0.56850  0.11280  Biso   1.000  C
  C243     1.0000 0.50340  0.54470  0.16710  Biso   1.000  C
  C244     1.0000 0.47130  0.50440  0.17870  Biso   1.000  C
  C245     1.0000 0.93910  0.51650  0.02740  Biso   1.000  C
  C246     1.0000 0.90500  0.55560  0.03620  Biso   1.000  C
  C247     1.0000 0.90200  0.57720  0.09270  Biso   1.000  C
  C248     1.0000 0.93310  0.55960  0.14040  Biso   1.000  C
  C249     1.0000 0.96710  0.52040  0.13150  Biso   1.000  C
  C250     1.0000 0.97010  0.49890  0.07500  Biso   1.000  C
  C251     1.0000 0.99260  0.53760  0.06280  Biso   1.000  C
  C252     1.0000 0.95950  0.55640  0.10800  Biso   1.000  C
  C253     1.0000 0.96430  0.53700  0.16610  Biso   1.000  C
  C254     1.0000 0.57710  0.58860  0.32880  Biso   1.000  C
  C255     1.0000 0.61790  0.56500  0.36050  Biso   1.000  C
  H37      1.0000 0.63350  0.53650  0.34470  Biso   1.000  H
  C256     1.0000 0.63610  0.58310  0.41550  Biso   1.000  C
  C257     1.0000 0.61330  0.62480  0.43870  Biso   1.000  C
  H38      1.0000 0.62570  0.63720  0.47630  Biso   1.000  H
  C258     1.0000 0.57250  0.64850  0.40690  Biso   1.000  C
  C259     1.0000 0.55430  0.63040  0.35190  Biso   1.000  C
  H39      1.0000 0.52640  0.64650  0.33020  Biso   1.000  H
  C260     1.0000 0.54620  0.69100  0.43370  Biso   1.000  C
  C261     1.0000 0.67660  0.55370  0.44750  Biso   1.000  C
  C262     1.0000 0.82070  0.54610  0.44330  Biso   1.000  C
  C263     1.0000 0.94970  0.68110  0.44740  Biso   1.000  C
  C264     1.0000 0.90720  0.59980  0.32130  Biso   1.000  C
  C265     1.0000 0.87030  0.56980  0.35020  Biso   1.000  C
  H40      1.0000 0.85330  0.54450  0.32850  Biso   1.000  H
  C266     1.0000 0.85820  0.57670  0.41090  Biso   1.000  C
  C267     1.0000 0.88300  0.61370  0.44270  Biso   1.000  C
  H41      1.0000 0.87480  0.61850  0.48420  Biso   1.000  H
  C268     1.0000 0.92000  0.64370  0.41380  Biso   1.000  C
  C269     1.0000 0.93200  0.63680  0.35300  Biso   1.000  C
  H42      1.0000 0.95730  0.65730  0.33320  Biso   1.000  H
  C270     1.0000 0.53470  0.56230  0.21710  Biso   1.000  C
  C271     1.0000 0.55840  0.57040  0.27230  Biso   1.000  C
  C272     1.0000 0.92240  0.57580  0.20060  Biso   1.000  C
  C273     1.0000 0.91980  0.59230  0.25860  Biso   1.000  C
  O61      1.0000 0.50530  0.71070  0.40810  Biso   1.000  O
  O62      1.0000 0.56740  0.70690  0.48320  Biso   1.000  O
  O63      1.0000 0.69740  0.51620  0.42110  Biso   1.000  O
  O64      1.0000 0.68720  0.56390  0.50400  Biso   1.000  O
  O65      1.0000 0.80800  0.50490  0.42240  Biso   1.000  O
  O66      1.0000 0.80250  0.56200  0.49380  Biso   1.000  O
  O67      1.0000 0.99260  0.69920  0.42480  Biso   1.000  O
  O68      1.0000 0.93280  0.69490  0.50000  Biso   1.000  O
  O69      1.0000 0.34350  0.43300  0.99350  Biso   1.000  O
  O70      1.0000 0.87500  0.57200  0.98900  Biso   1.000  O
  Cu15     1.0000 0.24360  0.96875  0.45394  Biso   1.000  Cu
  Cu16     1.0000 0.96169  0.25530  0.45873  Biso   1.000  Cu
  C274     1.0000 0.90340  0.99060  0.03220  Biso   1.000  C
  C275     1.0000 0.87080  0.95050  0.04180  Biso   1.000  C
  C276     1.0000 0.87140  0.92750  0.09750  Biso   1.000  C
  C277     1.0000 0.90470  0.94460  0.14360  Biso   1.000  C
  C278     1.0000 0.93730  0.98460  0.13410  Biso   1.000  C
  C279     1.0000 0.93660  0.00760  0.07840  Biso   1.000  C
  C280     1.0000 0.96800  0.04890  0.06740  Biso   1.000  C
  C281     1.0000 0.00020  0.06850  0.11280  Biso   1.000  C
  C282     1.0000 0.00340  0.04470  0.16710  Biso   1.000  C
  C283     1.0000 0.97130  0.00440  0.17870  Biso   1.000  C
  C284     1.0000 0.43910  0.01650  0.02740  Biso   1.000  C
  C285     1.0000 0.40500  0.05560  0.03620  Biso   1.000  C
  C286     1.0000 0.40200  0.07720  0.09270  Biso   1.000  C
  C287     1.0000 0.43310  0.05960  0.14040  Biso   1.000  C
  C288     1.0000 0.46710  0.02040  0.13150  Biso   1.000  C
  C289     1.0000 0.47010  0.99890  0.07500  Biso   1.000  C
  C290     1.0000 0.49260  0.03760  0.06280  Biso   1.000  C
  C291     1.0000 0.45950  0.05640  0.10800  Biso   1.000  C
  C292     1.0000 0.46430  0.03700  0.16610  Biso   1.000  C
  C293     1.0000 0.07710  0.08860  0.32880  Biso   1.000  C
  C294     1.0000 0.11790  0.06500  0.36050  Biso   1.000  C
  H43      1.0000 0.13350  0.03650  0.34470  Biso   1.000  H
  C295     1.0000 0.13610  0.08310  0.41550  Biso   1.000  C
  C296     1.0000 0.11330  0.12480  0.43870  Biso   1.000  C
  H44      1.0000 0.12570  0.13720  0.47630  Biso   1.000  H
  C297     1.0000 0.07250  0.14850  0.40690  Biso   1.000  C
  C298     1.0000 0.05430  0.13040  0.35190  Biso   1.000  C
  H45      1.0000 0.02640  0.14650  0.33020  Biso   1.000  H
  C299     1.0000 0.04620  0.19100  0.43370  Biso   1.000  C
  C300     1.0000 0.17660  0.05370  0.44750  Biso   1.000  C
  C301     1.0000 0.32070  0.04610  0.44330  Biso   1.000  C
  C302     1.0000 0.44970  0.18110  0.44740  Biso   1.000  C
  C303     1.0000 0.40720  0.09980  0.32130  Biso   1.000  C
  C304     1.0000 0.37030  0.06980  0.35020  Biso   1.000  C
  H46      1.0000 0.35330  0.04450  0.32850  Biso   1.000  H
  C305     1.0000 0.35820  0.07670  0.41090  Biso   1.000  C
  C306     1.0000 0.38300  0.11370  0.44270  Biso   1.000  C
  H47      1.0000 0.37480  0.11850  0.48420  Biso   1.000  H
  C307     1.0000 0.42000  0.14370  0.41380  Biso   1.000  C
  C308     1.0000 0.43200  0.13680  0.35300  Biso   1.000  C
  H48      1.0000 0.45730  0.15730  0.33320  Biso   1.000  H
  C309     1.0000 0.03470  0.06230  0.21710  Biso   1.000  C
  C310     1.0000 0.05840  0.07040  0.27230  Biso   1.000  C
  C311     1.0000 0.42240  0.07580  0.20060  Biso   1.000  C
  C312     1.0000 0.41980  0.09230  0.25860  Biso   1.000  C
  O71      1.0000 0.00530  0.21070  0.40810  Biso   1.000  O
  O72      1.0000 0.06740  0.20690  0.48320  Biso   1.000  O
  O73      1.0000 0.19740  0.01620  0.42110  Biso   1.000  O
  O74      1.0000 0.18720  0.06390  0.50400  Biso   1.000  O
  O75      1.0000 0.30800  0.00490  0.42240  Biso   1.000  O
  O76      1.0000 0.30250  0.06200  0.49380  Biso   1.000  O
  O77      1.0000 0.49260  0.19920  0.42480  Biso   1.000  O
  O78      1.0000 0.43280  0.19490  0.50000  Biso   1.000  O
  O79      1.0000 0.84350  0.93300  0.99350  Biso   1.000  O
  O80      1.0000 0.37500  0.07200  0.98900  Biso   1.000  O
  C313     1.0000 0.00000  0.50000  0.82280  Biso   1.000  C
  C314     1.0000 0.50000  0.00000  0.82280  Biso   1.000  C
  C315     1.0000 0.00000  0.50000  0.17720  Biso   1.000  C
  C316     1.0000 0.50000  0.00000  0.17720  Biso   1.000  C
