data_image0
_cell_length_a       18.8423
_cell_length_b       18.8423
_cell_length_c       21.921
_cell_angle_alpha    90
_cell_angle_beta     90
_cell_angle_gamma    90

_symmetry_space_group_name_H-M    "P 1"
_symmetry_int_tables_number       1

loop_
  _symmetry_equiv_pos_as_xyz
  'x, y, z'

loop_
  _atom_site_label
  _atom_site_occupancy
  _atom_site_fract_x
  _atom_site_fract_y
  _atom_site_fract_z
  _atom_site_thermal_displace_type
  _atom_site_B_iso_or_equiv
  _atom_site_type_symbol
  C1       1.0000 0.95850  0.44650  0.05050  Biso   1.000  C
  C2       1.0000 0.57970  0.93470  0.99480  Biso   1.000  C
  C3       1.0000 0.53420  0.92660  0.94540  Biso   1.000  C
  C4       1.0000 0.46250  0.94220  0.95160  Biso   1.000  C
  C5       1.0000 0.43630  0.96610  0.00720  Biso   1.000  C
  C6       1.0000 0.48180  0.97420  0.05670  Biso   1.000  C
  C7       1.0000 0.36820  0.77430  0.42120  Biso   1.000  C
  C8       1.0000 0.47710  0.87420  0.72450  Biso   1.000  C
  C9       1.0000 0.45600  0.82770  0.77020  Biso   1.000  C
  C10      1.0000 0.43570  0.85400  0.82690  Biso   1.000  C
  C11      1.0000 0.43650  0.92660  0.83770  Biso   1.000  C
  C12      1.0000 0.45760  0.97310  0.79200  Biso   1.000  C
  C13      1.0000 0.94690  0.52210  0.73530  Biso   1.000  C
  Cu1      1.0000 0.79061  0.77478  0.41644  Biso   1.000  Cu
  C14      1.0000 0.01180  0.68510  0.19730  Biso   1.000  C
  C15      1.0000 0.07360  0.69990  0.22940  Biso   1.000  C
  H1       1.0000 0.11850  0.69350  0.21050  Biso   1.000  H
  C16      1.0000 0.06980  0.72420  0.28920  Biso   1.000  C
  C17      1.0000 0.00410  0.73360  0.31690  Biso   1.000  C
  H2       1.0000 0.00150  0.75020  0.35780  Biso   1.000  H
  C18      1.0000 0.94230  0.71880  0.28480  Biso   1.000  C
  C19      1.0000 0.94610  0.69460  0.22500  Biso   1.000  C
  H3       1.0000 0.90380  0.68450  0.20310  Biso   1.000  H
  Cu2      1.0000 0.29065  0.72307  0.32572  Biso   1.000  Cu
  C20      1.0000 0.51260  0.76170  0.42790  Biso   1.000  C
  H4       1.0000 0.51290  0.74280  0.38780  Biso   1.000  H
  C21      1.0000 0.44880  0.78050  0.45530  Biso   1.000  C
  C22      1.0000 0.44840  0.80820  0.51400  Biso   1.000  C
  H5       1.0000 0.40470  0.82110  0.53270  Biso   1.000  H
  C23      1.0000 0.51180  0.81710  0.54550  Biso   1.000  C
  C24      1.0000 0.57570  0.79830  0.51810  Biso   1.000  C
  H6       1.0000 0.61900  0.80440  0.53960  Biso   1.000  H
  C25      1.0000 0.57610  0.77060  0.45940  Biso   1.000  C
  C26      1.0000 0.13790  0.74240  0.31570  Biso   1.000  C
  O1       1.0000 0.37220  0.74280  0.37220  Biso   1.000  O
  C27      1.0000 0.88400  0.72700  0.32290  Biso   1.000  C
  O2       1.0000 0.87960  0.76410  0.37430  Biso   1.000  O
  O3       1.0000 0.13760  0.76840  0.36800  Biso   1.000  O
  O4       1.0000 0.63530  0.73110  0.38110  Biso   1.000  O
  O5       1.0000 0.82300  0.70300  0.29080  Biso   1.000  O
  O6       1.0000 0.31640  0.79780  0.44010  Biso   1.000  O
  O7       1.0000 0.70540  0.78470  0.45130  Biso   1.000  O
  O8       1.0000 0.18870  0.71890  0.28860  Biso   1.000  O
  C28      1.0000 0.64740  0.76100  0.43460  Biso   1.000  C
  C29      1.0000 0.49550  0.82900  0.60850  Biso   1.000  C
  C30      1.0000 0.36580  0.98960  0.01090  Biso   1.000  C
  C31      1.0000 0.48500  0.77900  0.90200  Biso   1.000  C
  C32      1.0000 0.45730  0.04400  0.80570  Biso   1.000  C
  C33      1.0000 0.49260  0.83970  0.66350  Biso   1.000  C
  C34      1.0000 0.49900  0.92940  0.70550  Biso   1.000  C
  C35      1.0000 0.09300  0.52100  0.76230  Biso   1.000  C
  C36      1.0000 0.01350  0.64950  0.13670  Biso   1.000  C
  O9       1.0000 0.42100  0.80150  0.87070  Biso   1.000  O
  C37      1.0000 0.51700  0.83200  0.94900  Biso   1.000  C
  C38      1.0000 0.02510  0.60310  0.09810  Biso   1.000  C
  C39      1.0000 0.41410  0.93880  0.90300  Biso   1.000  C
  C40      1.0000 0.31900  0.98310  0.96340  Biso   1.000  C
  C41      1.0000 0.34280  0.95690  0.90620  Biso   1.000  C
  O10      1.0000 0.29950  0.94550  0.85660  Biso   1.000  O
  C42      1.0000 0.22830  0.97160  0.86370  Biso   1.000  C
  C43      1.0000 0.21700  0.03200  0.81600  Biso   1.000  C
  C44      1.0000 0.04150  0.55350  0.05050  Biso   1.000  C
  C45      1.0000 0.42030  0.06530  0.99480  Biso   1.000  C
  C46      1.0000 0.46580  0.07340  0.94540  Biso   1.000  C
  C47      1.0000 0.53750  0.05780  0.95160  Biso   1.000  C
  C48      1.0000 0.56370  0.03390  0.00720  Biso   1.000  C
  C49      1.0000 0.51820  0.02580  0.05670  Biso   1.000  C
  C50      1.0000 0.63180  0.22570  0.42120  Biso   1.000  C
  C51      1.0000 0.52290  0.12580  0.72450  Biso   1.000  C
  C52      1.0000 0.54400  0.17230  0.77020  Biso   1.000  C
  C53      1.0000 0.56430  0.14600  0.82690  Biso   1.000  C
  C54      1.0000 0.56350  0.07340  0.83770  Biso   1.000  C
  C55      1.0000 0.54240  0.02690  0.79200  Biso   1.000  C
  C56      1.0000 0.05310  0.47790  0.73530  Biso   1.000  C
  Cu3      1.0000 0.20939  0.22522  0.41644  Biso   1.000  Cu
  C57      1.0000 0.98820  0.31490  0.19730  Biso   1.000  C
  C58      1.0000 0.92640  0.30010  0.22940  Biso   1.000  C
  H7       1.0000 0.88150  0.30650  0.21050  Biso   1.000  H
  C59      1.0000 0.93020  0.27580  0.28920  Biso   1.000  C
  C60      1.0000 0.99590  0.26640  0.31690  Biso   1.000  C
  H8       1.0000 0.99850  0.24980  0.35780  Biso   1.000  H
  C61      1.0000 0.05770  0.28120  0.28480  Biso   1.000  C
  C62      1.0000 0.05390  0.30540  0.22500  Biso   1.000  C
  H9       1.0000 0.09620  0.31550  0.20310  Biso   1.000  H
  Cu4      1.0000 0.70935  0.27693  0.32572  Biso   1.000  Cu
  C63      1.0000 0.48740  0.23830  0.42790  Biso   1.000  C
  H10      1.0000 0.48710  0.25720  0.38780  Biso   1.000  H
  C64      1.0000 0.55120  0.21950  0.45530  Biso   1.000  C
  C65      1.0000 0.55160  0.19180  0.51400  Biso   1.000  C
  H11      1.0000 0.59530  0.17890  0.53270  Biso   1.000  H
  C66      1.0000 0.48820  0.18290  0.54550  Biso   1.000  C
  C67      1.0000 0.42430  0.20170  0.51810  Biso   1.000  C
  H12      1.0000 0.38100  0.19560  0.53960  Biso   1.000  H
  C68      1.0000 0.42390  0.22940  0.45940  Biso   1.000  C
  C69      1.0000 0.86210  0.25760  0.31570  Biso   1.000  C
  O11      1.0000 0.62780  0.25720  0.37220  Biso   1.000  O
  C70      1.0000 0.11600  0.27300  0.32290  Biso   1.000  C
  O12      1.0000 0.12040  0.23590  0.37430  Biso   1.000  O
  O13      1.0000 0.86240  0.23160  0.36800  Biso   1.000  O
  O14      1.0000 0.36470  0.26890  0.38110  Biso   1.000  O
  O15      1.0000 0.17700  0.29700  0.29080  Biso   1.000  O
  O16      1.0000 0.68360  0.20220  0.44010  Biso   1.000  O
  O17      1.0000 0.29460  0.21530  0.45130  Biso   1.000  O
  O18      1.0000 0.81130  0.28110  0.28860  Biso   1.000  O
  C71      1.0000 0.35260  0.23900  0.43460  Biso   1.000  C
  C72      1.0000 0.50450  0.17100  0.60850  Biso   1.000  C
  C73      1.0000 0.63420  0.01040  0.01090  Biso   1.000  C
  C74      1.0000 0.51500  0.22100  0.90200  Biso   1.000  C
  C75      1.0000 0.54270  0.95600  0.80570  Biso   1.000  C
  C76      1.0000 0.50740  0.16030  0.66350  Biso   1.000  C
  C77      1.0000 0.50100  0.07060  0.70550  Biso   1.000  C
  C78      1.0000 0.90700  0.47900  0.76230  Biso   1.000  C
  C79      1.0000 0.98650  0.35050  0.13670  Biso   1.000  C
  O19      1.0000 0.57900  0.19850  0.87070  Biso   1.000  O
  C80      1.0000 0.48300  0.16800  0.94900  Biso   1.000  C
  C81      1.0000 0.97490  0.39690  0.09810  Biso   1.000  C
  C82      1.0000 0.58590  0.06120  0.90300  Biso   1.000  C
  C83      1.0000 0.68100  0.01690  0.96340  Biso   1.000  C
  C84      1.0000 0.65720  0.04310  0.90620  Biso   1.000  C
  O20      1.0000 0.70050  0.05450  0.85660  Biso   1.000  O
  C85      1.0000 0.77170  0.02840  0.86370  Biso   1.000  C
  C86      1.0000 0.78300  0.96800  0.81600  Biso   1.000  C
  C87      1.0000 0.55350  0.95850  0.05050  Biso   1.000  C
  C88      1.0000 0.06530  0.57970  0.99480  Biso   1.000  C
  C89      1.0000 0.07340  0.53420  0.94540  Biso   1.000  C
  C90      1.0000 0.05780  0.46250  0.95160  Biso   1.000  C
  C91      1.0000 0.03390  0.43630  0.00720  Biso   1.000  C
  C92      1.0000 0.02580  0.48180  0.05670  Biso   1.000  C
  C93      1.0000 0.22570  0.36820  0.42120  Biso   1.000  C
  C94      1.0000 0.12580  0.47710  0.72450  Biso   1.000  C
  C95      1.0000 0.17230  0.45600  0.77020  Biso   1.000  C
  C96      1.0000 0.14600  0.43570  0.82690  Biso   1.000  C
  C97      1.0000 0.07340  0.43650  0.83770  Biso   1.000  C
  C98      1.0000 0.02690  0.45760  0.79200  Biso   1.000  C
  C99      1.0000 0.47790  0.94690  0.73530  Biso   1.000  C
  Cu5      1.0000 0.22522  0.79061  0.41644  Biso   1.000  Cu
  C100     1.0000 0.31490  0.01180  0.19730  Biso   1.000  C
  C101     1.0000 0.30010  0.07360  0.22940  Biso   1.000  C
  H13      1.0000 0.30650  0.11850  0.21050  Biso   1.000  H
  C102     1.0000 0.27580  0.06980  0.28920  Biso   1.000  C
  C103     1.0000 0.26640  0.00410  0.31690  Biso   1.000  C
  H14      1.0000 0.24980  0.00150  0.35780  Biso   1.000  H
  C104     1.0000 0.28120  0.94230  0.28480  Biso   1.000  C
  C105     1.0000 0.30540  0.94610  0.22500  Biso   1.000  C
  H15      1.0000 0.31550  0.90380  0.20310  Biso   1.000  H
  Cu6      1.0000 0.27693  0.29065  0.32572  Biso   1.000  Cu
  C106     1.0000 0.23830  0.51260  0.42790  Biso   1.000  C
  H16      1.0000 0.25720  0.51290  0.38780  Biso   1.000  H
  C107     1.0000 0.21950  0.44880  0.45530  Biso   1.000  C
  C108     1.0000 0.19180  0.44840  0.51400  Biso   1.000  C
  H17      1.0000 0.17890  0.40470  0.53270  Biso   1.000  H
  C109     1.0000 0.18290  0.51180  0.54550  Biso   1.000  C
  C110     1.0000 0.20170  0.57570  0.51810  Biso   1.000  C
  H18      1.0000 0.19560  0.61900  0.53960  Biso   1.000  H
  C111     1.0000 0.22940  0.57610  0.45940  Biso   1.000  C
  C112     1.0000 0.25760  0.13790  0.31570  Biso   1.000  C
  O21      1.0000 0.25720  0.37220  0.37220  Biso   1.000  O
  C113     1.0000 0.27300  0.88400  0.32290  Biso   1.000  C
  O22      1.0000 0.23590  0.87960  0.37430  Biso   1.000  O
  O23      1.0000 0.23160  0.13760  0.36800  Biso   1.000  O
  O24      1.0000 0.26890  0.63530  0.38110  Biso   1.000  O
  O25      1.0000 0.29700  0.82300  0.29080  Biso   1.000  O
  O26      1.0000 0.20220  0.31640  0.44010  Biso   1.000  O
  O27      1.0000 0.21530  0.70540  0.45130  Biso   1.000  O
  O28      1.0000 0.28110  0.18870  0.28860  Biso   1.000  O
  C114     1.0000 0.23900  0.64740  0.43460  Biso   1.000  C
  C115     1.0000 0.17100  0.49550  0.60850  Biso   1.000  C
  C116     1.0000 0.01040  0.36580  0.01090  Biso   1.000  C
  C117     1.0000 0.22100  0.48500  0.90200  Biso   1.000  C
  C118     1.0000 0.95600  0.45730  0.80570  Biso   1.000  C
  C119     1.0000 0.16030  0.49260  0.66350  Biso   1.000  C
  C120     1.0000 0.07060  0.49900  0.70550  Biso   1.000  C
  C121     1.0000 0.47900  0.09300  0.76230  Biso   1.000  C
  C122     1.0000 0.35050  0.01350  0.13670  Biso   1.000  C
  O29      1.0000 0.19850  0.42100  0.87070  Biso   1.000  O
  C123     1.0000 0.16800  0.51700  0.94900  Biso   1.000  C
  C124     1.0000 0.39690  0.02510  0.09810  Biso   1.000  C
  C125     1.0000 0.06120  0.41410  0.90300  Biso   1.000  C
  C126     1.0000 0.01690  0.31900  0.96340  Biso   1.000  C
  C127     1.0000 0.04310  0.34280  0.90620  Biso   1.000  C
  O30      1.0000 0.05450  0.29950  0.85660  Biso   1.000  O
  C128     1.0000 0.02840  0.22830  0.86370  Biso   1.000  C
  C129     1.0000 0.96800  0.21700  0.81600  Biso   1.000  C
  C130     1.0000 0.44650  0.04150  0.05050  Biso   1.000  C
  C131     1.0000 0.93470  0.42030  0.99480  Biso   1.000  C
  C132     1.0000 0.92660  0.46580  0.94540  Biso   1.000  C
  C133     1.0000 0.94220  0.53750  0.95160  Biso   1.000  C
  C134     1.0000 0.96610  0.56370  0.00720  Biso   1.000  C
  C135     1.0000 0.97420  0.51820  0.05670  Biso   1.000  C
  C136     1.0000 0.77430  0.63180  0.42120  Biso   1.000  C
  C137     1.0000 0.87420  0.52290  0.72450  Biso   1.000  C
  C138     1.0000 0.82770  0.54400  0.77020  Biso   1.000  C
  C139     1.0000 0.85400  0.56430  0.82690  Biso   1.000  C
  C140     1.0000 0.92660  0.56350  0.83770  Biso   1.000  C
  C141     1.0000 0.97310  0.54240  0.79200  Biso   1.000  C
  C142     1.0000 0.52210  0.05310  0.73530  Biso   1.000  C
  Cu7      1.0000 0.77478  0.20939  0.41644  Biso   1.000  Cu
  C143     1.0000 0.68510  0.98820  0.19730  Biso   1.000  C
  C144     1.0000 0.69990  0.92640  0.22940  Biso   1.000  C
  H19      1.0000 0.69350  0.88150  0.21050  Biso   1.000  H
  C145     1.0000 0.72420  0.93020  0.28920  Biso   1.000  C
  C146     1.0000 0.73360  0.99590  0.31690  Biso   1.000  C
  H20      1.0000 0.75020  0.99850  0.35780  Biso   1.000  H
  C147     1.0000 0.71880  0.05770  0.28480  Biso   1.000  C
  C148     1.0000 0.69460  0.05390  0.22500  Biso   1.000  C
  H21      1.0000 0.68450  0.09620  0.20310  Biso   1.000  H
  Cu8      1.0000 0.72307  0.70935  0.32572  Biso   1.000  Cu
  C149     1.0000 0.76170  0.48740  0.42790  Biso   1.000  C
  H22      1.0000 0.74280  0.48710  0.38780  Biso   1.000  H
  C150     1.0000 0.78050  0.55120  0.45530  Biso   1.000  C
  C151     1.0000 0.80820  0.55160  0.51400  Biso   1.000  C
  H23      1.0000 0.82110  0.59530  0.53270  Biso   1.000  H
  C152     1.0000 0.81710  0.48820  0.54550  Biso   1.000  C
  C153     1.0000 0.79830  0.42430  0.51810  Biso   1.000  C
  H24      1.0000 0.80440  0.38100  0.53960  Biso   1.000  H
  C154     1.0000 0.77060  0.42390  0.45940  Biso   1.000  C
  C155     1.0000 0.74240  0.86210  0.31570  Biso   1.000  C
  O31      1.0000 0.74280  0.62780  0.37220  Biso   1.000  O
  C156     1.0000 0.72700  0.11600  0.32290  Biso   1.000  C
  O32      1.0000 0.76410  0.12040  0.37430  Biso   1.000  O
  O33      1.0000 0.76840  0.86240  0.36800  Biso   1.000  O
  O34      1.0000 0.73110  0.36470  0.38110  Biso   1.000  O
  O35      1.0000 0.70300  0.17700  0.29080  Biso   1.000  O
  O36      1.0000 0.79780  0.68360  0.44010  Biso   1.000  O
  O37      1.0000 0.78470  0.29460  0.45130  Biso   1.000  O
  O38      1.0000 0.71890  0.81130  0.28860  Biso   1.000  O
  C157     1.0000 0.76100  0.35260  0.43460  Biso   1.000  C
  C158     1.0000 0.82900  0.50450  0.60850  Biso   1.000  C
  C159     1.0000 0.98960  0.63420  0.01090  Biso   1.000  C
  C160     1.0000 0.77900  0.51500  0.90200  Biso   1.000  C
  C161     1.0000 0.04400  0.54270  0.80570  Biso   1.000  C
  C162     1.0000 0.83970  0.50740  0.66350  Biso   1.000  C
  C163     1.0000 0.92940  0.50100  0.70550  Biso   1.000  C
  C164     1.0000 0.52100  0.90700  0.76230  Biso   1.000  C
  C165     1.0000 0.64950  0.98650  0.13670  Biso   1.000  C
  O39      1.0000 0.80150  0.57900  0.87070  Biso   1.000  O
  C166     1.0000 0.83200  0.48300  0.94900  Biso   1.000  C
  C167     1.0000 0.60310  0.97490  0.09810  Biso   1.000  C
  C168     1.0000 0.93880  0.58590  0.90300  Biso   1.000  C
  C169     1.0000 0.98310  0.68100  0.96340  Biso   1.000  C
  C170     1.0000 0.95690  0.65720  0.90620  Biso   1.000  C
  O40      1.0000 0.94550  0.70050  0.85660  Biso   1.000  O
  C171     1.0000 0.97160  0.77170  0.86370  Biso   1.000  C
  C172     1.0000 0.03200  0.78300  0.81600  Biso   1.000  C
  C173     1.0000 0.50000  0.00000  0.69170  Biso   1.000  C
  C174     1.0000 0.00000  0.50000  0.69170  Biso   1.000  C
