data_image0
_cell_length_a       24.9427
_cell_length_b       16.9411
_cell_length_c       25.2889
_cell_angle_alpha    90
_cell_angle_beta     105.208
_cell_angle_gamma    90

_symmetry_space_group_name_H-M    "P 1"
_symmetry_int_tables_number       1

loop_
  _symmetry_equiv_pos_as_xyz
  'x, y, z'

loop_
  _atom_site_label
  _atom_site_occupancy
  _atom_site_fract_x
  _atom_site_fract_y
  _atom_site_fract_z
  _atom_site_thermal_displace_type
  _atom_site_B_iso_or_equiv
  _atom_site_type_symbol
  Gd1      1.0000 0.21815  0.81764  0.05243  Biso   1.000  Gd
  Gd2      1.0000 0.40874  0.89948  0.73810  Biso   1.000  Gd
  O1       1.0000 0.12362  0.87620  0.04171  Biso   1.000  O
  O2       1.0000 0.15039  0.77540  0.09801  Biso   1.000  O
  O3       1.0000 0.33782  0.98250  0.76081  Biso   1.000  O
  O4       1.0000 0.21363  0.91370  0.98139  Biso   1.000  O
  O5       1.0000 0.25176  0.81279  0.94939  Biso   1.000  O
  O6       1.0000 0.15152  0.75220  0.98077  Biso   1.000  O
  O7       1.0000 0.02815  0.67870  0.20631  Biso   1.000  O
  O8       1.0000 0.93665  0.68800  0.17329  Biso   1.000  O
  O9       1.0000 0.04795  0.48780  0.80633  Biso   1.000  O
  O10      1.0000 0.36959  0.88450  0.81797  Biso   1.000  O
  O11      1.0000 0.95884  0.49070  0.80647  Biso   1.000  O
  C1       1.0000 0.23784  0.88400  0.94798  Biso   1.000  C
  C2       1.0000 0.14579  0.69440  0.94862  Biso   1.000  C
  C3       1.0000 0.11400  0.82460  0.07382  Biso   1.000  C
  N1       1.0000 0.91930  0.91290  0.03420  Biso   1.000  N
  C4       1.0000 0.33840  0.94300  0.80330  Biso   1.000  C
  N2       1.0000 0.94243  0.71380  0.93270  Biso   1.000  N
  N3       1.0000 0.23400  0.15080  0.86750  Biso   1.000  N
  C5       1.0000 0.00790  0.51420  0.82176  Biso   1.000  C
  C6       1.0000 0.98550  0.70520  0.17340  Biso   1.000  C
  C7       1.0000 0.07501  0.60650  0.88527  Biso   1.000  C
  H1       1.0000 0.10440  0.58220  0.87380  Biso   1.000  H
  C8       1.0000 0.05740  0.82160  0.08420  Biso   1.000  C
  C9       1.0000 0.02076  0.58050  0.86333  Biso   1.000  C
  C10      1.0000 0.08733  0.66770  0.92389  Biso   1.000  C
  C11      1.0000 0.97722  0.61470  0.87972  Biso   1.000  C
  H2       1.0000 0.94010  0.59670  0.86570  Biso   1.000  H
  C12      1.0000 0.25198  0.93880  0.90645  Biso   1.000  C
  C13      1.0000 0.95220  0.81140  0.10240  Biso   1.000  C
  H3       1.0000 0.91600  0.80780  0.10780  Biso   1.000  H
  C14      1.0000 0.99500  0.76280  0.13125  Biso   1.000  C
  C15      1.0000 0.30050  0.96780  0.83780  Biso   1.000  C
  C16      1.0000 0.04310  0.70350  0.93980  Biso   1.000  C
  H4       1.0000 0.04960  0.74550  0.96560  Biso   1.000  H
  C17      1.0000 0.98950  0.67580  0.91700  Biso   1.000  C
  C18      1.0000 0.23220  0.01570  0.90260  Biso   1.000  C
  H5       1.0000 0.20770  0.03260  0.92350  Biso   1.000  H
  C19      1.0000 0.28690  0.91490  0.87457  Biso   1.000  C
  H6       1.0000 0.30140  0.86270  0.87780  Biso   1.000  H
  C20      1.0000 0.24880  0.06680  0.86780  Biso   1.000  C
  C21      1.0000 0.28120  0.04400  0.83380  Biso   1.000  C
  H7       1.0000 0.28990  0.08000  0.80840  Biso   1.000  H
  C22      1.0000 0.01590  0.87170  0.05640  Biso   1.000  C
  H8       1.0000 0.02280  0.90980  0.03140  Biso   1.000  H
  C23      1.0000 0.96390  0.86480  0.06590  Biso   1.000  C
  C24      1.0000 0.04704  0.76690  0.12154  Biso   1.000  C
  H9       1.0000 0.07580  0.73240  0.14040  Biso   1.000  H
  O12      1.0000 0.18388  0.65770  0.93514  Biso   1.000  O
  O13      1.0000 0.92800  0.95570  0.99770  Biso   1.000  O
  O14      1.0000 0.87370  0.90810  0.04350  Biso   1.000  O
  O15      1.0000 0.25390  0.19740  0.84160  Biso   1.000  O
  O16      1.0000 0.89530  0.68780  0.91360  Biso   1.000  O
  O17      1.0000 0.95270  0.78000  0.95770  Biso   1.000  O
  O18      1.0000 0.20100  0.17020  0.89350  Biso   1.000  O
  O19      1.0000 0.54890  0.74470  0.02730  Biso   1.000  O
  Gd3      1.0000 0.71815  0.31764  0.05243  Biso   1.000  Gd
  Gd4      1.0000 0.90874  0.39948  0.73810  Biso   1.000  Gd
  O20      1.0000 0.62362  0.37620  0.04171  Biso   1.000  O
  O21      1.0000 0.65039  0.27540  0.09801  Biso   1.000  O
  O22      1.0000 0.83782  0.48250  0.76081  Biso   1.000  O
  O23      1.0000 0.71363  0.41370  0.98139  Biso   1.000  O
  O24      1.0000 0.75176  0.31279  0.94939  Biso   1.000  O
  O25      1.0000 0.65152  0.25220  0.98077  Biso   1.000  O
  O26      1.0000 0.52815  0.17870  0.20631  Biso   1.000  O
  O27      1.0000 0.43665  0.18800  0.17329  Biso   1.000  O
  O28      1.0000 0.54795  0.98780  0.80633  Biso   1.000  O
  O29      1.0000 0.86959  0.38450  0.81797  Biso   1.000  O
  O30      1.0000 0.45884  0.99070  0.80647  Biso   1.000  O
  C25      1.0000 0.73784  0.38400  0.94798  Biso   1.000  C
  C26      1.0000 0.64579  0.19440  0.94862  Biso   1.000  C
  C27      1.0000 0.61400  0.32460  0.07382  Biso   1.000  C
  N4       1.0000 0.41930  0.41290  0.03420  Biso   1.000  N
  C28      1.0000 0.83840  0.44300  0.80330  Biso   1.000  C
  N5       1.0000 0.44243  0.21380  0.93270  Biso   1.000  N
  N6       1.0000 0.73400  0.65080  0.86750  Biso   1.000  N
  C29      1.0000 0.50790  0.01420  0.82176  Biso   1.000  C
  C30      1.0000 0.48550  0.20520  0.17340  Biso   1.000  C
  C31      1.0000 0.57501  0.10650  0.88527  Biso   1.000  C
  H10      1.0000 0.60440  0.08220  0.87380  Biso   1.000  H
  C32      1.0000 0.55740  0.32160  0.08420  Biso   1.000  C
  C33      1.0000 0.52076  0.08050  0.86333  Biso   1.000  C
  C34      1.0000 0.58733  0.16770  0.92389  Biso   1.000  C
  C35      1.0000 0.47722  0.11470  0.87972  Biso   1.000  C
  H11      1.0000 0.44010  0.09670  0.86570  Biso   1.000  H
  C36      1.0000 0.75198  0.43880  0.90645  Biso   1.000  C
  C37      1.0000 0.45220  0.31140  0.10240  Biso   1.000  C
  H12      1.0000 0.41600  0.30780  0.10780  Biso   1.000  H
  C38      1.0000 0.49500  0.26280  0.13125  Biso   1.000  C
  C39      1.0000 0.80050  0.46780  0.83780  Biso   1.000  C
  C40      1.0000 0.54310  0.20350  0.93980  Biso   1.000  C
  H13      1.0000 0.54960  0.24550  0.96560  Biso   1.000  H
  C41      1.0000 0.48950  0.17580  0.91700  Biso   1.000  C
  C42      1.0000 0.73220  0.51570  0.90260  Biso   1.000  C
  H14      1.0000 0.70770  0.53260  0.92350  Biso   1.000  H
  C43      1.0000 0.78690  0.41490  0.87457  Biso   1.000  C
  H15      1.0000 0.80140  0.36270  0.87780  Biso   1.000  H
  C44      1.0000 0.74880  0.56680  0.86780  Biso   1.000  C
  C45      1.0000 0.78120  0.54400  0.83380  Biso   1.000  C
  H16      1.0000 0.78990  0.58000  0.80840  Biso   1.000  H
  C46      1.0000 0.51590  0.37170  0.05640  Biso   1.000  C
  H17      1.0000 0.52280  0.40980  0.03140  Biso   1.000  H
  C47      1.0000 0.46390  0.36480  0.06590  Biso   1.000  C
  C48      1.0000 0.54704  0.26690  0.12154  Biso   1.000  C
  H18      1.0000 0.57580  0.23240  0.14040  Biso   1.000  H
  O31      1.0000 0.68388  0.15770  0.93514  Biso   1.000  O
  O32      1.0000 0.42800  0.45570  0.99770  Biso   1.000  O
  O33      1.0000 0.37370  0.40810  0.04350  Biso   1.000  O
  O34      1.0000 0.75390  0.69740  0.84160  Biso   1.000  O
  O35      1.0000 0.39530  0.18780  0.91360  Biso   1.000  O
  O36      1.0000 0.45270  0.28000  0.95770  Biso   1.000  O
  O37      1.0000 0.70100  0.67020  0.89350  Biso   1.000  O
  O38      1.0000 0.04890  0.24470  0.02730  Biso   1.000  O
  Gd5      1.0000 0.78185  0.81764  0.44757  Biso   1.000  Gd
  Gd6      1.0000 0.59126  0.89948  0.76190  Biso   1.000  Gd
  O39      1.0000 0.87638  0.87620  0.45829  Biso   1.000  O
  O40      1.0000 0.84961  0.77540  0.40199  Biso   1.000  O
  O41      1.0000 0.66218  0.98250  0.73919  Biso   1.000  O
  O42      1.0000 0.78637  0.91370  0.51861  Biso   1.000  O
  O43      1.0000 0.74824  0.81279  0.55061  Biso   1.000  O
  O44      1.0000 0.84848  0.75220  0.51923  Biso   1.000  O
  O45      1.0000 0.97185  0.67870  0.29369  Biso   1.000  O
  O46      1.0000 0.06335  0.68800  0.32671  Biso   1.000  O
  O47      1.0000 0.95205  0.48780  0.69367  Biso   1.000  O
  O48      1.0000 0.63041  0.88450  0.68203  Biso   1.000  O
  O49      1.0000 0.04116  0.49070  0.69353  Biso   1.000  O
  C49      1.0000 0.76216  0.88400  0.55202  Biso   1.000  C
  C50      1.0000 0.85421  0.69440  0.55138  Biso   1.000  C
  C51      1.0000 0.88600  0.82460  0.42618  Biso   1.000  C
  N7       1.0000 0.08070  0.91290  0.46580  Biso   1.000  N
  C52      1.0000 0.66160  0.94300  0.69670  Biso   1.000  C
  N8       1.0000 0.05757  0.71380  0.56730  Biso   1.000  N
  N9       1.0000 0.76600  0.15080  0.63250  Biso   1.000  N
  C53      1.0000 0.99210  0.51420  0.67824  Biso   1.000  C
  C54      1.0000 0.01450  0.70520  0.32660  Biso   1.000  C
  C55      1.0000 0.92499  0.60650  0.61473  Biso   1.000  C
  H19      1.0000 0.89560  0.58220  0.62620  Biso   1.000  H
  C56      1.0000 0.94260  0.82160  0.41580  Biso   1.000  C
  C57      1.0000 0.97924  0.58050  0.63667  Biso   1.000  C
  C58      1.0000 0.91267  0.66770  0.57611  Biso   1.000  C
  C59      1.0000 0.02278  0.61470  0.62028  Biso   1.000  C
  H20      1.0000 0.05990  0.59670  0.63430  Biso   1.000  H
  C60      1.0000 0.74802  0.93880  0.59355  Biso   1.000  C
  C61      1.0000 0.04780  0.81140  0.39760  Biso   1.000  C
  H21      1.0000 0.08400  0.80780  0.39220  Biso   1.000  H
  C62      1.0000 0.00500  0.76280  0.36875  Biso   1.000  C
  C63      1.0000 0.69950  0.96780  0.66220  Biso   1.000  C
  C64      1.0000 0.95690  0.70350  0.56020  Biso   1.000  C
  H22      1.0000 0.95040  0.74550  0.53440  Biso   1.000  H
  C65      1.0000 0.01050  0.67580  0.58300  Biso   1.000  C
  C66      1.0000 0.76780  0.01570  0.59740  Biso   1.000  C
  H23      1.0000 0.79230  0.03260  0.57650  Biso   1.000  H
  C67      1.0000 0.71310  0.91490  0.62543  Biso   1.000  C
  H24      1.0000 0.69860  0.86270  0.62220  Biso   1.000  H
  C68      1.0000 0.75120  0.06680  0.63220  Biso   1.000  C
  C69      1.0000 0.71880  0.04400  0.66620  Biso   1.000  C
  H25      1.0000 0.71010  0.08000  0.69160  Biso   1.000  H
  C70      1.0000 0.98410  0.87170  0.44360  Biso   1.000  C
  H26      1.0000 0.97720  0.90980  0.46860  Biso   1.000  H
  C71      1.0000 0.03610  0.86480  0.43410  Biso   1.000  C
  C72      1.0000 0.95296  0.76690  0.37846  Biso   1.000  C
  H27      1.0000 0.92420  0.73240  0.35960  Biso   1.000  H
  O50      1.0000 0.81612  0.65770  0.56486  Biso   1.000  O
  O51      1.0000 0.07200  0.95570  0.50230  Biso   1.000  O
  O52      1.0000 0.12630  0.90810  0.45650  Biso   1.000  O
  O53      1.0000 0.74610  0.19740  0.65840  Biso   1.000  O
  O54      1.0000 0.10470  0.68780  0.58640  Biso   1.000  O
  O55      1.0000 0.04730  0.78000  0.54230  Biso   1.000  O
  O56      1.0000 0.79900  0.17020  0.60650  Biso   1.000  O
  O57      1.0000 0.45110  0.74470  0.47270  Biso   1.000  O
  Gd7      1.0000 0.28185  0.31764  0.44757  Biso   1.000  Gd
  Gd8      1.0000 0.09126  0.39948  0.76190  Biso   1.000  Gd
  O58      1.0000 0.37638  0.37620  0.45829  Biso   1.000  O
  O59      1.0000 0.34961  0.27540  0.40199  Biso   1.000  O
  O60      1.0000 0.16218  0.48250  0.73919  Biso   1.000  O
  O61      1.0000 0.28637  0.41370  0.51861  Biso   1.000  O
  O62      1.0000 0.24824  0.31279  0.55061  Biso   1.000  O
  O63      1.0000 0.34848  0.25220  0.51923  Biso   1.000  O
  O64      1.0000 0.47185  0.17870  0.29369  Biso   1.000  O
  O65      1.0000 0.56335  0.18800  0.32671  Biso   1.000  O
  O66      1.0000 0.45205  0.98780  0.69367  Biso   1.000  O
  O67      1.0000 0.13041  0.38450  0.68203  Biso   1.000  O
  O68      1.0000 0.54116  0.99070  0.69353  Biso   1.000  O
  C73      1.0000 0.26216  0.38400  0.55202  Biso   1.000  C
  C74      1.0000 0.35421  0.19440  0.55138  Biso   1.000  C
  C75      1.0000 0.38600  0.32460  0.42618  Biso   1.000  C
  N10      1.0000 0.58070  0.41290  0.46580  Biso   1.000  N
  C76      1.0000 0.16160  0.44300  0.69670  Biso   1.000  C
  N11      1.0000 0.55757  0.21380  0.56730  Biso   1.000  N
  N12      1.0000 0.26600  0.65080  0.63250  Biso   1.000  N
  C77      1.0000 0.49210  0.01420  0.67824  Biso   1.000  C
  C78      1.0000 0.51450  0.20520  0.32660  Biso   1.000  C
  C79      1.0000 0.42499  0.10650  0.61473  Biso   1.000  C
  H28      1.0000 0.39560  0.08220  0.62620  Biso   1.000  H
  C80      1.0000 0.44260  0.32160  0.41580  Biso   1.000  C
  C81      1.0000 0.47924  0.08050  0.63667  Biso   1.000  C
  C82      1.0000 0.41267  0.16770  0.57611  Biso   1.000  C
  C83      1.0000 0.52278  0.11470  0.62028  Biso   1.000  C
  H29      1.0000 0.55990  0.09670  0.63430  Biso   1.000  H
  C84      1.0000 0.24802  0.43880  0.59355  Biso   1.000  C
  C85      1.0000 0.54780  0.31140  0.39760  Biso   1.000  C
  H30      1.0000 0.58400  0.30780  0.39220  Biso   1.000  H
  C86      1.0000 0.50500  0.26280  0.36875  Biso   1.000  C
  C87      1.0000 0.19950  0.46780  0.66220  Biso   1.000  C
  C88      1.0000 0.45690  0.20350  0.56020  Biso   1.000  C
  H31      1.0000 0.45040  0.24550  0.53440  Biso   1.000  H
  C89      1.0000 0.51050  0.17580  0.58300  Biso   1.000  C
  C90      1.0000 0.26780  0.51570  0.59740  Biso   1.000  C
  H32      1.0000 0.29230  0.53260  0.57650  Biso   1.000  H
  C91      1.0000 0.21310  0.41490  0.62543  Biso   1.000  C
  H33      1.0000 0.19860  0.36270  0.62220  Biso   1.000  H
  C92      1.0000 0.25120  0.56680  0.63220  Biso   1.000  C
  C93      1.0000 0.21880  0.54400  0.66620  Biso   1.000  C
  H34      1.0000 0.21010  0.58000  0.69160  Biso   1.000  H
  C94      1.0000 0.48410  0.37170  0.44360  Biso   1.000  C
  H35      1.0000 0.47720  0.40980  0.46860  Biso   1.000  H
  C95      1.0000 0.53610  0.36480  0.43410  Biso   1.000  C
  C96      1.0000 0.45296  0.26690  0.37846  Biso   1.000  C
  H36      1.0000 0.42420  0.23240  0.35960  Biso   1.000  H
  O69      1.0000 0.31612  0.15770  0.56486  Biso   1.000  O
  O70      1.0000 0.57200  0.45570  0.50230  Biso   1.000  O
  O71      1.0000 0.62630  0.40810  0.45650  Biso   1.000  O
  O72      1.0000 0.24610  0.69740  0.65840  Biso   1.000  O
  O73      1.0000 0.60470  0.18780  0.58640  Biso   1.000  O
  O74      1.0000 0.54730  0.28000  0.54230  Biso   1.000  O
  O75      1.0000 0.29900  0.67020  0.60650  Biso   1.000  O
  O76      1.0000 0.95110  0.24470  0.47270  Biso   1.000  O
  Gd9      1.0000 0.78185  0.18236  0.94757  Biso   1.000  Gd
  Gd10     1.0000 0.59126  0.10052  0.26190  Biso   1.000  Gd
  O77      1.0000 0.87638  0.12380  0.95829  Biso   1.000  O
  O78      1.0000 0.84961  0.22460  0.90199  Biso   1.000  O
  O79      1.0000 0.66218  0.01750  0.23919  Biso   1.000  O
  O80      1.0000 0.78637  0.08630  0.01861  Biso   1.000  O
  O81      1.0000 0.74824  0.18721  0.05061  Biso   1.000  O
  O82      1.0000 0.84848  0.24780  0.01923  Biso   1.000  O
  O83      1.0000 0.97185  0.32130  0.79369  Biso   1.000  O
  O84      1.0000 0.06335  0.31200  0.82671  Biso   1.000  O
  O85      1.0000 0.95205  0.51220  0.19367  Biso   1.000  O
  O86      1.0000 0.63041  0.11550  0.18203  Biso   1.000  O
  O87      1.0000 0.04116  0.50930  0.19353  Biso   1.000  O
  C97      1.0000 0.76216  0.11600  0.05202  Biso   1.000  C
  C98      1.0000 0.85421  0.30560  0.05138  Biso   1.000  C
  C99      1.0000 0.88600  0.17540  0.92618  Biso   1.000  C
  N13      1.0000 0.08070  0.08710  0.96580  Biso   1.000  N
  C100     1.0000 0.66160  0.05700  0.19670  Biso   1.000  C
  N14      1.0000 0.05757  0.28620  0.06730  Biso   1.000  N
  N15      1.0000 0.76600  0.84920  0.13250  Biso   1.000  N
  C101     1.0000 0.99210  0.48580  0.17824  Biso   1.000  C
  C102     1.0000 0.01450  0.29480  0.82660  Biso   1.000  C
  C103     1.0000 0.92499  0.39350  0.11473  Biso   1.000  C
  H37      1.0000 0.89560  0.41780  0.12620  Biso   1.000  H
  C104     1.0000 0.94260  0.17840  0.91580  Biso   1.000  C
  C105     1.0000 0.97924  0.41950  0.13667  Biso   1.000  C
  C106     1.0000 0.91267  0.33230  0.07611  Biso   1.000  C
  C107     1.0000 0.02278  0.38530  0.12028  Biso   1.000  C
  H38      1.0000 0.05990  0.40330  0.13430  Biso   1.000  H
  C108     1.0000 0.74802  0.06120  0.09355  Biso   1.000  C
  C109     1.0000 0.04780  0.18860  0.89760  Biso   1.000  C
  H39      1.0000 0.08400  0.19220  0.89220  Biso   1.000  H
  C110     1.0000 0.00500  0.23720  0.86875  Biso   1.000  C
  C111     1.0000 0.69950  0.03220  0.16220  Biso   1.000  C
  C112     1.0000 0.95690  0.29650  0.06020  Biso   1.000  C
  H40      1.0000 0.95040  0.25450  0.03440  Biso   1.000  H
  C113     1.0000 0.01050  0.32420  0.08300  Biso   1.000  C
  C114     1.0000 0.76780  0.98430  0.09740  Biso   1.000  C
  H41      1.0000 0.79230  0.96740  0.07650  Biso   1.000  H
  C115     1.0000 0.71310  0.08510  0.12543  Biso   1.000  C
  H42      1.0000 0.69860  0.13730  0.12220  Biso   1.000  H
  C116     1.0000 0.75120  0.93320  0.13220  Biso   1.000  C
  C117     1.0000 0.71880  0.95600  0.16620  Biso   1.000  C
  H43      1.0000 0.71010  0.92000  0.19160  Biso   1.000  H
  C118     1.0000 0.98410  0.12830  0.94360  Biso   1.000  C
  H44      1.0000 0.97720  0.09020  0.96860  Biso   1.000  H
  C119     1.0000 0.03610  0.13520  0.93410  Biso   1.000  C
  C120     1.0000 0.95296  0.23310  0.87846  Biso   1.000  C
  H45      1.0000 0.92420  0.26760  0.85960  Biso   1.000  H
  O88      1.0000 0.81612  0.34230  0.06486  Biso   1.000  O
  O89      1.0000 0.07200  0.04430  0.00230  Biso   1.000  O
  O90      1.0000 0.12630  0.09190  0.95650  Biso   1.000  O
  O91      1.0000 0.74610  0.80260  0.15840  Biso   1.000  O
  O92      1.0000 0.10470  0.31220  0.08640  Biso   1.000  O
  O93      1.0000 0.04730  0.22000  0.04230  Biso   1.000  O
  O94      1.0000 0.79900  0.82980  0.10650  Biso   1.000  O
  O95      1.0000 0.45110  0.25530  0.97270  Biso   1.000  O
  Gd11     1.0000 0.28185  0.68236  0.94757  Biso   1.000  Gd
  Gd12     1.0000 0.09126  0.60052  0.26190  Biso   1.000  Gd
  O96      1.0000 0.37638  0.62380  0.95829  Biso   1.000  O
  O97      1.0000 0.34961  0.72460  0.90199  Biso   1.000  O
  O98      1.0000 0.16218  0.51750  0.23919  Biso   1.000  O
  O99      1.0000 0.28637  0.58630  0.01861  Biso   1.000  O
  O100     1.0000 0.24824  0.68721  0.05061  Biso   1.000  O
  O101     1.0000 0.34848  0.74780  0.01923  Biso   1.000  O
  O102     1.0000 0.47185  0.82130  0.79369  Biso   1.000  O
  O103     1.0000 0.56335  0.81200  0.82671  Biso   1.000  O
  O104     1.0000 0.45205  0.01220  0.19367  Biso   1.000  O
  O105     1.0000 0.13041  0.61550  0.18203  Biso   1.000  O
  O106     1.0000 0.54116  0.00930  0.19353  Biso   1.000  O
  C121     1.0000 0.26216  0.61600  0.05202  Biso   1.000  C
  C122     1.0000 0.35421  0.80560  0.05138  Biso   1.000  C
  C123     1.0000 0.38600  0.67540  0.92618  Biso   1.000  C
  N16      1.0000 0.58070  0.58710  0.96580  Biso   1.000  N
  C124     1.0000 0.16160  0.55700  0.19670  Biso   1.000  C
  N17      1.0000 0.55757  0.78620  0.06730  Biso   1.000  N
  N18      1.0000 0.26600  0.34920  0.13250  Biso   1.000  N
  C125     1.0000 0.49210  0.98580  0.17824  Biso   1.000  C
  C126     1.0000 0.51450  0.79480  0.82660  Biso   1.000  C
  C127     1.0000 0.42499  0.89350  0.11473  Biso   1.000  C
  H46      1.0000 0.39560  0.91780  0.12620  Biso   1.000  H
  C128     1.0000 0.44260  0.67840  0.91580  Biso   1.000  C
  C129     1.0000 0.47924  0.91950  0.13667  Biso   1.000  C
  C130     1.0000 0.41267  0.83230  0.07611  Biso   1.000  C
  C131     1.0000 0.52278  0.88530  0.12028  Biso   1.000  C
  H47      1.0000 0.55990  0.90330  0.13430  Biso   1.000  H
  C132     1.0000 0.24802  0.56120  0.09355  Biso   1.000  C
  C133     1.0000 0.54780  0.68860  0.89760  Biso   1.000  C
  H48      1.0000 0.58400  0.69220  0.89220  Biso   1.000  H
  C134     1.0000 0.50500  0.73720  0.86875  Biso   1.000  C
  C135     1.0000 0.19950  0.53220  0.16220  Biso   1.000  C
  C136     1.0000 0.45690  0.79650  0.06020  Biso   1.000  C
  H49      1.0000 0.45040  0.75450  0.03440  Biso   1.000  H
  C137     1.0000 0.51050  0.82420  0.08300  Biso   1.000  C
  C138     1.0000 0.26780  0.48430  0.09740  Biso   1.000  C
  H50      1.0000 0.29230  0.46740  0.07650  Biso   1.000  H
  C139     1.0000 0.21310  0.58510  0.12543  Biso   1.000  C
  H51      1.0000 0.19860  0.63730  0.12220  Biso   1.000  H
  C140     1.0000 0.25120  0.43320  0.13220  Biso   1.000  C
  C141     1.0000 0.21880  0.45600  0.16620  Biso   1.000  C
  H52      1.0000 0.21010  0.42000  0.19160  Biso   1.000  H
  C142     1.0000 0.48410  0.62830  0.94360  Biso   1.000  C
  H53      1.0000 0.47720  0.59020  0.96860  Biso   1.000  H
  C143     1.0000 0.53610  0.63520  0.93410  Biso   1.000  C
  C144     1.0000 0.45296  0.73310  0.87846  Biso   1.000  C
  H54      1.0000 0.42420  0.76760  0.85960  Biso   1.000  H
  O107     1.0000 0.31612  0.84230  0.06486  Biso   1.000  O
  O108     1.0000 0.57200  0.54430  0.00230  Biso   1.000  O
  O109     1.0000 0.62630  0.59190  0.95650  Biso   1.000  O
  O110     1.0000 0.24610  0.30260  0.15840  Biso   1.000  O
  O111     1.0000 0.60470  0.81220  0.08640  Biso   1.000  O
  O112     1.0000 0.54730  0.72000  0.04230  Biso   1.000  O
  O113     1.0000 0.29900  0.32980  0.10650  Biso   1.000  O
  O114     1.0000 0.95110  0.75530  0.97270  Biso   1.000  O
  Gd13     1.0000 0.21815  0.18236  0.55243  Biso   1.000  Gd
  Gd14     1.0000 0.40874  0.10052  0.23810  Biso   1.000  Gd
  O115     1.0000 0.12362  0.12380  0.54171  Biso   1.000  O
  O116     1.0000 0.15039  0.22460  0.59801  Biso   1.000  O
  O117     1.0000 0.33782  0.01750  0.26081  Biso   1.000  O
  O118     1.0000 0.21363  0.08630  0.48139  Biso   1.000  O
  O119     1.0000 0.25176  0.18721  0.44939  Biso   1.000  O
  O120     1.0000 0.15152  0.24780  0.48077  Biso   1.000  O
  O121     1.0000 0.02815  0.32130  0.70631  Biso   1.000  O
  O122     1.0000 0.93665  0.31200  0.67329  Biso   1.000  O
  O123     1.0000 0.04795  0.51220  0.30633  Biso   1.000  O
  O124     1.0000 0.36959  0.11550  0.31797  Biso   1.000  O
  O125     1.0000 0.95884  0.50930  0.30647  Biso   1.000  O
  C145     1.0000 0.23784  0.11600  0.44798  Biso   1.000  C
  C146     1.0000 0.14579  0.30560  0.44862  Biso   1.000  C
  C147     1.0000 0.11400  0.17540  0.57382  Biso   1.000  C
  N19      1.0000 0.91930  0.08710  0.53420  Biso   1.000  N
  C148     1.0000 0.33840  0.05700  0.30330  Biso   1.000  C
  N20      1.0000 0.94243  0.28620  0.43270  Biso   1.000  N
  N21      1.0000 0.23400  0.84920  0.36750  Biso   1.000  N
  C149     1.0000 0.00790  0.48580  0.32176  Biso   1.000  C
  C150     1.0000 0.98550  0.29480  0.67340  Biso   1.000  C
  C151     1.0000 0.07501  0.39350  0.38527  Biso   1.000  C
  H55      1.0000 0.10440  0.41780  0.37380  Biso   1.000  H
  C152     1.0000 0.05740  0.17840  0.58420  Biso   1.000  C
  C153     1.0000 0.02076  0.41950  0.36333  Biso   1.000  C
  C154     1.0000 0.08733  0.33230  0.42389  Biso   1.000  C
  C155     1.0000 0.97722  0.38530  0.37972  Biso   1.000  C
  H56      1.0000 0.94010  0.40330  0.36570  Biso   1.000  H
  C156     1.0000 0.25198  0.06120  0.40645  Biso   1.000  C
  C157     1.0000 0.95220  0.18860  0.60240  Biso   1.000  C
  H57      1.0000 0.91600  0.19220  0.60780  Biso   1.000  H
  C158     1.0000 0.99500  0.23720  0.63125  Biso   1.000  C
  C159     1.0000 0.30050  0.03220  0.33780  Biso   1.000  C
  C160     1.0000 0.04310  0.29650  0.43980  Biso   1.000  C
  H58      1.0000 0.04960  0.25450  0.46560  Biso   1.000  H
  C161     1.0000 0.98950  0.32420  0.41700  Biso   1.000  C
  C162     1.0000 0.23220  0.98430  0.40260  Biso   1.000  C
  H59      1.0000 0.20770  0.96740  0.42350  Biso   1.000  H
  C163     1.0000 0.28690  0.08510  0.37457  Biso   1.000  C
  H60      1.0000 0.30140  0.13730  0.37780  Biso   1.000  H
  C164     1.0000 0.24880  0.93320  0.36780  Biso   1.000  C
  C165     1.0000 0.28120  0.95600  0.33380  Biso   1.000  C
  H61      1.0000 0.28990  0.92000  0.30840  Biso   1.000  H
  C166     1.0000 0.01590  0.12830  0.55640  Biso   1.000  C
  H62      1.0000 0.02280  0.09020  0.53140  Biso   1.000  H
  C167     1.0000 0.96390  0.13520  0.56590  Biso   1.000  C
  C168     1.0000 0.04704  0.23310  0.62154  Biso   1.000  C
  H63      1.0000 0.07580  0.26760  0.64040  Biso   1.000  H
  O126     1.0000 0.18388  0.34230  0.43514  Biso   1.000  O
  O127     1.0000 0.92800  0.04430  0.49770  Biso   1.000  O
  O128     1.0000 0.87370  0.09190  0.54350  Biso   1.000  O
  O129     1.0000 0.25390  0.80260  0.34160  Biso   1.000  O
  O130     1.0000 0.89530  0.31220  0.41360  Biso   1.000  O
  O131     1.0000 0.95270  0.22000  0.45770  Biso   1.000  O
  O132     1.0000 0.20100  0.82980  0.39350  Biso   1.000  O
  O133     1.0000 0.54890  0.25530  0.52730  Biso   1.000  O
  Gd15     1.0000 0.71815  0.68236  0.55243  Biso   1.000  Gd
  Gd16     1.0000 0.90874  0.60052  0.23810  Biso   1.000  Gd
  O134     1.0000 0.62362  0.62380  0.54171  Biso   1.000  O
  O135     1.0000 0.65039  0.72460  0.59801  Biso   1.000  O
  O136     1.0000 0.83782  0.51750  0.26081  Biso   1.000  O
  O137     1.0000 0.71363  0.58630  0.48139  Biso   1.000  O
  O138     1.0000 0.75176  0.68721  0.44939  Biso   1.000  O
  O139     1.0000 0.65152  0.74780  0.48077  Biso   1.000  O
  O140     1.0000 0.52815  0.82130  0.70631  Biso   1.000  O
  O141     1.0000 0.43665  0.81200  0.67329  Biso   1.000  O
  O142     1.0000 0.54795  0.01220  0.30633  Biso   1.000  O
  O143     1.0000 0.86959  0.61550  0.31797  Biso   1.000  O
  O144     1.0000 0.45884  0.00930  0.30647  Biso   1.000  O
  C169     1.0000 0.73784  0.61600  0.44798  Biso   1.000  C
  C170     1.0000 0.64579  0.80560  0.44862  Biso   1.000  C
  C171     1.0000 0.61400  0.67540  0.57382  Biso   1.000  C
  N22      1.0000 0.41930  0.58710  0.53420  Biso   1.000  N
  C172     1.0000 0.83840  0.55700  0.30330  Biso   1.000  C
  N23      1.0000 0.44243  0.78620  0.43270  Biso   1.000  N
  N24      1.0000 0.73400  0.34920  0.36750  Biso   1.000  N
  C173     1.0000 0.50790  0.98580  0.32176  Biso   1.000  C
  C174     1.0000 0.48550  0.79480  0.67340  Biso   1.000  C
  C175     1.0000 0.57501  0.89350  0.38527  Biso   1.000  C
  H64      1.0000 0.60440  0.91780  0.37380  Biso   1.000  H
  C176     1.0000 0.55740  0.67840  0.58420  Biso   1.000  C
  C177     1.0000 0.52076  0.91950  0.36333  Biso   1.000  C
  C178     1.0000 0.58733  0.83230  0.42389  Biso   1.000  C
  C179     1.0000 0.47722  0.88530  0.37972  Biso   1.000  C
  H65      1.0000 0.44010  0.90330  0.36570  Biso   1.000  H
  C180     1.0000 0.75198  0.56120  0.40645  Biso   1.000  C
  C181     1.0000 0.45220  0.68860  0.60240  Biso   1.000  C
  H66      1.0000 0.41600  0.69220  0.60780  Biso   1.000  H
  C182     1.0000 0.49500  0.73720  0.63125  Biso   1.000  C
  C183     1.0000 0.80050  0.53220  0.33780  Biso   1.000  C
  C184     1.0000 0.54310  0.79650  0.43980  Biso   1.000  C
  H67      1.0000 0.54960  0.75450  0.46560  Biso   1.000  H
  C185     1.0000 0.48950  0.82420  0.41700  Biso   1.000  C
  C186     1.0000 0.73220  0.48430  0.40260  Biso   1.000  C
  H68      1.0000 0.70770  0.46740  0.42350  Biso   1.000  H
  C187     1.0000 0.78690  0.58510  0.37457  Biso   1.000  C
  H69      1.0000 0.80140  0.63730  0.37780  Biso   1.000  H
  C188     1.0000 0.74880  0.43320  0.36780  Biso   1.000  C
  C189     1.0000 0.78120  0.45600  0.33380  Biso   1.000  C
  H70      1.0000 0.78990  0.42000  0.30840  Biso   1.000  H
  C190     1.0000 0.51590  0.62830  0.55640  Biso   1.000  C
  H71      1.0000 0.52280  0.59020  0.53140  Biso   1.000  H
  C191     1.0000 0.46390  0.63520  0.56590  Biso   1.000  C
  C192     1.0000 0.54704  0.73310  0.62154  Biso   1.000  C
  H72      1.0000 0.57580  0.76760  0.64040  Biso   1.000  H
  O145     1.0000 0.68388  0.84230  0.43514  Biso   1.000  O
  O146     1.0000 0.42800  0.54430  0.49770  Biso   1.000  O
  O147     1.0000 0.37370  0.59190  0.54350  Biso   1.000  O
  O148     1.0000 0.75390  0.30260  0.34160  Biso   1.000  O
  O149     1.0000 0.39530  0.81220  0.41360  Biso   1.000  O
  O150     1.0000 0.45270  0.72000  0.45770  Biso   1.000  O
  O151     1.0000 0.70100  0.32980  0.39350  Biso   1.000  O
  O152     1.0000 0.04890  0.75530  0.52730  Biso   1.000  O
