data_image0
_cell_length_a       14.3239
_cell_length_b       15.3167
_cell_length_c       25.468
_cell_angle_alpha    87.994
_cell_angle_beta     85.151
_cell_angle_gamma    63.419

_symmetry_space_group_name_H-M    "P 1"
_symmetry_int_tables_number       1

loop_
  _symmetry_equiv_pos_as_xyz
  'x, y, z'

loop_
  _atom_site_label
  _atom_site_occupancy
  _atom_site_fract_x
  _atom_site_fract_y
  _atom_site_fract_z
  _atom_site_thermal_displace_type
  _atom_site_B_iso_or_equiv
  _atom_site_type_symbol
  Gd1      1.0000 0.46018  0.24288  0.32299  Biso   1.000  Gd
  Gd2      1.0000 0.54482  0.14896  0.15259  Biso   1.000  Gd
  Gd3      1.0000 0.17023  0.45465  0.98270  Biso   1.000  Gd
  Gd4      1.0000 0.15342  0.92870  0.47523  Biso   1.000  Gd
  O1       1.0000 0.26350  0.01060  0.49220  Biso   1.000  O
  O2       1.0000 0.37470  0.27270  0.17940  Biso   1.000  O
  O3       1.0000 0.48610  0.06160  0.21087  Biso   1.000  O
  C1       1.0000 0.63620  0.43360  0.16080  Biso   1.000  C
  H1       1.0000 0.64540  0.39530  0.13050  Biso   1.000  H
  O4       1.0000 0.86590  0.21790  0.50211  Biso   1.000  O
  O5       1.0000 0.26080  0.82950  0.39080  Biso   1.000  O
  O6       1.0000 0.53870  0.31000  0.25758  Biso   1.000  O
  O7       1.0000 0.32210  0.13470  0.41990  Biso   1.000  O
  O8       1.0000 0.62110  0.11530  0.29537  Biso   1.000  O
  O9       1.0000 0.21120  0.98760  0.39733  Biso   1.000  O
  O10      1.0000 0.05300  0.85100  0.17430  Biso   1.000  O
  O11      1.0000 0.66140  0.98450  0.11162  Biso   1.000  O
  O12      1.0000 0.08380  0.43700  0.05924  Biso   1.000  O
  O13      1.0000 0.41850  0.12290  0.29070  Biso   1.000  O
  O14      1.0000 0.83640  0.54450  0.46710  Biso   1.000  O
  O15      1.0000 0.67990  0.07640  0.21163  Biso   1.000  O
  O16      1.0000 0.39780  0.69760  0.20760  Biso   1.000  O
  O17      1.0000 0.97160  0.56410  0.43960  Biso   1.000  O
  O18      1.0000 0.59800  0.68180  0.28740  Biso   1.000  O
  O19      1.0000 0.08500  0.00410  0.05190  Biso   1.000  O
  O20      1.0000 0.33390  0.32260  0.26343  Biso   1.000  O
  O21      1.0000 0.46980  0.76860  0.15630  Biso   1.000  O
  O22      1.0000 0.58890  0.57000  0.33760  Biso   1.000  O
  O23      1.0000 0.84850  0.52820  0.28130  Biso   1.000  O
  O24      1.0000 0.58140  0.28000  0.17047  Biso   1.000  O
  O25      1.0000 0.70990  0.61430  0.09908  Biso   1.000  O
  O26      1.0000 0.89470  0.65460  0.03910  Biso   1.000  O
  O27      1.0000 0.71530  0.09870  0.10131  Biso   1.000  O
  O28      1.0000 0.05870  0.61780  0.00747  Biso   1.000  O
  O29      1.0000 0.92200  0.47580  0.09300  Biso   1.000  O
  O30      1.0000 0.03690  0.93210  0.41243  Biso   1.000  O
  O31      1.0000 0.72630  0.47620  0.06691  Biso   1.000  O
  O32      1.0000 0.30210  0.27210  0.37755  Biso   1.000  O
  O33      1.0000 0.86780  0.03400  0.43305  Biso   1.000  O
  N1       1.0000 0.94060  0.48870  0.28950  Biso   1.000  N
  N2       1.0000 0.59940  0.60240  0.29410  Biso   1.000  N
  O34      1.0000 0.01410  0.08880  0.47889  Biso   1.000  O
  C2       1.0000 0.81920  0.01940  0.32990  Biso   1.000  C
  H2       1.0000 0.76310  0.05860  0.35430  Biso   1.000  H
  C3       1.0000 0.70050  0.53690  0.10380  Biso   1.000  C
  C4       1.0000 0.65960  0.51270  0.15620  Biso   1.000  C
  C5       1.0000 0.94380  0.97890  0.40220  Biso   1.000  C
  C6       1.0000 0.05540  0.43120  0.15130  Biso   1.000  C
  C7       1.0000 0.15360  0.26760  0.42360  Biso   1.000  C
  C8       1.0000 0.12370  0.40600  0.25210  Biso   1.000  C
  H3       1.0000 0.14640  0.39910  0.28670  Biso   1.000  H
  C9       1.0000 0.01790  0.89080  0.05250  Biso   1.000  C
  N3       1.0000 0.06590  0.84260  0.22160  Biso   1.000  N
  C10      1.0000 0.95850  0.18020  0.48220  Biso   1.000  C
  C11      1.0000 0.95320  0.77460  0.04220  Biso   1.000  C
  C12      1.0000 0.85450  0.84450  0.06120  Biso   1.000  C
  H4       1.0000 0.79730  0.82860  0.06410  Biso   1.000  H
  C13      1.0000 0.58910  0.46480  0.25320  Biso   1.000  C
  H5       1.0000 0.56570  0.44910  0.28650  Biso   1.000  H
  C14      1.0000 0.03640  0.79840  0.03750  Biso   1.000  C
  H6       1.0000 0.10420  0.75230  0.02430  Biso   1.000  H
  C15      1.0000 0.34990  0.98100  0.31200  Biso   1.000  C
  H7       1.0000 0.33260  0.03050  0.33770  Biso   1.000  H
  C16      1.0000 0.42760  0.91230  0.22620  Biso   1.000  C
  H8       1.0000 0.46370  0.91390  0.19340  Biso   1.000  H
  C17      1.0000 0.57100  0.32610  0.21280  Biso   1.000  C
  C18      1.0000 0.01860  0.45200  0.24390  Biso   1.000  C
  N4       1.0000 0.10540  0.91720  0.04810  Biso   1.000  N
  N5       1.0000 0.92930  0.51230  0.45100  Biso   1.000  N
  C19      1.0000 0.99080  0.40650  0.44700  Biso   1.000  C
  C20      1.0000 0.83830  0.93710  0.07610  Biso   1.000  C
  C21      1.0000 0.43780  0.06310  0.25480  Biso   1.000  C
  C22      1.0000 0.10680  0.20760  0.44000  Biso   1.000  C
  H9       1.0000 0.14590  0.13890  0.43630  Biso   1.000  H
  C23      1.0000 0.69100  0.07340  0.25970  Biso   1.000  C
  C24      1.0000 0.16180  0.38390  0.15820  Biso   1.000  C
  H10      1.0000 0.21110  0.36140  0.12840  Biso   1.000  H
  C25      1.0000 0.98230  0.46570  0.19430  Biso   1.000  C
  H11      1.0000 0.90940  0.49780  0.18980  Biso   1.000  H
  C26      1.0000 0.79990  0.01380  0.27740  Biso   1.000  C
  C27      1.0000 0.31110  0.31760  0.21750  Biso   1.000  C
  C28      1.0000 0.00110  0.90910  0.31090  Biso   1.000  C
  H12      1.0000 0.07010  0.87280  0.32160  Biso   1.000  H
  C29      1.0000 0.31980  0.90690  0.32170  Biso   1.000  C
  C30      1.0000 0.92050  0.96100  0.07120  Biso   1.000  C
  H13      1.0000 0.91060  0.02420  0.08050  Biso   1.000  H
  C31      1.0000 0.40560  0.98240  0.26450  Biso   1.000  C
  C32      1.0000 0.94540  0.34730  0.46550  Biso   1.000  C
  H14      1.0000 0.87520  0.37500  0.48040  Biso   1.000  H
  C33      1.0000 0.26050  0.90630  0.37390  Biso   1.000  C
  C34      1.0000 0.09460  0.36790  0.42670  Biso   1.000  C
  H15      1.0000 0.12470  0.40990  0.41500  Biso   1.000  H
  C35      1.0000 0.61300  0.54240  0.24780  Biso   1.000  C
  C36      1.0000 0.73130  0.01140  0.09750  Biso   1.000  C
  C37      1.0000 0.01770  0.44890  0.09720  Biso   1.000  C
  C38      1.0000 0.34410  0.83440  0.28470  Biso   1.000  C
  H16      1.0000 0.32590  0.78240  0.29180  Biso   1.000  H
  C39      1.0000 0.97980  0.90430  0.25950  Biso   1.000  C
  C40      1.0000 0.97010  0.67400  0.02830  Biso   1.000  C
  C41      1.0000 0.59990  0.40960  0.20850  Biso   1.000  C
  C42      1.0000 0.91990  0.96800  0.34690  Biso   1.000  C
  N6       1.0000 0.42110  0.76380  0.19740  Biso   1.000  N
  C43      1.0000 0.19610  0.36960  0.20850  Biso   1.000  C
  C44      1.0000 0.88100  0.95630  0.24180  Biso   1.000  C
  H17      1.0000 0.86920  0.95260  0.20590  Biso   1.000  H
  C45      1.0000 0.64810  0.56800  0.20010  Biso   1.000  C
  H18      1.0000 0.66370  0.62210  0.19760  Biso   1.000  H
  C46      1.0000 0.39590  0.83960  0.23680  Biso   1.000  C
  C47      1.0000 0.00430  0.24650  0.46180  Biso   1.000  C
  C48      1.0000 0.26880  0.22060  0.40500  Biso   1.000  C
  O35      1.0000 0.96610  0.46360  0.33310  Biso   1.000  O
  O36      1.0000 0.14810  0.78530  0.24050  Biso   1.000  O
  O37      1.0000 0.19410  0.84920  0.04140  Biso   1.000  O
  H19      1.0000 0.27770  0.02440  0.52480  Biso   1.000  H
  O38      1.0000 0.97650  0.49400  0.33320  Biso   1.000  O
  O39      1.0000 0.09220  0.98810  0.07490  Biso   1.000  O
  O40      1.0000 0.18440  0.86530  0.01980  Biso   1.000  O
  O41      1.0000 0.95900  0.16400  0.82260  Biso   1.000  O
  O42      1.0000 0.84350  0.18980  0.76630  Biso   1.000  O
  Gd5      1.0000 0.53982  0.75712  0.67700  Biso   1.000  Gd
  Gd6      1.0000 0.45518  0.85104  0.84741  Biso   1.000  Gd
  Gd7      1.0000 0.82977  0.54535  0.01730  Biso   1.000  Gd
  Gd8      1.0000 0.84658  0.07130  0.52476  Biso   1.000  Gd
  O43      1.0000 0.73650  0.98940  0.50780  Biso   1.000  O
  O44      1.0000 0.62530  0.72730  0.82060  Biso   1.000  O
  O45      1.0000 0.51390  0.93840  0.78913  Biso   1.000  O
  C49      1.0000 0.36380  0.56640  0.83920  Biso   1.000  C
  H20      1.0000 0.35460  0.60470  0.86950  Biso   1.000  H
  O46      1.0000 0.13410  0.78210  0.49789  Biso   1.000  O
  O47      1.0000 0.73920  0.17050  0.60920  Biso   1.000  O
  O48      1.0000 0.46130  0.69000  0.74242  Biso   1.000  O
  O49      1.0000 0.67790  0.86530  0.58010  Biso   1.000  O
  O50      1.0000 0.37890  0.88470  0.70463  Biso   1.000  O
  O51      1.0000 0.78880  0.01240  0.60267  Biso   1.000  O
  O52      1.0000 0.94700  0.14900  0.82570  Biso   1.000  O
  O53      1.0000 0.33860  0.01550  0.88838  Biso   1.000  O
  O54      1.0000 0.91620  0.56300  0.94076  Biso   1.000  O
  O55      1.0000 0.58150  0.87710  0.70930  Biso   1.000  O
  O56      1.0000 0.16360  0.45550  0.53290  Biso   1.000  O
  O57      1.0000 0.32010  0.92360  0.78837  Biso   1.000  O
  O58      1.0000 0.60220  0.30240  0.79240  Biso   1.000  O
  O59      1.0000 0.02840  0.43590  0.56040  Biso   1.000  O
  O60      1.0000 0.40200  0.31820  0.71260  Biso   1.000  O
  O61      1.0000 0.91500  0.99590  0.94810  Biso   1.000  O
  O62      1.0000 0.66610  0.67740  0.73657  Biso   1.000  O
  O63      1.0000 0.53020  0.23140  0.84370  Biso   1.000  O
  O64      1.0000 0.41110  0.43000  0.66240  Biso   1.000  O
  O65      1.0000 0.15150  0.47180  0.71870  Biso   1.000  O
  O66      1.0000 0.41860  0.72000  0.82953  Biso   1.000  O
  O67      1.0000 0.29010  0.38570  0.90092  Biso   1.000  O
  O68      1.0000 0.10530  0.34540  0.96090  Biso   1.000  O
  O69      1.0000 0.28470  0.90130  0.89869  Biso   1.000  O
  O70      1.0000 0.94130  0.38220  0.99253  Biso   1.000  O
  O71      1.0000 0.07800  0.52420  0.90700  Biso   1.000  O
  O72      1.0000 0.96310  0.06790  0.58757  Biso   1.000  O
  O73      1.0000 0.27370  0.52380  0.93309  Biso   1.000  O
  O74      1.0000 0.69790  0.72790  0.62245  Biso   1.000  O
  O75      1.0000 0.13220  0.96600  0.56695  Biso   1.000  O
  N7       1.0000 0.05940  0.51130  0.71050  Biso   1.000  N
  N8       1.0000 0.40060  0.39760  0.70590  Biso   1.000  N
  O76      1.0000 0.98590  0.91120  0.52111  Biso   1.000  O
  C50      1.0000 0.18080  0.98060  0.67010  Biso   1.000  C
  H21      1.0000 0.23690  0.94140  0.64570  Biso   1.000  H
  C51      1.0000 0.29950  0.46310  0.89620  Biso   1.000  C
  C52      1.0000 0.34040  0.48730  0.84380  Biso   1.000  C
  C53      1.0000 0.05620  0.02110  0.59780  Biso   1.000  C
  C54      1.0000 0.94460  0.56880  0.84870  Biso   1.000  C
  C55      1.0000 0.84640  0.73240  0.57640  Biso   1.000  C
  C56      1.0000 0.87630  0.59400  0.74790  Biso   1.000  C
  H22      1.0000 0.85360  0.60090  0.71330  Biso   1.000  H
  C57      1.0000 0.98210  0.10920  0.94750  Biso   1.000  C
  N9       1.0000 0.93410  0.15740  0.77840  Biso   1.000  N
  C58      1.0000 0.04150  0.81980  0.51780  Biso   1.000  C
  C59      1.0000 0.04680  0.22540  0.95780  Biso   1.000  C
  C60      1.0000 0.14550  0.15550  0.93880  Biso   1.000  C
  H23      1.0000 0.20270  0.17140  0.93590  Biso   1.000  H
  C61      1.0000 0.41090  0.53520  0.74680  Biso   1.000  C
  H24      1.0000 0.43430  0.55090  0.71350  Biso   1.000  H
  C62      1.0000 0.96360  0.20160  0.96250  Biso   1.000  C
  H25      1.0000 0.89580  0.24770  0.97570  Biso   1.000  H
  C63      1.0000 0.65010  0.01900  0.68800  Biso   1.000  C
  H26      1.0000 0.66740  0.96950  0.66230  Biso   1.000  H
  C64      1.0000 0.57240  0.08770  0.77380  Biso   1.000  C
  H27      1.0000 0.53630  0.08610  0.80660  Biso   1.000  H
  C65      1.0000 0.42900  0.67390  0.78720  Biso   1.000  C
  C66      1.0000 0.98140  0.54800  0.75610  Biso   1.000  C
  N10      1.0000 0.89460  0.08280  0.95190  Biso   1.000  N
  N11      1.0000 0.07070  0.48770  0.54900  Biso   1.000  N
  C67      1.0000 0.00920  0.59350  0.55300  Biso   1.000  C
  C68      1.0000 0.16170  0.06290  0.92390  Biso   1.000  C
  C69      1.0000 0.56220  0.93690  0.74520  Biso   1.000  C
  C70      1.0000 0.89320  0.79240  0.56000  Biso   1.000  C
  H28      1.0000 0.85410  0.86110  0.56370  Biso   1.000  H
  C71      1.0000 0.30900  0.92660  0.74030  Biso   1.000  C
  C72      1.0000 0.83820  0.61610  0.84180  Biso   1.000  C
  H29      1.0000 0.78890  0.63860  0.87160  Biso   1.000  H
  C73      1.0000 0.01770  0.53430  0.80570  Biso   1.000  C
  H30      1.0000 0.09060  0.50220  0.81020  Biso   1.000  H
  C74      1.0000 0.20010  0.98620  0.72260  Biso   1.000  C
  C75      1.0000 0.68890  0.68240  0.78250  Biso   1.000  C
  C76      1.0000 0.99890  0.09090  0.68910  Biso   1.000  C
  H31      1.0000 0.92990  0.12720  0.67840  Biso   1.000  H
  C77      1.0000 0.68020  0.09310  0.67830  Biso   1.000  C
  C78      1.0000 0.07950  0.03900  0.92880  Biso   1.000  C
  H32      1.0000 0.08940  0.97580  0.91950  Biso   1.000  H
  C79      1.0000 0.59440  0.01760  0.73550  Biso   1.000  C
  C80      1.0000 0.05460  0.65270  0.53450  Biso   1.000  C
  H33      1.0000 0.12480  0.62500  0.51960  Biso   1.000  H
  C81      1.0000 0.73950  0.09370  0.62610  Biso   1.000  C
  C82      1.0000 0.90540  0.63210  0.57330  Biso   1.000  C
  H34      1.0000 0.87530  0.59010  0.58500  Biso   1.000  H
  C83      1.0000 0.38700  0.45760  0.75220  Biso   1.000  C
  C84      1.0000 0.26870  0.98860  0.90250  Biso   1.000  C
  C85      1.0000 0.98230  0.55110  0.90280  Biso   1.000  C
  C86      1.0000 0.65590  0.16560  0.71530  Biso   1.000  C
  H35      1.0000 0.67410  0.21760  0.70820  Biso   1.000  H
  C87      1.0000 0.02020  0.09570  0.74050  Biso   1.000  C
  C88      1.0000 0.02990  0.32600  0.97170  Biso   1.000  C
  C89      1.0000 0.40010  0.59040  0.79150  Biso   1.000  C
  C90      1.0000 0.08010  0.03200  0.65310  Biso   1.000  C
  N12      1.0000 0.57890  0.23620  0.80260  Biso   1.000  N
  C91      1.0000 0.80390  0.63040  0.79150  Biso   1.000  C
  C92      1.0000 0.11900  0.04370  0.75820  Biso   1.000  C
  H36      1.0000 0.13080  0.04740  0.79410  Biso   1.000  H
  C93      1.0000 0.35190  0.43200  0.79990  Biso   1.000  C
  H37      1.0000 0.33630  0.37790  0.80240  Biso   1.000  H
  C94      1.0000 0.60410  0.16040  0.76320  Biso   1.000  C
  C95      1.0000 0.99570  0.75350  0.53820  Biso   1.000  C
  C96      1.0000 0.73120  0.77940  0.59500  Biso   1.000  C
  O77      1.0000 0.03390  0.53640  0.66690  Biso   1.000  O
  O78      1.0000 0.85190  0.21470  0.75950  Biso   1.000  O
  O79      1.0000 0.80590  0.15080  0.95860  Biso   1.000  O
  H38      1.0000 0.72230  0.97560  0.47520  Biso   1.000  H
  O80      1.0000 0.02350  0.50600  0.66680  Biso   1.000  O
  O81      1.0000 0.90780  0.01190  0.92510  Biso   1.000  O
  O82      1.0000 0.81560  0.13470  0.98020  Biso   1.000  O
  O83      1.0000 0.04100  0.83600  0.17740  Biso   1.000  O
  O84      1.0000 0.15650  0.81020  0.23370  Biso   1.000  O
