data_image0
_cell_length_a       18.567
_cell_length_b       9.934
_cell_length_c       30.764
_cell_angle_alpha    90
_cell_angle_beta     90
_cell_angle_gamma    90

_symmetry_space_group_name_H-M    "P 1"
_symmetry_int_tables_number       1

loop_
  _symmetry_equiv_pos_as_xyz
  'x, y, z'

loop_
  _atom_site_label
  _atom_site_occupancy
  _atom_site_fract_x
  _atom_site_fract_y
  _atom_site_fract_z
  _atom_site_thermal_displace_type
  _atom_site_B_iso_or_equiv
  _atom_site_type_symbol
  N1       1.0000 0.92100  0.67490  0.20413  Biso   1.000  N
  O1       1.0000 0.72780  0.54230  0.09917  Biso   1.000  O
  N2       1.0000 0.76300  0.85360  0.91640  Biso   1.000  N
  N3       1.0000 0.73560  0.76530  0.08641  Biso   1.000  N
  H1       1.0000 0.75300  0.84140  0.09460  Biso   1.000  H
  O2       1.0000 0.77370  0.66490  0.89890  Biso   1.000  O
  C1       1.0000 0.68930  0.79660  0.85760  Biso   1.000  C
  C2       1.0000 0.68820  0.70760  0.82230  Biso   1.000  C
  H2       1.0000 0.72050  0.63760  0.81750  Biso   1.000  H
  C3       1.0000 0.63700  0.88900  0.86150  Biso   1.000  C
  H3       1.0000 0.63670  0.93870  0.88700  Biso   1.000  H
  C4       1.0000 0.74430  0.77320  0.89320  Biso   1.000  C
  O3       1.0000 0.74180  0.03850  0.90790  Biso   1.000  O
  C5       1.0000 0.68070  0.89450  0.86250  Biso   1.000  C
  C6       1.0000 0.68700  0.78240  0.83340  Biso   1.000  C
  H4       1.0000 0.72750  0.72840  0.83670  Biso   1.000  H
  C7       1.0000 0.62020  0.97140  0.85760  Biso   1.000  C
  H5       1.0000 0.61110  0.04930  0.87340  Biso   1.000  H
  C8       1.0000 0.73240  0.92300  0.89760  Biso   1.000  C
  N4       1.0000 0.57860  0.82910  0.79684  Biso   1.000  N
  C9       1.0000 0.63280  0.74080  0.79660  Biso   1.000  C
  H6       1.0000 0.63170  0.68750  0.77180  Biso   1.000  H
  C10      1.0000 0.57600  0.92240  0.82760  Biso   1.000  C
  H7       1.0000 0.54400  0.99440  0.82890  Biso   1.000  H
  C11      1.0000 0.81200  0.66620  0.14186  Biso   1.000  C
  C12      1.0000 0.86060  0.76920  0.14353  Biso   1.000  C
  H8       1.0000 0.85720  0.83980  0.12380  Biso   1.000  H
  C13      1.0000 0.91450  0.76940  0.17392  Biso   1.000  C
  H9       1.0000 0.94800  0.83900  0.17340  Biso   1.000  H
  C14      1.0000 0.87120  0.57380  0.20320  Biso   1.000  C
  H10      1.0000 0.87370  0.50710  0.22440  Biso   1.000  H
  C15      1.0000 0.81820  0.56610  0.17296  Biso   1.000  C
  H11      1.0000 0.78620  0.49410  0.17310  Biso   1.000  H
  C16      1.0000 0.75420  0.65390  0.10748  Biso   1.000  C
  C17      1.0000 0.81260  0.85850  0.95300  Biso   1.000  C
  H12      1.0000 0.82180  0.95160  0.96070  Biso   1.000  H
  H13      1.0000 0.85810  0.81780  0.94460  Biso   1.000  H
  C18      1.0000 0.78180  0.78340  0.99290  Biso   1.000  C
  H14      1.0000 0.76960  0.69220  0.98440  Biso   1.000  H
  H15      1.0000 0.81890  0.77800  0.01510  Biso   1.000  H
  C19      1.0000 0.71550  0.85000  0.01230  Biso   1.000  C
  H16      1.0000 0.67900  0.86120  0.99010  Biso   1.000  H
  H17      1.0000 0.72790  0.93820  0.02350  Biso   1.000  H
  C20      1.0000 0.68600  0.76040  0.04950  Biso   1.000  C
  H18      1.0000 0.63890  0.79230  0.05830  Biso   1.000  H
  H19      1.0000 0.68110  0.66840  0.03940  Biso   1.000  H
  N5       1.0000 0.57900  0.82510  0.70413  Biso   1.000  N
  O4       1.0000 0.77220  0.95770  0.59917  Biso   1.000  O
  N6       1.0000 0.73700  0.64640  0.41640  Biso   1.000  N
  N7       1.0000 0.76440  0.73470  0.58641  Biso   1.000  N
  H20      1.0000 0.74700  0.65860  0.59460  Biso   1.000  H
  O5       1.0000 0.72630  0.83510  0.39890  Biso   1.000  O
  C21      1.0000 0.81070  0.70340  0.35760  Biso   1.000  C
  C22      1.0000 0.81180  0.79240  0.32230  Biso   1.000  C
  H21      1.0000 0.77950  0.86240  0.31750  Biso   1.000  H
  C23      1.0000 0.86300  0.61100  0.36150  Biso   1.000  C
  H22      1.0000 0.86330  0.56130  0.38700  Biso   1.000  H
  C24      1.0000 0.75570  0.72680  0.39320  Biso   1.000  C
  O6       1.0000 0.75820  0.46150  0.40790  Biso   1.000  O
  C25      1.0000 0.81930  0.60550  0.36250  Biso   1.000  C
  C26      1.0000 0.81300  0.71760  0.33340  Biso   1.000  C
  H23      1.0000 0.77250  0.77160  0.33670  Biso   1.000  H
  C27      1.0000 0.87980  0.52860  0.35760  Biso   1.000  C
  H24      1.0000 0.88890  0.45070  0.37340  Biso   1.000  H
  C28      1.0000 0.76760  0.57700  0.39760  Biso   1.000  C
  N8       1.0000 0.92140  0.67090  0.29684  Biso   1.000  N
  C29      1.0000 0.86720  0.75920  0.29660  Biso   1.000  C
  H25      1.0000 0.86830  0.81250  0.27180  Biso   1.000  H
  C30      1.0000 0.92400  0.57760  0.32760  Biso   1.000  C
  H26      1.0000 0.95600  0.50560  0.32890  Biso   1.000  H
  C31      1.0000 0.68800  0.83380  0.64186  Biso   1.000  C
  C32      1.0000 0.63940  0.73080  0.64353  Biso   1.000  C
  H27      1.0000 0.64280  0.66020  0.62380  Biso   1.000  H
  C33      1.0000 0.58550  0.73060  0.67392  Biso   1.000  C
  H28      1.0000 0.55200  0.66100  0.67340  Biso   1.000  H
  C34      1.0000 0.62880  0.92620  0.70320  Biso   1.000  C
  H29      1.0000 0.62630  0.99290  0.72440  Biso   1.000  H
  C35      1.0000 0.68180  0.93390  0.67296  Biso   1.000  C
  H30      1.0000 0.71380  0.00590  0.67310  Biso   1.000  H
  C36      1.0000 0.74580  0.84610  0.60748  Biso   1.000  C
  C37      1.0000 0.68740  0.64150  0.45300  Biso   1.000  C
  H31      1.0000 0.67820  0.54840  0.46070  Biso   1.000  H
  H32      1.0000 0.64190  0.68220  0.44460  Biso   1.000  H
  C38      1.0000 0.71820  0.71660  0.49290  Biso   1.000  C
  H33      1.0000 0.73040  0.80780  0.48440  Biso   1.000  H
  H34      1.0000 0.68110  0.72200  0.51510  Biso   1.000  H
  C39      1.0000 0.78450  0.65000  0.51230  Biso   1.000  C
  H35      1.0000 0.82100  0.63880  0.49010  Biso   1.000  H
  H36      1.0000 0.77210  0.56180  0.52350  Biso   1.000  H
  C40      1.0000 0.81400  0.73960  0.54950  Biso   1.000  C
  H37      1.0000 0.86110  0.70770  0.55830  Biso   1.000  H
  H38      1.0000 0.81890  0.83160  0.53940  Biso   1.000  H
  N9       1.0000 0.07900  0.67490  0.29587  Biso   1.000  N
  O7       1.0000 0.27220  0.54230  0.40083  Biso   1.000  O
  N10      1.0000 0.23700  0.85360  0.58360  Biso   1.000  N
  N11      1.0000 0.26440  0.76530  0.41359  Biso   1.000  N
  H39      1.0000 0.24700  0.84140  0.40540  Biso   1.000  H
  O8       1.0000 0.22630  0.66490  0.60110  Biso   1.000  O
  C41      1.0000 0.31070  0.79660  0.64240  Biso   1.000  C
  C42      1.0000 0.31180  0.70760  0.67770  Biso   1.000  C
  H40      1.0000 0.27950  0.63760  0.68250  Biso   1.000  H
  C43      1.0000 0.36300  0.88900  0.63850  Biso   1.000  C
  H41      1.0000 0.36330  0.93870  0.61300  Biso   1.000  H
  C44      1.0000 0.25570  0.77320  0.60680  Biso   1.000  C
  O9       1.0000 0.25820  0.03850  0.59210  Biso   1.000  O
  C45      1.0000 0.31930  0.89450  0.63750  Biso   1.000  C
  C46      1.0000 0.31300  0.78240  0.66660  Biso   1.000  C
  H42      1.0000 0.27250  0.72840  0.66330  Biso   1.000  H
  C47      1.0000 0.37980  0.97140  0.64240  Biso   1.000  C
  H43      1.0000 0.38890  0.04930  0.62660  Biso   1.000  H
  C48      1.0000 0.26760  0.92300  0.60240  Biso   1.000  C
  N12      1.0000 0.42140  0.82910  0.70316  Biso   1.000  N
  C49      1.0000 0.36720  0.74080  0.70340  Biso   1.000  C
  H44      1.0000 0.36830  0.68750  0.72820  Biso   1.000  H
  C50      1.0000 0.42400  0.92240  0.67240  Biso   1.000  C
  H45      1.0000 0.45600  0.99440  0.67110  Biso   1.000  H
  C51      1.0000 0.18800  0.66620  0.35814  Biso   1.000  C
  C52      1.0000 0.13940  0.76920  0.35647  Biso   1.000  C
  H46      1.0000 0.14280  0.83980  0.37620  Biso   1.000  H
  C53      1.0000 0.08550  0.76940  0.32608  Biso   1.000  C
  H47      1.0000 0.05200  0.83900  0.32660  Biso   1.000  H
  C54      1.0000 0.12880  0.57380  0.29680  Biso   1.000  C
  H48      1.0000 0.12630  0.50710  0.27560  Biso   1.000  H
  C55      1.0000 0.18180  0.56610  0.32704  Biso   1.000  C
  H49      1.0000 0.21380  0.49410  0.32690  Biso   1.000  H
  C56      1.0000 0.24580  0.65390  0.39252  Biso   1.000  C
  C57      1.0000 0.18740  0.85850  0.54700  Biso   1.000  C
  H50      1.0000 0.17820  0.95160  0.53930  Biso   1.000  H
  H51      1.0000 0.14190  0.81780  0.55540  Biso   1.000  H
  C58      1.0000 0.21820  0.78340  0.50710  Biso   1.000  C
  H52      1.0000 0.23040  0.69220  0.51560  Biso   1.000  H
  H53      1.0000 0.18110  0.77800  0.48490  Biso   1.000  H
  C59      1.0000 0.28450  0.85000  0.48770  Biso   1.000  C
  H54      1.0000 0.32100  0.86120  0.50990  Biso   1.000  H
  H55      1.0000 0.27210  0.93820  0.47650  Biso   1.000  H
  C60      1.0000 0.31400  0.76040  0.45050  Biso   1.000  C
  H56      1.0000 0.36110  0.79230  0.44170  Biso   1.000  H
  H57      1.0000 0.31890  0.66840  0.46060  Biso   1.000  H
  N13      1.0000 0.42100  0.82510  0.79587  Biso   1.000  N
  O10      1.0000 0.22780  0.95770  0.90083  Biso   1.000  O
  N14      1.0000 0.26300  0.64640  0.08360  Biso   1.000  N
  N15      1.0000 0.23560  0.73470  0.91359  Biso   1.000  N
  H58      1.0000 0.25300  0.65860  0.90540  Biso   1.000  H
  O11      1.0000 0.27370  0.83510  0.10110  Biso   1.000  O
  C61      1.0000 0.18930  0.70340  0.14240  Biso   1.000  C
  C62      1.0000 0.18820  0.79240  0.17770  Biso   1.000  C
  H59      1.0000 0.22050  0.86240  0.18250  Biso   1.000  H
  C63      1.0000 0.13700  0.61100  0.13850  Biso   1.000  C
  H60      1.0000 0.13670  0.56130  0.11300  Biso   1.000  H
  C64      1.0000 0.24430  0.72680  0.10680  Biso   1.000  C
  O12      1.0000 0.24180  0.46150  0.09210  Biso   1.000  O
  C65      1.0000 0.18070  0.60550  0.13750  Biso   1.000  C
  C66      1.0000 0.18700  0.71760  0.16660  Biso   1.000  C
  H61      1.0000 0.22750  0.77160  0.16330  Biso   1.000  H
  C67      1.0000 0.12020  0.52860  0.14240  Biso   1.000  C
  H62      1.0000 0.11110  0.45070  0.12660  Biso   1.000  H
  C68      1.0000 0.23240  0.57700  0.10240  Biso   1.000  C
  N16      1.0000 0.07860  0.67090  0.20316  Biso   1.000  N
  C69      1.0000 0.13280  0.75920  0.20340  Biso   1.000  C
  H63      1.0000 0.13170  0.81250  0.22820  Biso   1.000  H
  C70      1.0000 0.07600  0.57760  0.17240  Biso   1.000  C
  H64      1.0000 0.04400  0.50560  0.17110  Biso   1.000  H
  C71      1.0000 0.31200  0.83380  0.85814  Biso   1.000  C
  C72      1.0000 0.36060  0.73080  0.85647  Biso   1.000  C
  H65      1.0000 0.35720  0.66020  0.87620  Biso   1.000  H
  C73      1.0000 0.41450  0.73060  0.82608  Biso   1.000  C
  H66      1.0000 0.44800  0.66100  0.82660  Biso   1.000  H
  C74      1.0000 0.37120  0.92620  0.79680  Biso   1.000  C
  H67      1.0000 0.37370  0.99290  0.77560  Biso   1.000  H
  C75      1.0000 0.31820  0.93390  0.82704  Biso   1.000  C
  H68      1.0000 0.28620  0.00590  0.82690  Biso   1.000  H
  C76      1.0000 0.25420  0.84610  0.89252  Biso   1.000  C
  C77      1.0000 0.31260  0.64150  0.04700  Biso   1.000  C
  H69      1.0000 0.32180  0.54840  0.03930  Biso   1.000  H
  H70      1.0000 0.35810  0.68220  0.05540  Biso   1.000  H
  C78      1.0000 0.28180  0.71660  0.00710  Biso   1.000  C
  H71      1.0000 0.26960  0.80780  0.01560  Biso   1.000  H
  H72      1.0000 0.31890  0.72200  0.98490  Biso   1.000  H
  C79      1.0000 0.21550  0.65000  0.98770  Biso   1.000  C
  H73      1.0000 0.17900  0.63880  0.00990  Biso   1.000  H
  H74      1.0000 0.22790  0.56180  0.97650  Biso   1.000  H
  C80      1.0000 0.18600  0.73960  0.95050  Biso   1.000  C
  H75      1.0000 0.13890  0.70770  0.94170  Biso   1.000  H
  H76      1.0000 0.18110  0.83160  0.96060  Biso   1.000  H
  N17      1.0000 0.07900  0.32510  0.79587  Biso   1.000  N
  O13      1.0000 0.27220  0.45770  0.90083  Biso   1.000  O
  N18      1.0000 0.23700  0.14640  0.08360  Biso   1.000  N
  N19      1.0000 0.26440  0.23470  0.91359  Biso   1.000  N
  H77      1.0000 0.24700  0.15860  0.90540  Biso   1.000  H
  O14      1.0000 0.22630  0.33510  0.10110  Biso   1.000  O
  C81      1.0000 0.31070  0.20340  0.14240  Biso   1.000  C
  C82      1.0000 0.31180  0.29240  0.17770  Biso   1.000  C
  H78      1.0000 0.27950  0.36240  0.18250  Biso   1.000  H
  C83      1.0000 0.36300  0.11100  0.13850  Biso   1.000  C
  H79      1.0000 0.36330  0.06130  0.11300  Biso   1.000  H
  C84      1.0000 0.25570  0.22680  0.10680  Biso   1.000  C
  O15      1.0000 0.25820  0.96150  0.09210  Biso   1.000  O
  C85      1.0000 0.31930  0.10550  0.13750  Biso   1.000  C
  C86      1.0000 0.31300  0.21760  0.16660  Biso   1.000  C
  H80      1.0000 0.27250  0.27160  0.16330  Biso   1.000  H
  C87      1.0000 0.37980  0.02860  0.14240  Biso   1.000  C
  H81      1.0000 0.38890  0.95070  0.12660  Biso   1.000  H
  C88      1.0000 0.26760  0.07700  0.10240  Biso   1.000  C
  N20      1.0000 0.42140  0.17090  0.20316  Biso   1.000  N
  C89      1.0000 0.36720  0.25920  0.20340  Biso   1.000  C
  H82      1.0000 0.36830  0.31250  0.22820  Biso   1.000  H
  C90      1.0000 0.42400  0.07760  0.17240  Biso   1.000  C
  H83      1.0000 0.45600  0.00560  0.17110  Biso   1.000  H
  C91      1.0000 0.18800  0.33380  0.85814  Biso   1.000  C
  C92      1.0000 0.13940  0.23080  0.85647  Biso   1.000  C
  H84      1.0000 0.14280  0.16020  0.87620  Biso   1.000  H
  C93      1.0000 0.08550  0.23060  0.82608  Biso   1.000  C
  H85      1.0000 0.05200  0.16100  0.82660  Biso   1.000  H
  C94      1.0000 0.12880  0.42620  0.79680  Biso   1.000  C
  H86      1.0000 0.12630  0.49290  0.77560  Biso   1.000  H
  C95      1.0000 0.18180  0.43390  0.82704  Biso   1.000  C
  H87      1.0000 0.21380  0.50590  0.82690  Biso   1.000  H
  C96      1.0000 0.24580  0.34610  0.89252  Biso   1.000  C
  C97      1.0000 0.18740  0.14150  0.04700  Biso   1.000  C
  H88      1.0000 0.17820  0.04840  0.03930  Biso   1.000  H
  H89      1.0000 0.14190  0.18220  0.05540  Biso   1.000  H
  C98      1.0000 0.21820  0.21660  0.00710  Biso   1.000  C
  H90      1.0000 0.23040  0.30780  0.01560  Biso   1.000  H
  H91      1.0000 0.18110  0.22200  0.98490  Biso   1.000  H
  C99      1.0000 0.28450  0.15000  0.98770  Biso   1.000  C
  H92      1.0000 0.32100  0.13880  0.00990  Biso   1.000  H
  H93      1.0000 0.27210  0.06180  0.97650  Biso   1.000  H
  C100     1.0000 0.31400  0.23960  0.95050  Biso   1.000  C
  H94      1.0000 0.36110  0.20770  0.94170  Biso   1.000  H
  H95      1.0000 0.31890  0.33160  0.96060  Biso   1.000  H
  N21      1.0000 0.42100  0.17490  0.29587  Biso   1.000  N
  O16      1.0000 0.22780  0.04230  0.40083  Biso   1.000  O
  N22      1.0000 0.26300  0.35360  0.58360  Biso   1.000  N
  N23      1.0000 0.23560  0.26530  0.41359  Biso   1.000  N
  H96      1.0000 0.25300  0.34140  0.40540  Biso   1.000  H
  O17      1.0000 0.27370  0.16490  0.60110  Biso   1.000  O
  C101     1.0000 0.18930  0.29660  0.64240  Biso   1.000  C
  C102     1.0000 0.18820  0.20760  0.67770  Biso   1.000  C
  H97      1.0000 0.22050  0.13760  0.68250  Biso   1.000  H
  C103     1.0000 0.13700  0.38900  0.63850  Biso   1.000  C
  H98      1.0000 0.13670  0.43870  0.61300  Biso   1.000  H
  C104     1.0000 0.24430  0.27320  0.60680  Biso   1.000  C
  O18      1.0000 0.24180  0.53850  0.59210  Biso   1.000  O
  C105     1.0000 0.18070  0.39450  0.63750  Biso   1.000  C
  C106     1.0000 0.18700  0.28240  0.66660  Biso   1.000  C
  H99      1.0000 0.22750  0.22840  0.66330  Biso   1.000  H
  C107     1.0000 0.12020  0.47140  0.64240  Biso   1.000  C
  H100     1.0000 0.11110  0.54930  0.62660  Biso   1.000  H
  C108     1.0000 0.23240  0.42300  0.60240  Biso   1.000  C
  N24      1.0000 0.07860  0.32910  0.70316  Biso   1.000  N
  C109     1.0000 0.13280  0.24080  0.70340  Biso   1.000  C
  H101     1.0000 0.13170  0.18750  0.72820  Biso   1.000  H
  C110     1.0000 0.07600  0.42240  0.67240  Biso   1.000  C
  H102     1.0000 0.04400  0.49440  0.67110  Biso   1.000  H
  C111     1.0000 0.31200  0.16620  0.35814  Biso   1.000  C
  C112     1.0000 0.36060  0.26920  0.35647  Biso   1.000  C
  H103     1.0000 0.35720  0.33980  0.37620  Biso   1.000  H
  C113     1.0000 0.41450  0.26940  0.32608  Biso   1.000  C
  H104     1.0000 0.44800  0.33900  0.32660  Biso   1.000  H
  C114     1.0000 0.37120  0.07380  0.29680  Biso   1.000  C
  H105     1.0000 0.37370  0.00710  0.27560  Biso   1.000  H
  C115     1.0000 0.31820  0.06610  0.32704  Biso   1.000  C
  H106     1.0000 0.28620  0.99410  0.32690  Biso   1.000  H
  C116     1.0000 0.25420  0.15390  0.39252  Biso   1.000  C
  C117     1.0000 0.31260  0.35850  0.54700  Biso   1.000  C
  H107     1.0000 0.32180  0.45160  0.53930  Biso   1.000  H
  H108     1.0000 0.35810  0.31780  0.55540  Biso   1.000  H
  C118     1.0000 0.28180  0.28340  0.50710  Biso   1.000  C
  H109     1.0000 0.26960  0.19220  0.51560  Biso   1.000  H
  H110     1.0000 0.31890  0.27800  0.48490  Biso   1.000  H
  C119     1.0000 0.21550  0.35000  0.48770  Biso   1.000  C
  H111     1.0000 0.17900  0.36120  0.50990  Biso   1.000  H
  H112     1.0000 0.22790  0.43820  0.47650  Biso   1.000  H
  C120     1.0000 0.18600  0.26040  0.45050  Biso   1.000  C
  H113     1.0000 0.13890  0.29230  0.44170  Biso   1.000  H
  H114     1.0000 0.18110  0.16840  0.46060  Biso   1.000  H
  N25      1.0000 0.92100  0.32510  0.70413  Biso   1.000  N
  O19      1.0000 0.72780  0.45770  0.59917  Biso   1.000  O
  N26      1.0000 0.76300  0.14640  0.41640  Biso   1.000  N
  N27      1.0000 0.73560  0.23470  0.58641  Biso   1.000  N
  H115     1.0000 0.75300  0.15860  0.59460  Biso   1.000  H
  O20      1.0000 0.77370  0.33510  0.39890  Biso   1.000  O
  C121     1.0000 0.68930  0.20340  0.35760  Biso   1.000  C
  C122     1.0000 0.68820  0.29240  0.32230  Biso   1.000  C
  H116     1.0000 0.72050  0.36240  0.31750  Biso   1.000  H
  C123     1.0000 0.63700  0.11100  0.36150  Biso   1.000  C
  H117     1.0000 0.63670  0.06130  0.38700  Biso   1.000  H
  C124     1.0000 0.74430  0.22680  0.39320  Biso   1.000  C
  O21      1.0000 0.74180  0.96150  0.40790  Biso   1.000  O
  C125     1.0000 0.68070  0.10550  0.36250  Biso   1.000  C
  C126     1.0000 0.68700  0.21760  0.33340  Biso   1.000  C
  H118     1.0000 0.72750  0.27160  0.33670  Biso   1.000  H
  C127     1.0000 0.62020  0.02860  0.35760  Biso   1.000  C
  H119     1.0000 0.61110  0.95070  0.37340  Biso   1.000  H
  C128     1.0000 0.73240  0.07700  0.39760  Biso   1.000  C
  N28      1.0000 0.57860  0.17090  0.29684  Biso   1.000  N
  C129     1.0000 0.63280  0.25920  0.29660  Biso   1.000  C
  H120     1.0000 0.63170  0.31250  0.27180  Biso   1.000  H
  C130     1.0000 0.57600  0.07760  0.32760  Biso   1.000  C
  H121     1.0000 0.54400  0.00560  0.32890  Biso   1.000  H
  C131     1.0000 0.81200  0.33380  0.64186  Biso   1.000  C
  C132     1.0000 0.86060  0.23080  0.64353  Biso   1.000  C
  H122     1.0000 0.85720  0.16020  0.62380  Biso   1.000  H
  C133     1.0000 0.91450  0.23060  0.67392  Biso   1.000  C
  H123     1.0000 0.94800  0.16100  0.67340  Biso   1.000  H
  C134     1.0000 0.87120  0.42620  0.70320  Biso   1.000  C
  H124     1.0000 0.87370  0.49290  0.72440  Biso   1.000  H
  C135     1.0000 0.81820  0.43390  0.67296  Biso   1.000  C
  H125     1.0000 0.78620  0.50590  0.67310  Biso   1.000  H
  C136     1.0000 0.75420  0.34610  0.60748  Biso   1.000  C
  C137     1.0000 0.81260  0.14150  0.45300  Biso   1.000  C
  H126     1.0000 0.82180  0.04840  0.46070  Biso   1.000  H
  H127     1.0000 0.85810  0.18220  0.44460  Biso   1.000  H
  C138     1.0000 0.78180  0.21660  0.49290  Biso   1.000  C
  H128     1.0000 0.76960  0.30780  0.48440  Biso   1.000  H
  H129     1.0000 0.81890  0.22200  0.51510  Biso   1.000  H
  C139     1.0000 0.71550  0.15000  0.51230  Biso   1.000  C
  H130     1.0000 0.67900  0.13880  0.49010  Biso   1.000  H
  H131     1.0000 0.72790  0.06180  0.52350  Biso   1.000  H
  C140     1.0000 0.68600  0.23960  0.54950  Biso   1.000  C
  H132     1.0000 0.63890  0.20770  0.55830  Biso   1.000  H
  H133     1.0000 0.68110  0.33160  0.53940  Biso   1.000  H
  N29      1.0000 0.57900  0.17490  0.20413  Biso   1.000  N
  O22      1.0000 0.77220  0.04230  0.09917  Biso   1.000  O
  N30      1.0000 0.73700  0.35360  0.91640  Biso   1.000  N
  N31      1.0000 0.76440  0.26530  0.08641  Biso   1.000  N
  H134     1.0000 0.74700  0.34140  0.09460  Biso   1.000  H
  O23      1.0000 0.72630  0.16490  0.89890  Biso   1.000  O
  C141     1.0000 0.81070  0.29660  0.85760  Biso   1.000  C
  C142     1.0000 0.81180  0.20760  0.82230  Biso   1.000  C
  H135     1.0000 0.77950  0.13760  0.81750  Biso   1.000  H
  C143     1.0000 0.86300  0.38900  0.86150  Biso   1.000  C
  H136     1.0000 0.86330  0.43870  0.88700  Biso   1.000  H
  C144     1.0000 0.75570  0.27320  0.89320  Biso   1.000  C
  O24      1.0000 0.75820  0.53850  0.90790  Biso   1.000  O
  C145     1.0000 0.81930  0.39450  0.86250  Biso   1.000  C
  C146     1.0000 0.81300  0.28240  0.83340  Biso   1.000  C
  H137     1.0000 0.77250  0.22840  0.83670  Biso   1.000  H
  C147     1.0000 0.87980  0.47140  0.85760  Biso   1.000  C
  H138     1.0000 0.88890  0.54930  0.87340  Biso   1.000  H
  C148     1.0000 0.76760  0.42300  0.89760  Biso   1.000  C
  N32      1.0000 0.92140  0.32910  0.79684  Biso   1.000  N
  C149     1.0000 0.86720  0.24080  0.79660  Biso   1.000  C
  H139     1.0000 0.86830  0.18750  0.77180  Biso   1.000  H
  C150     1.0000 0.92400  0.42240  0.82760  Biso   1.000  C
  H140     1.0000 0.95600  0.49440  0.82890  Biso   1.000  H
  C151     1.0000 0.68800  0.16620  0.14186  Biso   1.000  C
  C152     1.0000 0.63940  0.26920  0.14353  Biso   1.000  C
  H141     1.0000 0.64280  0.33980  0.12380  Biso   1.000  H
  C153     1.0000 0.58550  0.26940  0.17392  Biso   1.000  C
  H142     1.0000 0.55200  0.33900  0.17340  Biso   1.000  H
  C154     1.0000 0.62880  0.07380  0.20320  Biso   1.000  C
  H143     1.0000 0.62630  0.00710  0.22440  Biso   1.000  H
  C155     1.0000 0.68180  0.06610  0.17296  Biso   1.000  C
  H144     1.0000 0.71380  0.99410  0.17310  Biso   1.000  H
  C156     1.0000 0.74580  0.15390  0.10748  Biso   1.000  C
  C157     1.0000 0.68740  0.35850  0.95300  Biso   1.000  C
  H145     1.0000 0.67820  0.45160  0.96070  Biso   1.000  H
  H146     1.0000 0.64190  0.31780  0.94460  Biso   1.000  H
  C158     1.0000 0.71820  0.28340  0.99290  Biso   1.000  C
  H147     1.0000 0.73040  0.19220  0.98440  Biso   1.000  H
  H148     1.0000 0.68110  0.27800  0.01510  Biso   1.000  H
  C159     1.0000 0.78450  0.35000  0.01230  Biso   1.000  C
  H149     1.0000 0.82100  0.36120  0.99010  Biso   1.000  H
  H150     1.0000 0.77210  0.43820  0.02350  Biso   1.000  H
  C160     1.0000 0.81400  0.26040  0.04950  Biso   1.000  C
  H151     1.0000 0.86110  0.29230  0.05830  Biso   1.000  H
  H152     1.0000 0.81890  0.16840  0.03940  Biso   1.000  H
  Cu1      1.0000 0.00000  0.67876  0.25000  Biso   1.000  Cu
  Cu2      1.0000 0.50000  0.82124  0.75000  Biso   1.000  Cu
  Cu3      1.0000 0.00000  0.32124  0.75000  Biso   1.000  Cu
  Cu4      1.0000 0.50000  0.17876  0.25000  Biso   1.000  Cu
