data_image0
_cell_length_a       18.6297
_cell_length_b       18.6297
_cell_length_c       38.492
_cell_angle_alpha    90
_cell_angle_beta     90
_cell_angle_gamma    120

_symmetry_space_group_name_H-M    "P 1"
_symmetry_int_tables_number       1

loop_
  _symmetry_equiv_pos_as_xyz
  'x, y, z'

loop_
  _atom_site_label
  _atom_site_occupancy
  _atom_site_fract_x
  _atom_site_fract_y
  _atom_site_fract_z
  _atom_site_thermal_displace_type
  _atom_site_B_iso_or_equiv
  _atom_site_type_symbol
  C1       1.0000 0.38800  0.24520  0.15541  Biso   1.000  C
  H1       1.0000 0.42460  0.30010  0.14760  Biso   1.000  H
  C2       1.0000 0.36440  0.23180  0.18953  Biso   1.000  C
  H2       1.0000 0.38760  0.27710  0.20530  Biso   1.000  H
  C3       1.0000 0.40270  0.13698  0.07782  Biso   1.000  C
  H3       1.0000 0.39290  0.08780  0.08930  Biso   1.000  H
  C4       1.0000 0.43196  0.15158  0.04373  Biso   1.000  C
  C5       1.0000 0.45303  0.09281  0.02660  Biso   1.000  C
  O1       1.0000 0.44231  0.03113  0.04390  Biso   1.000  O
  O2       1.0000 0.48237  0.11076  0.99621  Biso   1.000  O
  C6       1.0000 0.05467  0.57853  0.48874  Biso   1.000  C
  H4       1.0000 0.09127  0.63343  0.48093  Biso   1.000  H
  C7       1.0000 0.03107  0.56513  0.52286  Biso   1.000  C
  H5       1.0000 0.05427  0.61043  0.53863  Biso   1.000  H
  C8       1.0000 0.06937  0.47031  0.41115  Biso   1.000  C
  H6       1.0000 0.05957  0.42113  0.42263  Biso   1.000  H
  C9       1.0000 0.09863  0.48491  0.37706  Biso   1.000  C
  C10      1.0000 0.11970  0.42614  0.35993  Biso   1.000  C
  O3       1.0000 0.10898  0.36446  0.37723  Biso   1.000  O
  O4       1.0000 0.14904  0.44409  0.32954  Biso   1.000  O
  C11      1.0000 0.72133  0.91187  0.82208  Biso   1.000  C
  H7       1.0000 0.75793  0.96677  0.81427  Biso   1.000  H
  C12      1.0000 0.69773  0.89847  0.85620  Biso   1.000  C
  H8       1.0000 0.72093  0.94377  0.87197  Biso   1.000  H
  C13      1.0000 0.73603  0.80365  0.74449  Biso   1.000  C
  H9       1.0000 0.72623  0.75447  0.75597  Biso   1.000  H
  C14      1.0000 0.76529  0.81825  0.71040  Biso   1.000  C
  C15      1.0000 0.78636  0.75948  0.69327  Biso   1.000  C
  O5       1.0000 0.77564  0.69780  0.71057  Biso   1.000  O
  O6       1.0000 0.81570  0.77743  0.66288  Biso   1.000  O
  C16      1.0000 0.75480  0.14280  0.15541  Biso   1.000  C
  H10      1.0000 0.69990  0.12450  0.14760  Biso   1.000  H
  C17      1.0000 0.76820  0.13260  0.18953  Biso   1.000  C
  H11      1.0000 0.72290  0.11050  0.20530  Biso   1.000  H
  C18      1.0000 0.86302  0.26572  0.07782  Biso   1.000  C
  H12      1.0000 0.91220  0.30510  0.08930  Biso   1.000  H
  C19      1.0000 0.84842  0.28038  0.04373  Biso   1.000  C
  C20      1.0000 0.90719  0.36022  0.02660  Biso   1.000  C
  O7       1.0000 0.96887  0.41118  0.04390  Biso   1.000  O
  O8       1.0000 0.88924  0.37161  0.99621  Biso   1.000  O
  C21      1.0000 0.42147  0.47613  0.48874  Biso   1.000  C
  H13      1.0000 0.36657  0.45783  0.48093  Biso   1.000  H
  C22      1.0000 0.43487  0.46593  0.52286  Biso   1.000  C
  H14      1.0000 0.38957  0.44383  0.53863  Biso   1.000  H
  C23      1.0000 0.52969  0.59905  0.41115  Biso   1.000  C
  H15      1.0000 0.57887  0.63843  0.42263  Biso   1.000  H
  C24      1.0000 0.51509  0.61371  0.37706  Biso   1.000  C
  C25      1.0000 0.57386  0.69355  0.35993  Biso   1.000  C
  O9       1.0000 0.63554  0.74451  0.37723  Biso   1.000  O
  O10      1.0000 0.55591  0.70494  0.32954  Biso   1.000  O
  C26      1.0000 0.08813  0.80947  0.82208  Biso   1.000  C
  H16      1.0000 0.03323  0.79117  0.81427  Biso   1.000  H
  C27      1.0000 0.10153  0.79927  0.85620  Biso   1.000  C
  H17      1.0000 0.05623  0.77717  0.87197  Biso   1.000  H
  C28      1.0000 0.19635  0.93239  0.74449  Biso   1.000  C
  H18      1.0000 0.24553  0.97177  0.75597  Biso   1.000  H
  C29      1.0000 0.18175  0.94705  0.71040  Biso   1.000  C
  C30      1.0000 0.24052  0.02689  0.69327  Biso   1.000  C
  O11      1.0000 0.30220  0.07785  0.71057  Biso   1.000  O
  O12      1.0000 0.22257  0.03828  0.66288  Biso   1.000  O
  C31      1.0000 0.85720  0.61200  0.15541  Biso   1.000  C
  H19      1.0000 0.87550  0.57540  0.14760  Biso   1.000  H
  C32      1.0000 0.86740  0.63560  0.18953  Biso   1.000  C
  H20      1.0000 0.88950  0.61240  0.20530  Biso   1.000  H
  C33      1.0000 0.73428  0.59730  0.07782  Biso   1.000  C
  H21      1.0000 0.69490  0.60710  0.08930  Biso   1.000  H
  C34      1.0000 0.71962  0.56804  0.04373  Biso   1.000  C
  C35      1.0000 0.63978  0.54697  0.02660  Biso   1.000  C
  O13      1.0000 0.58882  0.55769  0.04390  Biso   1.000  O
  O14      1.0000 0.62839  0.51763  0.99621  Biso   1.000  O
  C36      1.0000 0.52387  0.94533  0.48874  Biso   1.000  C
  H22      1.0000 0.54217  0.90873  0.48093  Biso   1.000  H
  C37      1.0000 0.53407  0.96893  0.52286  Biso   1.000  C
  H23      1.0000 0.55617  0.94573  0.53863  Biso   1.000  H
  C38      1.0000 0.40095  0.93063  0.41115  Biso   1.000  C
  H24      1.0000 0.36157  0.94043  0.42263  Biso   1.000  H
  C39      1.0000 0.38629  0.90137  0.37706  Biso   1.000  C
  C40      1.0000 0.30645  0.88030  0.35993  Biso   1.000  C
  O15      1.0000 0.25549  0.89102  0.37723  Biso   1.000  O
  O16      1.0000 0.29506  0.85096  0.32954  Biso   1.000  O
  C41      1.0000 0.19053  0.27867  0.82208  Biso   1.000  C
  H25      1.0000 0.20883  0.24207  0.81427  Biso   1.000  H
  C42      1.0000 0.20073  0.30227  0.85620  Biso   1.000  C
  H26      1.0000 0.22283  0.27907  0.87197  Biso   1.000  H
  C43      1.0000 0.06761  0.26397  0.74449  Biso   1.000  C
  H27      1.0000 0.02823  0.27377  0.75597  Biso   1.000  H
  C44      1.0000 0.05295  0.23471  0.71040  Biso   1.000  C
  C45      1.0000 0.97311  0.21364  0.69327  Biso   1.000  C
  O17      1.0000 0.92215  0.22436  0.71057  Biso   1.000  O
  O18      1.0000 0.96172  0.18430  0.66288  Biso   1.000  O
  C46      1.0000 0.24520  0.38800  0.84459  Biso   1.000  C
  H28      1.0000 0.30010  0.42460  0.85240  Biso   1.000  H
  C47      1.0000 0.23180  0.36440  0.81047  Biso   1.000  C
  H29      1.0000 0.27710  0.38760  0.79470  Biso   1.000  H
  C48      1.0000 0.13698  0.40270  0.92218  Biso   1.000  C
  H30      1.0000 0.08780  0.39290  0.91070  Biso   1.000  H
  C49      1.0000 0.15158  0.43196  0.95627  Biso   1.000  C
  C50      1.0000 0.09281  0.45303  0.97340  Biso   1.000  C
  O19      1.0000 0.03113  0.44231  0.95610  Biso   1.000  O
  O20      1.0000 0.11076  0.48237  0.00379  Biso   1.000  O
  C51      1.0000 0.91187  0.72133  0.17792  Biso   1.000  C
  H31      1.0000 0.96677  0.75793  0.18573  Biso   1.000  H
  C52      1.0000 0.89847  0.69773  0.14380  Biso   1.000  C
  H32      1.0000 0.94377  0.72093  0.12803  Biso   1.000  H
  C53      1.0000 0.80365  0.73603  0.25551  Biso   1.000  C
  H33      1.0000 0.75447  0.72623  0.24403  Biso   1.000  H
  C54      1.0000 0.81825  0.76529  0.28960  Biso   1.000  C
  C55      1.0000 0.75948  0.78636  0.30673  Biso   1.000  C
  O21      1.0000 0.69780  0.77564  0.28943  Biso   1.000  O
  O22      1.0000 0.77743  0.81570  0.33712  Biso   1.000  O
  C56      1.0000 0.57853  0.05467  0.51126  Biso   1.000  C
  H34      1.0000 0.63343  0.09127  0.51907  Biso   1.000  H
  C57      1.0000 0.56513  0.03107  0.47714  Biso   1.000  C
  H35      1.0000 0.61043  0.05427  0.46137  Biso   1.000  H
  C58      1.0000 0.47031  0.06937  0.58885  Biso   1.000  C
  H36      1.0000 0.42113  0.05957  0.57737  Biso   1.000  H
  C59      1.0000 0.48491  0.09863  0.62294  Biso   1.000  C
  C60      1.0000 0.42614  0.11970  0.64007  Biso   1.000  C
  O23      1.0000 0.36446  0.10898  0.62277  Biso   1.000  O
  O24      1.0000 0.44409  0.14904  0.67046  Biso   1.000  O
  C61      1.0000 0.14280  0.75480  0.84459  Biso   1.000  C
  H37      1.0000 0.12450  0.69990  0.85240  Biso   1.000  H
  C62      1.0000 0.13260  0.76820  0.81047  Biso   1.000  C
  H38      1.0000 0.11050  0.72290  0.79470  Biso   1.000  H
  C63      1.0000 0.26572  0.86302  0.92218  Biso   1.000  C
  H39      1.0000 0.30510  0.91220  0.91070  Biso   1.000  H
  C64      1.0000 0.28038  0.84842  0.95627  Biso   1.000  C
  C65      1.0000 0.36022  0.90719  0.97340  Biso   1.000  C
  O25      1.0000 0.41118  0.96887  0.95610  Biso   1.000  O
  O26      1.0000 0.37161  0.88924  0.00379  Biso   1.000  O
  C66      1.0000 0.80947  0.08813  0.17792  Biso   1.000  C
  H40      1.0000 0.79117  0.03323  0.18573  Biso   1.000  H
  C67      1.0000 0.79927  0.10153  0.14380  Biso   1.000  C
  H41      1.0000 0.77717  0.05623  0.12803  Biso   1.000  H
  C68      1.0000 0.93239  0.19635  0.25551  Biso   1.000  C
  H42      1.0000 0.97177  0.24553  0.24403  Biso   1.000  H
  C69      1.0000 0.94705  0.18175  0.28960  Biso   1.000  C
  C70      1.0000 0.02689  0.24052  0.30673  Biso   1.000  C
  O27      1.0000 0.07785  0.30220  0.28943  Biso   1.000  O
  O28      1.0000 0.03828  0.22257  0.33712  Biso   1.000  O
  C71      1.0000 0.47613  0.42147  0.51126  Biso   1.000  C
  H43      1.0000 0.45783  0.36657  0.51907  Biso   1.000  H
  C72      1.0000 0.46593  0.43487  0.47714  Biso   1.000  C
  H44      1.0000 0.44383  0.38957  0.46137  Biso   1.000  H
  C73      1.0000 0.59905  0.52969  0.58885  Biso   1.000  C
  H45      1.0000 0.63843  0.57887  0.57737  Biso   1.000  H
  C74      1.0000 0.61371  0.51509  0.62294  Biso   1.000  C
  C75      1.0000 0.69355  0.57386  0.64007  Biso   1.000  C
  O29      1.0000 0.74451  0.63554  0.62277  Biso   1.000  O
  O30      1.0000 0.70494  0.55591  0.67046  Biso   1.000  O
  C76      1.0000 0.61200  0.85720  0.84459  Biso   1.000  C
  H46      1.0000 0.57540  0.87550  0.85240  Biso   1.000  H
  C77      1.0000 0.63560  0.86740  0.81047  Biso   1.000  C
  H47      1.0000 0.61240  0.88950  0.79470  Biso   1.000  H
  C78      1.0000 0.59730  0.73428  0.92218  Biso   1.000  C
  H48      1.0000 0.60710  0.69490  0.91070  Biso   1.000  H
  C79      1.0000 0.56804  0.71962  0.95627  Biso   1.000  C
  C80      1.0000 0.54697  0.63978  0.97340  Biso   1.000  C
  O31      1.0000 0.55769  0.58882  0.95610  Biso   1.000  O
  O32      1.0000 0.51763  0.62839  0.00379  Biso   1.000  O
  C81      1.0000 0.27867  0.19053  0.17792  Biso   1.000  C
  H49      1.0000 0.24207  0.20883  0.18573  Biso   1.000  H
  C82      1.0000 0.30227  0.20073  0.14380  Biso   1.000  C
  H50      1.0000 0.27907  0.22283  0.12803  Biso   1.000  H
  C83      1.0000 0.26397  0.06761  0.25551  Biso   1.000  C
  H51      1.0000 0.27377  0.02823  0.24403  Biso   1.000  H
  C84      1.0000 0.23471  0.05295  0.28960  Biso   1.000  C
  C85      1.0000 0.21364  0.97311  0.30673  Biso   1.000  C
  O33      1.0000 0.22436  0.92215  0.28943  Biso   1.000  O
  O34      1.0000 0.18430  0.96172  0.33712  Biso   1.000  O
  C86      1.0000 0.94533  0.52387  0.51126  Biso   1.000  C
  H52      1.0000 0.90873  0.54217  0.51907  Biso   1.000  H
  C87      1.0000 0.96893  0.53407  0.47714  Biso   1.000  C
  H53      1.0000 0.94573  0.55617  0.46137  Biso   1.000  H
  C88      1.0000 0.93063  0.40095  0.58885  Biso   1.000  C
  H54      1.0000 0.94043  0.36157  0.57737  Biso   1.000  H
  C89      1.0000 0.90137  0.38629  0.62294  Biso   1.000  C
  C90      1.0000 0.88030  0.30645  0.64007  Biso   1.000  C
  O35      1.0000 0.89102  0.25549  0.62277  Biso   1.000  O
  O36      1.0000 0.85096  0.29506  0.67046  Biso   1.000  O
  C91      1.0000 0.61200  0.75480  0.84459  Biso   1.000  C
  H55      1.0000 0.57540  0.69990  0.85240  Biso   1.000  H
  C92      1.0000 0.63560  0.76820  0.81047  Biso   1.000  C
  H56      1.0000 0.61240  0.72290  0.79470  Biso   1.000  H
  C93      1.0000 0.59730  0.86302  0.92218  Biso   1.000  C
  H57      1.0000 0.60710  0.91220  0.91070  Biso   1.000  H
  C94      1.0000 0.56804  0.84842  0.95627  Biso   1.000  C
  C95      1.0000 0.54697  0.90719  0.97340  Biso   1.000  C
  O37      1.0000 0.55769  0.96887  0.95610  Biso   1.000  O
  O38      1.0000 0.51763  0.88924  0.00379  Biso   1.000  O
  C96      1.0000 0.27867  0.08813  0.17792  Biso   1.000  C
  H58      1.0000 0.24207  0.03323  0.18573  Biso   1.000  H
  C97      1.0000 0.30227  0.10153  0.14380  Biso   1.000  C
  H59      1.0000 0.27907  0.05623  0.12803  Biso   1.000  H
  C98      1.0000 0.26397  0.19635  0.25551  Biso   1.000  C
  H60      1.0000 0.27377  0.24553  0.24403  Biso   1.000  H
  C99      1.0000 0.23471  0.18175  0.28960  Biso   1.000  C
  C100     1.0000 0.21364  0.24052  0.30673  Biso   1.000  C
  O39      1.0000 0.22436  0.30220  0.28943  Biso   1.000  O
  O40      1.0000 0.18430  0.22257  0.33712  Biso   1.000  O
  C101     1.0000 0.94533  0.42147  0.51126  Biso   1.000  C
  H61      1.0000 0.90873  0.36657  0.51907  Biso   1.000  H
  C102     1.0000 0.96893  0.43487  0.47714  Biso   1.000  C
  H62      1.0000 0.94573  0.38957  0.46137  Biso   1.000  H
  C103     1.0000 0.93063  0.52969  0.58885  Biso   1.000  C
  H63      1.0000 0.94043  0.57887  0.57737  Biso   1.000  H
  C104     1.0000 0.90137  0.51509  0.62294  Biso   1.000  C
  C105     1.0000 0.88030  0.57386  0.64007  Biso   1.000  C
  O41      1.0000 0.89102  0.63554  0.62277  Biso   1.000  O
  O42      1.0000 0.85096  0.55591  0.67046  Biso   1.000  O
  C106     1.0000 0.24520  0.85720  0.84459  Biso   1.000  C
  H64      1.0000 0.30010  0.87550  0.85240  Biso   1.000  H
  C107     1.0000 0.23180  0.86740  0.81047  Biso   1.000  C
  H65      1.0000 0.27710  0.88950  0.79470  Biso   1.000  H
  C108     1.0000 0.13698  0.73428  0.92218  Biso   1.000  C
  H66      1.0000 0.08780  0.69490  0.91070  Biso   1.000  H
  C109     1.0000 0.15158  0.71962  0.95627  Biso   1.000  C
  C110     1.0000 0.09281  0.63978  0.97340  Biso   1.000  C
  O43      1.0000 0.03113  0.58882  0.95610  Biso   1.000  O
  O44      1.0000 0.11076  0.62839  0.00379  Biso   1.000  O
  C111     1.0000 0.91187  0.19053  0.17792  Biso   1.000  C
  H67      1.0000 0.96677  0.20883  0.18573  Biso   1.000  H
  C112     1.0000 0.89847  0.20073  0.14380  Biso   1.000  C
  H68      1.0000 0.94377  0.22283  0.12803  Biso   1.000  H
  C113     1.0000 0.80365  0.06761  0.25551  Biso   1.000  C
  H69      1.0000 0.75447  0.02823  0.24403  Biso   1.000  H
  C114     1.0000 0.81825  0.05295  0.28960  Biso   1.000  C
  C115     1.0000 0.75948  0.97311  0.30673  Biso   1.000  C
  O45      1.0000 0.69780  0.92215  0.28943  Biso   1.000  O
  O46      1.0000 0.77743  0.96172  0.33712  Biso   1.000  O
  C116     1.0000 0.57853  0.52387  0.51126  Biso   1.000  C
  H70      1.0000 0.63343  0.54217  0.51907  Biso   1.000  H
  C117     1.0000 0.56513  0.53407  0.47714  Biso   1.000  C
  H71      1.0000 0.61043  0.55617  0.46137  Biso   1.000  H
  C118     1.0000 0.47031  0.40095  0.58885  Biso   1.000  C
  H72      1.0000 0.42113  0.36157  0.57737  Biso   1.000  H
  C119     1.0000 0.48491  0.38629  0.62294  Biso   1.000  C
  C120     1.0000 0.42614  0.30645  0.64007  Biso   1.000  C
  O47      1.0000 0.36446  0.25549  0.62277  Biso   1.000  O
  O48      1.0000 0.44409  0.29506  0.67046  Biso   1.000  O
  C121     1.0000 0.14280  0.38800  0.84459  Biso   1.000  C
  H73      1.0000 0.12450  0.42460  0.85240  Biso   1.000  H
  C122     1.0000 0.13260  0.36440  0.81047  Biso   1.000  C
  H74      1.0000 0.11050  0.38760  0.79470  Biso   1.000  H
  C123     1.0000 0.26572  0.40270  0.92218  Biso   1.000  C
  H75      1.0000 0.30510  0.39290  0.91070  Biso   1.000  H
  C124     1.0000 0.28038  0.43196  0.95627  Biso   1.000  C
  C125     1.0000 0.36022  0.45303  0.97340  Biso   1.000  C
  O49      1.0000 0.41118  0.44231  0.95610  Biso   1.000  O
  O50      1.0000 0.37161  0.48237  0.00379  Biso   1.000  O
  C126     1.0000 0.80947  0.72133  0.17792  Biso   1.000  C
  H76      1.0000 0.79117  0.75793  0.18573  Biso   1.000  H
  C127     1.0000 0.79927  0.69773  0.14380  Biso   1.000  C
  H77      1.0000 0.77717  0.72093  0.12803  Biso   1.000  H
  C128     1.0000 0.93239  0.73603  0.25551  Biso   1.000  C
  H78      1.0000 0.97177  0.72623  0.24403  Biso   1.000  H
  C129     1.0000 0.94705  0.76529  0.28960  Biso   1.000  C
  C130     1.0000 0.02689  0.78636  0.30673  Biso   1.000  C
  O51      1.0000 0.07785  0.77564  0.28943  Biso   1.000  O
  O52      1.0000 0.03828  0.81570  0.33712  Biso   1.000  O
  C131     1.0000 0.47613  0.05467  0.51126  Biso   1.000  C
  H79      1.0000 0.45783  0.09127  0.51907  Biso   1.000  H
  C132     1.0000 0.46593  0.03107  0.47714  Biso   1.000  C
  H80      1.0000 0.44383  0.05427  0.46137  Biso   1.000  H
  C133     1.0000 0.59905  0.06937  0.58885  Biso   1.000  C
  H81      1.0000 0.63843  0.05957  0.57737  Biso   1.000  H
  C134     1.0000 0.61371  0.09863  0.62294  Biso   1.000  C
  C135     1.0000 0.69355  0.11970  0.64007  Biso   1.000  C
  O53      1.0000 0.74451  0.10898  0.62277  Biso   1.000  O
  O54      1.0000 0.70494  0.14904  0.67046  Biso   1.000  O
  C136     1.0000 0.75480  0.61200  0.15541  Biso   1.000  C
  H82      1.0000 0.69990  0.57540  0.14760  Biso   1.000  H
  C137     1.0000 0.76820  0.63560  0.18953  Biso   1.000  C
  H83      1.0000 0.72290  0.61240  0.20530  Biso   1.000  H
  C138     1.0000 0.86302  0.59730  0.07782  Biso   1.000  C
  H84      1.0000 0.91220  0.60710  0.08930  Biso   1.000  H
  C139     1.0000 0.84842  0.56804  0.04373  Biso   1.000  C
  C140     1.0000 0.90719  0.54697  0.02660  Biso   1.000  C
  O55      1.0000 0.96887  0.55769  0.04390  Biso   1.000  O
  O56      1.0000 0.88924  0.51763  0.99621  Biso   1.000  O
  C141     1.0000 0.42147  0.94533  0.48874  Biso   1.000  C
  H85      1.0000 0.36657  0.90873  0.48093  Biso   1.000  H
  C142     1.0000 0.43487  0.96893  0.52286  Biso   1.000  C
  H86      1.0000 0.38957  0.94573  0.53863  Biso   1.000  H
  C143     1.0000 0.52969  0.93063  0.41115  Biso   1.000  C
  H87      1.0000 0.57887  0.94043  0.42263  Biso   1.000  H
  C144     1.0000 0.51509  0.90137  0.37706  Biso   1.000  C
  C145     1.0000 0.57386  0.88030  0.35993  Biso   1.000  C
  O57      1.0000 0.63554  0.89102  0.37723  Biso   1.000  O
  O58      1.0000 0.55591  0.85096  0.32954  Biso   1.000  O
  C146     1.0000 0.08813  0.27867  0.82208  Biso   1.000  C
  H88      1.0000 0.03323  0.24207  0.81427  Biso   1.000  H
  C147     1.0000 0.10153  0.30227  0.85620  Biso   1.000  C
  H89      1.0000 0.05623  0.27907  0.87197  Biso   1.000  H
  C148     1.0000 0.19635  0.26397  0.74449  Biso   1.000  C
  H90      1.0000 0.24553  0.27377  0.75597  Biso   1.000  H
  C149     1.0000 0.18175  0.23471  0.71040  Biso   1.000  C
  C150     1.0000 0.24052  0.21364  0.69327  Biso   1.000  C
  O59      1.0000 0.30220  0.22436  0.71057  Biso   1.000  O
  O60      1.0000 0.22257  0.18430  0.66288  Biso   1.000  O
  C151     1.0000 0.85720  0.24520  0.15541  Biso   1.000  C
  H91      1.0000 0.87550  0.30010  0.14760  Biso   1.000  H
  C152     1.0000 0.86740  0.23180  0.18953  Biso   1.000  C
  H92      1.0000 0.88950  0.27710  0.20530  Biso   1.000  H
  C153     1.0000 0.73428  0.13698  0.07782  Biso   1.000  C
  H93      1.0000 0.69490  0.08780  0.08930  Biso   1.000  H
  C154     1.0000 0.71962  0.15158  0.04373  Biso   1.000  C
  C155     1.0000 0.63978  0.09281  0.02660  Biso   1.000  C
  O61      1.0000 0.58882  0.03113  0.04390  Biso   1.000  O
  O62      1.0000 0.62839  0.11076  0.99621  Biso   1.000  O
  C156     1.0000 0.52387  0.57853  0.48874  Biso   1.000  C
  H94      1.0000 0.54217  0.63343  0.48093  Biso   1.000  H
  C157     1.0000 0.53407  0.56513  0.52286  Biso   1.000  C
  H95      1.0000 0.55617  0.61043  0.53863  Biso   1.000  H
  C158     1.0000 0.40095  0.47031  0.41115  Biso   1.000  C
  H96      1.0000 0.36157  0.42113  0.42263  Biso   1.000  H
  C159     1.0000 0.38629  0.48491  0.37706  Biso   1.000  C
  C160     1.0000 0.30645  0.42614  0.35993  Biso   1.000  C
  O63      1.0000 0.25549  0.36446  0.37723  Biso   1.000  O
  O64      1.0000 0.29506  0.44409  0.32954  Biso   1.000  O
  C161     1.0000 0.19053  0.91187  0.82208  Biso   1.000  C
  H97      1.0000 0.20883  0.96677  0.81427  Biso   1.000  H
  C162     1.0000 0.20073  0.89847  0.85620  Biso   1.000  C
  H98      1.0000 0.22283  0.94377  0.87197  Biso   1.000  H
  C163     1.0000 0.06761  0.80365  0.74449  Biso   1.000  C
  H99      1.0000 0.02823  0.75447  0.75597  Biso   1.000  H
  C164     1.0000 0.05295  0.81825  0.71040  Biso   1.000  C
  C165     1.0000 0.97311  0.75948  0.69327  Biso   1.000  C
  O65      1.0000 0.92215  0.69780  0.71057  Biso   1.000  O
  O66      1.0000 0.96172  0.77743  0.66288  Biso   1.000  O
  C166     1.0000 0.38800  0.14280  0.15541  Biso   1.000  C
  H100     1.0000 0.42460  0.12450  0.14760  Biso   1.000  H
  C167     1.0000 0.36440  0.13260  0.18953  Biso   1.000  C
  H101     1.0000 0.38760  0.11050  0.20530  Biso   1.000  H
  C168     1.0000 0.40270  0.26572  0.07782  Biso   1.000  C
  H102     1.0000 0.39290  0.30510  0.08930  Biso   1.000  H
  C169     1.0000 0.43196  0.28038  0.04373  Biso   1.000  C
  C170     1.0000 0.45303  0.36022  0.02660  Biso   1.000  C
  O67      1.0000 0.44231  0.41118  0.04390  Biso   1.000  O
  O68      1.0000 0.48237  0.37161  0.99621  Biso   1.000  O
  C171     1.0000 0.05467  0.47613  0.48874  Biso   1.000  C
  H103     1.0000 0.09127  0.45783  0.48093  Biso   1.000  H
  C172     1.0000 0.03107  0.46593  0.52286  Biso   1.000  C
  H104     1.0000 0.05427  0.44383  0.53863  Biso   1.000  H
  C173     1.0000 0.06937  0.59905  0.41115  Biso   1.000  C
  H105     1.0000 0.05957  0.63843  0.42263  Biso   1.000  H
  C174     1.0000 0.09863  0.61371  0.37706  Biso   1.000  C
  C175     1.0000 0.11970  0.69355  0.35993  Biso   1.000  C
  O69      1.0000 0.10898  0.74451  0.37723  Biso   1.000  O
  O70      1.0000 0.14904  0.70494  0.32954  Biso   1.000  O
  C176     1.0000 0.72133  0.80947  0.82208  Biso   1.000  C
  H106     1.0000 0.75793  0.79117  0.81427  Biso   1.000  H
  C177     1.0000 0.69773  0.79927  0.85620  Biso   1.000  C
  H107     1.0000 0.72093  0.77717  0.87197  Biso   1.000  H
  C178     1.0000 0.73603  0.93239  0.74449  Biso   1.000  C
  H108     1.0000 0.72623  0.97177  0.75597  Biso   1.000  H
  C179     1.0000 0.76529  0.94705  0.71040  Biso   1.000  C
  C180     1.0000 0.78636  0.02689  0.69327  Biso   1.000  C
  O71      1.0000 0.77564  0.07785  0.71057  Biso   1.000  O
  O72      1.0000 0.81570  0.03828  0.66288  Biso   1.000  O
  Cu1      1.0000 0.47646  0.95292  0.02835  Biso   1.000  Cu
  Cu2      1.0000 0.14313  0.28626  0.36169  Biso   1.000  Cu
  Cu3      1.0000 0.80980  0.61959  0.69502  Biso   1.000  Cu
  Cu4      1.0000 0.04708  0.52354  0.02835  Biso   1.000  Cu
  Cu5      1.0000 0.71374  0.85687  0.36169  Biso   1.000  Cu
  Cu6      1.0000 0.38041  0.19020  0.69502  Biso   1.000  Cu
  Cu7      1.0000 0.47646  0.52354  0.02835  Biso   1.000  Cu
  Cu8      1.0000 0.14313  0.85687  0.36169  Biso   1.000  Cu
  Cu9      1.0000 0.80980  0.19020  0.69502  Biso   1.000  Cu
  Cu10     1.0000 0.95292  0.47646  0.97165  Biso   1.000  Cu
  Cu11     1.0000 0.61959  0.80980  0.30498  Biso   1.000  Cu
  Cu12     1.0000 0.28626  0.14313  0.63831  Biso   1.000  Cu
  Cu13     1.0000 0.52354  0.04708  0.97165  Biso   1.000  Cu
  Cu14     1.0000 0.19020  0.38041  0.30498  Biso   1.000  Cu
  Cu15     1.0000 0.85687  0.71374  0.63831  Biso   1.000  Cu
  Cu16     1.0000 0.52354  0.47646  0.97165  Biso   1.000  Cu
  Cu17     1.0000 0.19020  0.80980  0.30498  Biso   1.000  Cu
  Cu18     1.0000 0.85687  0.14313  0.63831  Biso   1.000  Cu
  C181     1.0000 0.35895  0.17947  0.13182  Biso   1.000  C
  C182     1.0000 0.38770  0.19385  0.09522  Biso   1.000  C
  C183     1.0000 0.44683  0.22341  0.02669  Biso   1.000  C
  H109     1.0000 0.46710  0.23355  0.00350  Biso   1.000  H
  C184     1.0000 0.02562  0.51281  0.46515  Biso   1.000  C
  C185     1.0000 0.05437  0.52718  0.42855  Biso   1.000  C
  C186     1.0000 0.11350  0.55675  0.36002  Biso   1.000  C
  H110     1.0000 0.13377  0.56688  0.33683  Biso   1.000  H
  C187     1.0000 0.69228  0.84614  0.79849  Biso   1.000  C
  C188     1.0000 0.72103  0.86052  0.76189  Biso   1.000  C
  C189     1.0000 0.78016  0.89008  0.69336  Biso   1.000  C
  H111     1.0000 0.80043  0.90022  0.67017  Biso   1.000  H
  C190     1.0000 0.82053  0.17948  0.13182  Biso   1.000  C
  C191     1.0000 0.80615  0.19385  0.09522  Biso   1.000  C
  C192     1.0000 0.77659  0.22341  0.02669  Biso   1.000  C
  H112     1.0000 0.76645  0.23355  0.00350  Biso   1.000  H
  C193     1.0000 0.48719  0.51281  0.46515  Biso   1.000  C
  C194     1.0000 0.47282  0.52718  0.42855  Biso   1.000  C
  C195     1.0000 0.44325  0.55675  0.36002  Biso   1.000  C
  H113     1.0000 0.43312  0.56688  0.33683  Biso   1.000  H
  C196     1.0000 0.15386  0.84614  0.79849  Biso   1.000  C
  C197     1.0000 0.13948  0.86052  0.76189  Biso   1.000  C
  C198     1.0000 0.10992  0.89008  0.69336  Biso   1.000  C
  H114     1.0000 0.09978  0.90022  0.67017  Biso   1.000  H
  C199     1.0000 0.82052  0.64105  0.13182  Biso   1.000  C
  C200     1.0000 0.80615  0.61230  0.09522  Biso   1.000  C
  C201     1.0000 0.77659  0.55317  0.02669  Biso   1.000  C
  H115     1.0000 0.76645  0.53290  0.00350  Biso   1.000  H
  C202     1.0000 0.48719  0.97438  0.46515  Biso   1.000  C
  C203     1.0000 0.47282  0.94563  0.42855  Biso   1.000  C
  C204     1.0000 0.44325  0.88650  0.36002  Biso   1.000  C
  H116     1.0000 0.43312  0.86623  0.33683  Biso   1.000  H
  C205     1.0000 0.15386  0.30772  0.79849  Biso   1.000  C
  C206     1.0000 0.13948  0.27897  0.76189  Biso   1.000  C
  C207     1.0000 0.10992  0.21984  0.69336  Biso   1.000  C
  H117     1.0000 0.09978  0.19957  0.67017  Biso   1.000  H
  C208     1.0000 0.17947  0.35895  0.86818  Biso   1.000  C
  C209     1.0000 0.19385  0.38770  0.90478  Biso   1.000  C
  C210     1.0000 0.22341  0.44683  0.97331  Biso   1.000  C
  H118     1.0000 0.23355  0.46710  0.99650  Biso   1.000  H
  C211     1.0000 0.84614  0.69228  0.20151  Biso   1.000  C
  C212     1.0000 0.86052  0.72103  0.23811  Biso   1.000  C
  C213     1.0000 0.89008  0.78016  0.30664  Biso   1.000  C
  H119     1.0000 0.90022  0.80043  0.32983  Biso   1.000  H
  C214     1.0000 0.51281  0.02562  0.53485  Biso   1.000  C
  C215     1.0000 0.52718  0.05437  0.57145  Biso   1.000  C
  C216     1.0000 0.55675  0.11350  0.63998  Biso   1.000  C
  H120     1.0000 0.56688  0.13377  0.66317  Biso   1.000  H
  C217     1.0000 0.17948  0.82053  0.86818  Biso   1.000  C
  C218     1.0000 0.19385  0.80615  0.90478  Biso   1.000  C
  C219     1.0000 0.22341  0.77659  0.97331  Biso   1.000  C
  H121     1.0000 0.23355  0.76645  0.99650  Biso   1.000  H
  C220     1.0000 0.84614  0.15386  0.20151  Biso   1.000  C
  C221     1.0000 0.86052  0.13948  0.23811  Biso   1.000  C
  C222     1.0000 0.89008  0.10992  0.30664  Biso   1.000  C
  H122     1.0000 0.90022  0.09978  0.32983  Biso   1.000  H
  C223     1.0000 0.51281  0.48719  0.53485  Biso   1.000  C
  C224     1.0000 0.52718  0.47282  0.57145  Biso   1.000  C
  C225     1.0000 0.55675  0.44325  0.63998  Biso   1.000  C
  H123     1.0000 0.56688  0.43312  0.66317  Biso   1.000  H
  C226     1.0000 0.64105  0.82052  0.86818  Biso   1.000  C
  C227     1.0000 0.61230  0.80615  0.90478  Biso   1.000  C
  C228     1.0000 0.55317  0.77659  0.97331  Biso   1.000  C
  H124     1.0000 0.53290  0.76645  0.99650  Biso   1.000  H
  C229     1.0000 0.30772  0.15386  0.20151  Biso   1.000  C
  C230     1.0000 0.27897  0.13948  0.23811  Biso   1.000  C
  C231     1.0000 0.21984  0.10992  0.30664  Biso   1.000  C
  H125     1.0000 0.19957  0.09978  0.32983  Biso   1.000  H
  C232     1.0000 0.97438  0.48719  0.53485  Biso   1.000  C
  C233     1.0000 0.94563  0.47282  0.57145  Biso   1.000  C
  C234     1.0000 0.88650  0.44325  0.63998  Biso   1.000  C
  H126     1.0000 0.86623  0.43312  0.66317  Biso   1.000  H
