data_image0
_cell_length_a       18.4335
_cell_length_b       18.4335
_cell_length_c       52.364
_cell_angle_alpha    90
_cell_angle_beta     90
_cell_angle_gamma    120

_symmetry_space_group_name_H-M    "P 1"
_symmetry_int_tables_number       1

loop_
  _symmetry_equiv_pos_as_xyz
  'x, y, z'

loop_
  _atom_site_label
  _atom_site_occupancy
  _atom_site_fract_x
  _atom_site_fract_y
  _atom_site_fract_z
  _atom_site_thermal_displace_type
  _atom_site_B_iso_or_equiv
  _atom_site_type_symbol
  O1       1.0000 0.10685  0.74533  0.86641  Biso   1.000  O
  O2       1.0000 0.14780  0.70401  0.83170  Biso   1.000  O
  C1       1.0000 0.04080  0.57930  0.97382  Biso   1.000  C
  H1       1.0000 0.04940  0.62780  0.98320  Biso   1.000  H
  C2       1.0000 0.06620  0.59000  0.94927  Biso   1.000  C
  H2       1.0000 0.10140  0.64490  0.94280  Biso   1.000  H
  C3       1.0000 0.99530  0.44700  0.94369  Biso   1.000  C
  H3       1.0000 0.97680  0.39800  0.93370  Biso   1.000  H
  C4       1.0000 0.97300  0.53330  0.97000  Biso   1.000  C
  H4       1.0000 0.93190  0.54550  0.97630  Biso   1.000  H
  C5       1.0000 0.07398  0.60176  0.89246  Biso   1.000  C
  H5       1.0000 0.06500  0.64190  0.90120  Biso   1.000  H
  C6       1.0000 0.09820  0.61474  0.86693  Biso   1.000  C
  C7       1.0000 0.11849  0.69334  0.85402  Biso   1.000  C
  O3       1.0000 0.77352  0.07866  0.19974  Biso   1.000  O
  O4       1.0000 0.81447  0.03734  0.16503  Biso   1.000  O
  C8       1.0000 0.70747  0.91263  0.30715  Biso   1.000  C
  H6       1.0000 0.71607  0.96113  0.31653  Biso   1.000  H
  C9       1.0000 0.73287  0.92333  0.28260  Biso   1.000  C
  H7       1.0000 0.76807  0.97823  0.27613  Biso   1.000  H
  C10      1.0000 0.66197  0.78033  0.27702  Biso   1.000  C
  H8       1.0000 0.64347  0.73133  0.26703  Biso   1.000  H
  C11      1.0000 0.63967  0.86663  0.30333  Biso   1.000  C
  H9       1.0000 0.59857  0.87883  0.30963  Biso   1.000  H
  C12      1.0000 0.74065  0.93509  0.22579  Biso   1.000  C
  H10      1.0000 0.73167  0.97523  0.23453  Biso   1.000  H
  C13      1.0000 0.76487  0.94807  0.20026  Biso   1.000  C
  C14      1.0000 0.78516  0.02667  0.18735  Biso   1.000  C
  O5       1.0000 0.44018  0.41200  0.53308  Biso   1.000  O
  O6       1.0000 0.48113  0.37068  0.49837  Biso   1.000  O
  C15      1.0000 0.37413  0.24597  0.64049  Biso   1.000  C
  H11      1.0000 0.38273  0.29447  0.64987  Biso   1.000  H
  C16      1.0000 0.39953  0.25667  0.61594  Biso   1.000  C
  H12      1.0000 0.43473  0.31157  0.60947  Biso   1.000  H
  C17      1.0000 0.32863  0.11367  0.61036  Biso   1.000  C
  H13      1.0000 0.31013  0.06467  0.60037  Biso   1.000  H
  C18      1.0000 0.30633  0.19997  0.63667  Biso   1.000  C
  H14      1.0000 0.26523  0.21217  0.64297  Biso   1.000  H
  C19      1.0000 0.40731  0.26843  0.55913  Biso   1.000  C
  H15      1.0000 0.39833  0.30857  0.56787  Biso   1.000  H
  C20      1.0000 0.43153  0.28141  0.53360  Biso   1.000  C
  C21      1.0000 0.45182  0.36001  0.52069  Biso   1.000  C
  O7       1.0000 0.25467  0.36152  0.86641  Biso   1.000  O
  O8       1.0000 0.29599  0.44379  0.83170  Biso   1.000  O
  C22      1.0000 0.42070  0.46150  0.97382  Biso   1.000  C
  H16      1.0000 0.37220  0.42160  0.98320  Biso   1.000  H
  C23      1.0000 0.41000  0.47620  0.94927  Biso   1.000  C
  H17      1.0000 0.35510  0.45650  0.94280  Biso   1.000  H
  C24      1.0000 0.55300  0.54830  0.94369  Biso   1.000  C
  H18      1.0000 0.60200  0.57880  0.93370  Biso   1.000  H
  C25      1.0000 0.46670  0.43970  0.97000  Biso   1.000  C
  H19      1.0000 0.45450  0.38640  0.97630  Biso   1.000  H
  C26      1.0000 0.39824  0.47222  0.89246  Biso   1.000  C
  H20      1.0000 0.35810  0.42310  0.90120  Biso   1.000  H
  C27      1.0000 0.38526  0.48346  0.86693  Biso   1.000  C
  C28      1.0000 0.30666  0.42515  0.85402  Biso   1.000  C
  O9       1.0000 0.92134  0.69485  0.19974  Biso   1.000  O
  O10      1.0000 0.96266  0.77712  0.16503  Biso   1.000  O
  C29      1.0000 0.08737  0.79483  0.30715  Biso   1.000  C
  H21      1.0000 0.03887  0.75493  0.31653  Biso   1.000  H
  C30      1.0000 0.07667  0.80953  0.28260  Biso   1.000  C
  H22      1.0000 0.02177  0.78983  0.27613  Biso   1.000  H
  C31      1.0000 0.21967  0.88163  0.27702  Biso   1.000  C
  H23      1.0000 0.26867  0.91213  0.26703  Biso   1.000  H
  C32      1.0000 0.13337  0.77303  0.30333  Biso   1.000  C
  H24      1.0000 0.12117  0.71973  0.30963  Biso   1.000  H
  C33      1.0000 0.06491  0.80555  0.22579  Biso   1.000  C
  H25      1.0000 0.02477  0.75643  0.23453  Biso   1.000  H
  C34      1.0000 0.05193  0.81679  0.20026  Biso   1.000  C
  C35      1.0000 0.97333  0.75848  0.18735  Biso   1.000  C
  O11      1.0000 0.58800  0.02819  0.53308  Biso   1.000  O
  O12      1.0000 0.62932  0.11046  0.49837  Biso   1.000  O
  C36      1.0000 0.75403  0.12817  0.64049  Biso   1.000  C
  H26      1.0000 0.70553  0.08827  0.64987  Biso   1.000  H
  C37      1.0000 0.74333  0.14287  0.61594  Biso   1.000  C
  H27      1.0000 0.68843  0.12317  0.60947  Biso   1.000  H
  C38      1.0000 0.88633  0.21497  0.61036  Biso   1.000  C
  H28      1.0000 0.93533  0.24547  0.60037  Biso   1.000  H
  C39      1.0000 0.80003  0.10637  0.63667  Biso   1.000  C
  H29      1.0000 0.78783  0.05307  0.64297  Biso   1.000  H
  C40      1.0000 0.73157  0.13889  0.55913  Biso   1.000  C
  H30      1.0000 0.69143  0.08977  0.56787  Biso   1.000  H
  C41      1.0000 0.71859  0.15013  0.53360  Biso   1.000  C
  C42      1.0000 0.63999  0.09182  0.52069  Biso   1.000  C
  O13      1.0000 0.63848  0.89315  0.86641  Biso   1.000  O
  O14      1.0000 0.55621  0.85220  0.83170  Biso   1.000  O
  C43      1.0000 0.53850  0.95920  0.97382  Biso   1.000  C
  H31      1.0000 0.57840  0.95060  0.98320  Biso   1.000  H
  C44      1.0000 0.52380  0.93380  0.94927  Biso   1.000  C
  H32      1.0000 0.54350  0.89860  0.94280  Biso   1.000  H
  C45      1.0000 0.45170  0.00470  0.94369  Biso   1.000  C
  H33      1.0000 0.42120  0.02320  0.93370  Biso   1.000  H
  C46      1.0000 0.56030  0.02700  0.97000  Biso   1.000  C
  H34      1.0000 0.61360  0.06810  0.97630  Biso   1.000  H
  C47      1.0000 0.52778  0.92602  0.89246  Biso   1.000  C
  H35      1.0000 0.57690  0.93500  0.90120  Biso   1.000  H
  C48      1.0000 0.51654  0.90180  0.86693  Biso   1.000  C
  C49      1.0000 0.57485  0.88151  0.85402  Biso   1.000  C
  O15      1.0000 0.30515  0.22648  0.19974  Biso   1.000  O
  O16      1.0000 0.22288  0.18553  0.16503  Biso   1.000  O
  C50      1.0000 0.20517  0.29253  0.30715  Biso   1.000  C
  H36      1.0000 0.24507  0.28393  0.31653  Biso   1.000  H
  C51      1.0000 0.19047  0.26713  0.28260  Biso   1.000  C
  H37      1.0000 0.21017  0.23193  0.27613  Biso   1.000  H
  C52      1.0000 0.11837  0.33803  0.27702  Biso   1.000  C
  H38      1.0000 0.08787  0.35653  0.26703  Biso   1.000  H
  C53      1.0000 0.22697  0.36033  0.30333  Biso   1.000  C
  H39      1.0000 0.28027  0.40143  0.30963  Biso   1.000  H
  C54      1.0000 0.19445  0.25935  0.22579  Biso   1.000  C
  H40      1.0000 0.24357  0.26833  0.23453  Biso   1.000  H
  C55      1.0000 0.18321  0.23513  0.20026  Biso   1.000  C
  C56      1.0000 0.24152  0.21484  0.18735  Biso   1.000  C
  O17      1.0000 0.97181  0.55982  0.53308  Biso   1.000  O
  O18      1.0000 0.88954  0.51887  0.49837  Biso   1.000  O
  C57      1.0000 0.87183  0.62587  0.64049  Biso   1.000  C
  H41      1.0000 0.91173  0.61727  0.64987  Biso   1.000  H
  C58      1.0000 0.85713  0.60047  0.61594  Biso   1.000  C
  H42      1.0000 0.87683  0.56527  0.60947  Biso   1.000  H
  C59      1.0000 0.78503  0.67137  0.61036  Biso   1.000  C
  H43      1.0000 0.75453  0.68987  0.60037  Biso   1.000  H
  C60      1.0000 0.89363  0.69367  0.63667  Biso   1.000  C
  H44      1.0000 0.94693  0.73477  0.64297  Biso   1.000  H
  C61      1.0000 0.86111  0.59269  0.55913  Biso   1.000  C
  H45      1.0000 0.91023  0.60167  0.56787  Biso   1.000  H
  C62      1.0000 0.84987  0.56847  0.53360  Biso   1.000  C
  C63      1.0000 0.90818  0.54818  0.52069  Biso   1.000  C
  O19      1.0000 0.74533  0.10685  0.13359  Biso   1.000  O
  O20      1.0000 0.70401  0.14780  0.16830  Biso   1.000  O
  C64      1.0000 0.57930  0.04080  0.02618  Biso   1.000  C
  H46      1.0000 0.62780  0.04940  0.01680  Biso   1.000  H
  C65      1.0000 0.59000  0.06620  0.05073  Biso   1.000  C
  H47      1.0000 0.64490  0.10140  0.05720  Biso   1.000  H
  C66      1.0000 0.44700  0.99530  0.05631  Biso   1.000  C
  H48      1.0000 0.39800  0.97680  0.06630  Biso   1.000  H
  C67      1.0000 0.53330  0.97300  0.03000  Biso   1.000  C
  H49      1.0000 0.54550  0.93190  0.02370  Biso   1.000  H
  C68      1.0000 0.60176  0.07398  0.10754  Biso   1.000  C
  H50      1.0000 0.64190  0.06500  0.09880  Biso   1.000  H
  C69      1.0000 0.61474  0.09820  0.13307  Biso   1.000  C
  C70      1.0000 0.69334  0.11849  0.14598  Biso   1.000  C
  O21      1.0000 0.41200  0.44018  0.46692  Biso   1.000  O
  O22      1.0000 0.37068  0.48113  0.50163  Biso   1.000  O
  C71      1.0000 0.24597  0.37413  0.35951  Biso   1.000  C
  H51      1.0000 0.29447  0.38273  0.35013  Biso   1.000  H
  C72      1.0000 0.25667  0.39953  0.38406  Biso   1.000  C
  H52      1.0000 0.31157  0.43473  0.39053  Biso   1.000  H
  C73      1.0000 0.11367  0.32863  0.38964  Biso   1.000  C
  H53      1.0000 0.06467  0.31013  0.39963  Biso   1.000  H
  C74      1.0000 0.19997  0.30633  0.36333  Biso   1.000  C
  H54      1.0000 0.21217  0.26523  0.35703  Biso   1.000  H
  C75      1.0000 0.26843  0.40731  0.44087  Biso   1.000  C
  H55      1.0000 0.30857  0.39833  0.43213  Biso   1.000  H
  C76      1.0000 0.28141  0.43153  0.46640  Biso   1.000  C
  C77      1.0000 0.36001  0.45182  0.47931  Biso   1.000  C
  O23      1.0000 0.07866  0.77352  0.80026  Biso   1.000  O
  O24      1.0000 0.03734  0.81447  0.83497  Biso   1.000  O
  C78      1.0000 0.91263  0.70747  0.69285  Biso   1.000  C
  H56      1.0000 0.96113  0.71607  0.68347  Biso   1.000  H
  C79      1.0000 0.92333  0.73287  0.71740  Biso   1.000  C
  H57      1.0000 0.97823  0.76807  0.72387  Biso   1.000  H
  C80      1.0000 0.78033  0.66197  0.72298  Biso   1.000  C
  H58      1.0000 0.73133  0.64347  0.73297  Biso   1.000  H
  C81      1.0000 0.86663  0.63967  0.69667  Biso   1.000  C
  H59      1.0000 0.87883  0.59857  0.69037  Biso   1.000  H
  C82      1.0000 0.93509  0.74065  0.77421  Biso   1.000  C
  H60      1.0000 0.97523  0.73167  0.76547  Biso   1.000  H
  C83      1.0000 0.94807  0.76487  0.79974  Biso   1.000  C
  C84      1.0000 0.02667  0.78516  0.81265  Biso   1.000  C
  O25      1.0000 0.36152  0.25467  0.13359  Biso   1.000  O
  O26      1.0000 0.44379  0.29599  0.16830  Biso   1.000  O
  C85      1.0000 0.46150  0.42070  0.02618  Biso   1.000  C
  H61      1.0000 0.42160  0.37220  0.01680  Biso   1.000  H
  C86      1.0000 0.47620  0.41000  0.05073  Biso   1.000  C
  H62      1.0000 0.45650  0.35510  0.05720  Biso   1.000  H
  C87      1.0000 0.54830  0.55300  0.05631  Biso   1.000  C
  H63      1.0000 0.57880  0.60200  0.06630  Biso   1.000  H
  C88      1.0000 0.43970  0.46670  0.03000  Biso   1.000  C
  H64      1.0000 0.38640  0.45450  0.02370  Biso   1.000  H
  C89      1.0000 0.47222  0.39824  0.10754  Biso   1.000  C
  H65      1.0000 0.42310  0.35810  0.09880  Biso   1.000  H
  C90      1.0000 0.48346  0.38526  0.13307  Biso   1.000  C
  C91      1.0000 0.42515  0.30666  0.14598  Biso   1.000  C
  O27      1.0000 0.02819  0.58800  0.46692  Biso   1.000  O
  O28      1.0000 0.11046  0.62932  0.50163  Biso   1.000  O
  C92      1.0000 0.12817  0.75403  0.35951  Biso   1.000  C
  H66      1.0000 0.08827  0.70553  0.35013  Biso   1.000  H
  C93      1.0000 0.14287  0.74333  0.38406  Biso   1.000  C
  H67      1.0000 0.12317  0.68843  0.39053  Biso   1.000  H
  C94      1.0000 0.21497  0.88633  0.38964  Biso   1.000  C
  H68      1.0000 0.24547  0.93533  0.39963  Biso   1.000  H
  C95      1.0000 0.10637  0.80003  0.36333  Biso   1.000  C
  H69      1.0000 0.05307  0.78783  0.35703  Biso   1.000  H
  C96      1.0000 0.13889  0.73157  0.44087  Biso   1.000  C
  H70      1.0000 0.08977  0.69143  0.43213  Biso   1.000  H
  C97      1.0000 0.15013  0.71859  0.46640  Biso   1.000  C
  C98      1.0000 0.09182  0.63999  0.47931  Biso   1.000  C
  O29      1.0000 0.69485  0.92134  0.80026  Biso   1.000  O
  O30      1.0000 0.77712  0.96266  0.83497  Biso   1.000  O
  C99      1.0000 0.79483  0.08737  0.69285  Biso   1.000  C
  H71      1.0000 0.75493  0.03887  0.68347  Biso   1.000  H
  C100     1.0000 0.80953  0.07667  0.71740  Biso   1.000  C
  H72      1.0000 0.78983  0.02177  0.72387  Biso   1.000  H
  C101     1.0000 0.88163  0.21967  0.72298  Biso   1.000  C
  H73      1.0000 0.91213  0.26867  0.73297  Biso   1.000  H
  C102     1.0000 0.77303  0.13337  0.69667  Biso   1.000  C
  H74      1.0000 0.71973  0.12117  0.69037  Biso   1.000  H
  C103     1.0000 0.80555  0.06491  0.77421  Biso   1.000  C
  H75      1.0000 0.75643  0.02477  0.76547  Biso   1.000  H
  C104     1.0000 0.81679  0.05193  0.79974  Biso   1.000  C
  C105     1.0000 0.75848  0.97333  0.81265  Biso   1.000  C
  O31      1.0000 0.89315  0.63848  0.13359  Biso   1.000  O
  O32      1.0000 0.85220  0.55621  0.16830  Biso   1.000  O
  C106     1.0000 0.95920  0.53850  0.02618  Biso   1.000  C
  H76      1.0000 0.95060  0.57840  0.01680  Biso   1.000  H
  C107     1.0000 0.93380  0.52380  0.05073  Biso   1.000  C
  H77      1.0000 0.89860  0.54350  0.05720  Biso   1.000  H
  C108     1.0000 0.00470  0.45170  0.05631  Biso   1.000  C
  H78      1.0000 0.02320  0.42120  0.06630  Biso   1.000  H
  C109     1.0000 0.02700  0.56030  0.03000  Biso   1.000  C
  H79      1.0000 0.06810  0.61360  0.02370  Biso   1.000  H
  C110     1.0000 0.92602  0.52778  0.10754  Biso   1.000  C
  H80      1.0000 0.93500  0.57690  0.09880  Biso   1.000  H
  C111     1.0000 0.90180  0.51654  0.13307  Biso   1.000  C
  C112     1.0000 0.88151  0.57485  0.14598  Biso   1.000  C
  O33      1.0000 0.55982  0.97181  0.46692  Biso   1.000  O
  O34      1.0000 0.51887  0.88954  0.50163  Biso   1.000  O
  C113     1.0000 0.62587  0.87183  0.35951  Biso   1.000  C
  H81      1.0000 0.61727  0.91173  0.35013  Biso   1.000  H
  C114     1.0000 0.60047  0.85713  0.38406  Biso   1.000  C
  H82      1.0000 0.56527  0.87683  0.39053  Biso   1.000  H
  C115     1.0000 0.67137  0.78503  0.38964  Biso   1.000  C
  H83      1.0000 0.68987  0.75453  0.39963  Biso   1.000  H
  C116     1.0000 0.69367  0.89363  0.36333  Biso   1.000  C
  H84      1.0000 0.73477  0.94693  0.35703  Biso   1.000  H
  C117     1.0000 0.59269  0.86111  0.44087  Biso   1.000  C
  H85      1.0000 0.60167  0.91023  0.43213  Biso   1.000  H
  C118     1.0000 0.56847  0.84987  0.46640  Biso   1.000  C
  C119     1.0000 0.54818  0.90818  0.47931  Biso   1.000  C
  O35      1.0000 0.22648  0.30515  0.80026  Biso   1.000  O
  O36      1.0000 0.18553  0.22288  0.83497  Biso   1.000  O
  C120     1.0000 0.29253  0.20517  0.69285  Biso   1.000  C
  H86      1.0000 0.28393  0.24507  0.68347  Biso   1.000  H
  C121     1.0000 0.26713  0.19047  0.71740  Biso   1.000  C
  H87      1.0000 0.23193  0.21017  0.72387  Biso   1.000  H
  C122     1.0000 0.33803  0.11837  0.72298  Biso   1.000  C
  H88      1.0000 0.35653  0.08787  0.73297  Biso   1.000  H
  C123     1.0000 0.36033  0.22697  0.69667  Biso   1.000  C
  H89      1.0000 0.40143  0.28027  0.69037  Biso   1.000  H
  C124     1.0000 0.25935  0.19445  0.77421  Biso   1.000  C
  H90      1.0000 0.26833  0.24357  0.76547  Biso   1.000  H
  C125     1.0000 0.23513  0.18321  0.79974  Biso   1.000  C
  C126     1.0000 0.21484  0.24152  0.81265  Biso   1.000  C
  O37      1.0000 0.89315  0.25467  0.13359  Biso   1.000  O
  O38      1.0000 0.85220  0.29599  0.16830  Biso   1.000  O
  C127     1.0000 0.95920  0.42070  0.02618  Biso   1.000  C
  H91      1.0000 0.95060  0.37220  0.01680  Biso   1.000  H
  C128     1.0000 0.93380  0.41000  0.05073  Biso   1.000  C
  H92      1.0000 0.89860  0.35510  0.05720  Biso   1.000  H
  C129     1.0000 0.00470  0.55300  0.05631  Biso   1.000  C
  H93      1.0000 0.02320  0.60200  0.06630  Biso   1.000  H
  C130     1.0000 0.02700  0.46670  0.03000  Biso   1.000  C
  H94      1.0000 0.06810  0.45450  0.02370  Biso   1.000  H
  C131     1.0000 0.92602  0.39824  0.10754  Biso   1.000  C
  H95      1.0000 0.93500  0.35810  0.09880  Biso   1.000  H
  C132     1.0000 0.90180  0.38526  0.13307  Biso   1.000  C
  C133     1.0000 0.88151  0.30666  0.14598  Biso   1.000  C
  O39      1.0000 0.55982  0.58800  0.46692  Biso   1.000  O
  O40      1.0000 0.51887  0.62932  0.50163  Biso   1.000  O
  C134     1.0000 0.62587  0.75403  0.35951  Biso   1.000  C
  H96      1.0000 0.61727  0.70553  0.35013  Biso   1.000  H
  C135     1.0000 0.60047  0.74333  0.38406  Biso   1.000  C
  H97      1.0000 0.56527  0.68843  0.39053  Biso   1.000  H
  C136     1.0000 0.67137  0.88633  0.38964  Biso   1.000  C
  H98      1.0000 0.68987  0.93533  0.39963  Biso   1.000  H
  C137     1.0000 0.69367  0.80003  0.36333  Biso   1.000  C
  H99      1.0000 0.73477  0.78783  0.35703  Biso   1.000  H
  C138     1.0000 0.59269  0.73157  0.44087  Biso   1.000  C
  H100     1.0000 0.60167  0.69143  0.43213  Biso   1.000  H
  C139     1.0000 0.56847  0.71859  0.46640  Biso   1.000  C
  C140     1.0000 0.54818  0.63999  0.47931  Biso   1.000  C
  O41      1.0000 0.22648  0.92134  0.80026  Biso   1.000  O
  O42      1.0000 0.18553  0.96266  0.83497  Biso   1.000  O
  C141     1.0000 0.29253  0.08737  0.69285  Biso   1.000  C
  H101     1.0000 0.28393  0.03887  0.68347  Biso   1.000  H
  C142     1.0000 0.26713  0.07667  0.71740  Biso   1.000  C
  H102     1.0000 0.23193  0.02177  0.72387  Biso   1.000  H
  C143     1.0000 0.33803  0.21967  0.72298  Biso   1.000  C
  H103     1.0000 0.35653  0.26867  0.73297  Biso   1.000  H
  C144     1.0000 0.36033  0.13337  0.69667  Biso   1.000  C
  H104     1.0000 0.40143  0.12117  0.69037  Biso   1.000  H
  C145     1.0000 0.25935  0.06491  0.77421  Biso   1.000  C
  H105     1.0000 0.26833  0.02477  0.76547  Biso   1.000  H
  C146     1.0000 0.23513  0.05193  0.79974  Biso   1.000  C
  C147     1.0000 0.21484  0.97333  0.81265  Biso   1.000  C
  O43      1.0000 0.74533  0.63848  0.13359  Biso   1.000  O
  O44      1.0000 0.70401  0.55621  0.16830  Biso   1.000  O
  C148     1.0000 0.57930  0.53850  0.02618  Biso   1.000  C
  H106     1.0000 0.62780  0.57840  0.01680  Biso   1.000  H
  C149     1.0000 0.59000  0.52380  0.05073  Biso   1.000  C
  H107     1.0000 0.64490  0.54350  0.05720  Biso   1.000  H
  C150     1.0000 0.44700  0.45170  0.05631  Biso   1.000  C
  H108     1.0000 0.39800  0.42120  0.06630  Biso   1.000  H
  C151     1.0000 0.53330  0.56030  0.03000  Biso   1.000  C
  H109     1.0000 0.54550  0.61360  0.02370  Biso   1.000  H
  C152     1.0000 0.60176  0.52778  0.10754  Biso   1.000  C
  H110     1.0000 0.64190  0.57690  0.09880  Biso   1.000  H
  C153     1.0000 0.61474  0.51654  0.13307  Biso   1.000  C
  C154     1.0000 0.69334  0.57485  0.14598  Biso   1.000  C
  O45      1.0000 0.41200  0.97181  0.46692  Biso   1.000  O
  O46      1.0000 0.37068  0.88954  0.50163  Biso   1.000  O
  C155     1.0000 0.24597  0.87183  0.35951  Biso   1.000  C
  H111     1.0000 0.29447  0.91173  0.35013  Biso   1.000  H
  C156     1.0000 0.25667  0.85713  0.38406  Biso   1.000  C
  H112     1.0000 0.31157  0.87683  0.39053  Biso   1.000  H
  C157     1.0000 0.11367  0.78503  0.38964  Biso   1.000  C
  H113     1.0000 0.06467  0.75453  0.39963  Biso   1.000  H
  C158     1.0000 0.19997  0.89363  0.36333  Biso   1.000  C
  H114     1.0000 0.21217  0.94693  0.35703  Biso   1.000  H
  C159     1.0000 0.26843  0.86111  0.44087  Biso   1.000  C
  H115     1.0000 0.30857  0.91023  0.43213  Biso   1.000  H
  C160     1.0000 0.28141  0.84987  0.46640  Biso   1.000  C
  C161     1.0000 0.36001  0.90818  0.47931  Biso   1.000  C
  O47      1.0000 0.07866  0.30515  0.80026  Biso   1.000  O
  O48      1.0000 0.03734  0.22288  0.83497  Biso   1.000  O
  C162     1.0000 0.91263  0.20517  0.69285  Biso   1.000  C
  H116     1.0000 0.96113  0.24507  0.68347  Biso   1.000  H
  C163     1.0000 0.92333  0.19047  0.71740  Biso   1.000  C
  H117     1.0000 0.97823  0.21017  0.72387  Biso   1.000  H
  C164     1.0000 0.78033  0.11837  0.72298  Biso   1.000  C
  H118     1.0000 0.73133  0.08787  0.73297  Biso   1.000  H
  C165     1.0000 0.86663  0.22697  0.69667  Biso   1.000  C
  H119     1.0000 0.87883  0.28027  0.69037  Biso   1.000  H
  C166     1.0000 0.93509  0.19445  0.77421  Biso   1.000  C
  H120     1.0000 0.97523  0.24357  0.76547  Biso   1.000  H
  C167     1.0000 0.94807  0.18321  0.79974  Biso   1.000  C
  C168     1.0000 0.02667  0.24152  0.81265  Biso   1.000  C
  O49      1.0000 0.36152  0.10685  0.13359  Biso   1.000  O
  O50      1.0000 0.44379  0.14780  0.16830  Biso   1.000  O
  C169     1.0000 0.46150  0.04080  0.02618  Biso   1.000  C
  H121     1.0000 0.42160  0.04940  0.01680  Biso   1.000  H
  C170     1.0000 0.47620  0.06620  0.05073  Biso   1.000  C
  H122     1.0000 0.45650  0.10140  0.05720  Biso   1.000  H
  C171     1.0000 0.54830  0.99530  0.05631  Biso   1.000  C
  H123     1.0000 0.57880  0.97680  0.06630  Biso   1.000  H
  C172     1.0000 0.43970  0.97300  0.03000  Biso   1.000  C
  H124     1.0000 0.38640  0.93190  0.02370  Biso   1.000  H
  C173     1.0000 0.47222  0.07398  0.10754  Biso   1.000  C
  H125     1.0000 0.42310  0.06500  0.09880  Biso   1.000  H
  C174     1.0000 0.48346  0.09820  0.13307  Biso   1.000  C
  C175     1.0000 0.42515  0.11849  0.14598  Biso   1.000  C
  O51      1.0000 0.02819  0.44018  0.46692  Biso   1.000  O
  O52      1.0000 0.11046  0.48113  0.50163  Biso   1.000  O
  C176     1.0000 0.12817  0.37413  0.35951  Biso   1.000  C
  H126     1.0000 0.08827  0.38273  0.35013  Biso   1.000  H
  C177     1.0000 0.14287  0.39953  0.38406  Biso   1.000  C
  H127     1.0000 0.12317  0.43473  0.39053  Biso   1.000  H
  C178     1.0000 0.21497  0.32863  0.38964  Biso   1.000  C
  H128     1.0000 0.24547  0.31013  0.39963  Biso   1.000  H
  C179     1.0000 0.10637  0.30633  0.36333  Biso   1.000  C
  H129     1.0000 0.05307  0.26523  0.35703  Biso   1.000  H
  C180     1.0000 0.13889  0.40731  0.44087  Biso   1.000  C
  H130     1.0000 0.08977  0.39833  0.43213  Biso   1.000  H
  C181     1.0000 0.15013  0.43153  0.46640  Biso   1.000  C
  C182     1.0000 0.09182  0.45182  0.47931  Biso   1.000  C
  O53      1.0000 0.69485  0.77352  0.80026  Biso   1.000  O
  O54      1.0000 0.77712  0.81447  0.83497  Biso   1.000  O
  C183     1.0000 0.79483  0.70747  0.69285  Biso   1.000  C
  H131     1.0000 0.75493  0.71607  0.68347  Biso   1.000  H
  C184     1.0000 0.80953  0.73287  0.71740  Biso   1.000  C
  H132     1.0000 0.78983  0.76807  0.72387  Biso   1.000  H
  C185     1.0000 0.88163  0.66197  0.72298  Biso   1.000  C
  H133     1.0000 0.91213  0.64347  0.73297  Biso   1.000  H
  C186     1.0000 0.77303  0.63967  0.69667  Biso   1.000  C
  H134     1.0000 0.71973  0.59857  0.69037  Biso   1.000  H
  C187     1.0000 0.80555  0.74065  0.77421  Biso   1.000  C
  H135     1.0000 0.75643  0.73167  0.76547  Biso   1.000  H
  C188     1.0000 0.81679  0.76487  0.79974  Biso   1.000  C
  C189     1.0000 0.75848  0.78516  0.81265  Biso   1.000  C
  O55      1.0000 0.25467  0.89315  0.86641  Biso   1.000  O
  O56      1.0000 0.29599  0.85220  0.83170  Biso   1.000  O
  C190     1.0000 0.42070  0.95920  0.97382  Biso   1.000  C
  H136     1.0000 0.37220  0.95060  0.98320  Biso   1.000  H
  C191     1.0000 0.41000  0.93380  0.94927  Biso   1.000  C
  H137     1.0000 0.35510  0.89860  0.94280  Biso   1.000  H
  C192     1.0000 0.55300  0.00470  0.94369  Biso   1.000  C
  H138     1.0000 0.60200  0.02320  0.93370  Biso   1.000  H
  C193     1.0000 0.46670  0.02700  0.97000  Biso   1.000  C
  H139     1.0000 0.45450  0.06810  0.97630  Biso   1.000  H
  C194     1.0000 0.39824  0.92602  0.89246  Biso   1.000  C
  H140     1.0000 0.35810  0.93500  0.90120  Biso   1.000  H
  C195     1.0000 0.38526  0.90180  0.86693  Biso   1.000  C
  C196     1.0000 0.30666  0.88151  0.85402  Biso   1.000  C
  O57      1.0000 0.92134  0.22648  0.19974  Biso   1.000  O
  O58      1.0000 0.96266  0.18553  0.16503  Biso   1.000  O
  C197     1.0000 0.08737  0.29253  0.30715  Biso   1.000  C
  H141     1.0000 0.03887  0.28393  0.31653  Biso   1.000  H
  C198     1.0000 0.07667  0.26713  0.28260  Biso   1.000  C
  H142     1.0000 0.02177  0.23193  0.27613  Biso   1.000  H
  C199     1.0000 0.21967  0.33803  0.27702  Biso   1.000  C
  H143     1.0000 0.26867  0.35653  0.26703  Biso   1.000  H
  C200     1.0000 0.13337  0.36033  0.30333  Biso   1.000  C
  H144     1.0000 0.12117  0.40143  0.30963  Biso   1.000  H
  C201     1.0000 0.06491  0.25935  0.22579  Biso   1.000  C
  H145     1.0000 0.02477  0.26833  0.23453  Biso   1.000  H
  C202     1.0000 0.05193  0.23513  0.20026  Biso   1.000  C
  C203     1.0000 0.97333  0.21484  0.18735  Biso   1.000  C
  O59      1.0000 0.58800  0.55982  0.53308  Biso   1.000  O
  O60      1.0000 0.62932  0.51887  0.49837  Biso   1.000  O
  C204     1.0000 0.75403  0.62587  0.64049  Biso   1.000  C
  H146     1.0000 0.70553  0.61727  0.64987  Biso   1.000  H
  C205     1.0000 0.74333  0.60047  0.61594  Biso   1.000  C
  H147     1.0000 0.68843  0.56527  0.60947  Biso   1.000  H
  C206     1.0000 0.88633  0.67137  0.61036  Biso   1.000  C
  H148     1.0000 0.93533  0.68987  0.60037  Biso   1.000  H
  C207     1.0000 0.80003  0.69367  0.63667  Biso   1.000  C
  H149     1.0000 0.78783  0.73477  0.64297  Biso   1.000  H
  C208     1.0000 0.73157  0.59269  0.55913  Biso   1.000  C
  H150     1.0000 0.69143  0.60167  0.56787  Biso   1.000  H
  C209     1.0000 0.71859  0.56847  0.53360  Biso   1.000  C
  C210     1.0000 0.63999  0.54818  0.52069  Biso   1.000  C
  O61      1.0000 0.63848  0.74533  0.86641  Biso   1.000  O
  O62      1.0000 0.55621  0.70401  0.83170  Biso   1.000  O
  C211     1.0000 0.53850  0.57930  0.97382  Biso   1.000  C
  H151     1.0000 0.57840  0.62780  0.98320  Biso   1.000  H
  C212     1.0000 0.52380  0.59000  0.94927  Biso   1.000  C
  H152     1.0000 0.54350  0.64490  0.94280  Biso   1.000  H
  C213     1.0000 0.45170  0.44700  0.94369  Biso   1.000  C
  H153     1.0000 0.42120  0.39800  0.93370  Biso   1.000  H
  C214     1.0000 0.56030  0.53330  0.97000  Biso   1.000  C
  H154     1.0000 0.61360  0.54550  0.97630  Biso   1.000  H
  C215     1.0000 0.52778  0.60176  0.89246  Biso   1.000  C
  H155     1.0000 0.57690  0.64190  0.90120  Biso   1.000  H
  C216     1.0000 0.51654  0.61474  0.86693  Biso   1.000  C
  C217     1.0000 0.57485  0.69334  0.85402  Biso   1.000  C
  O63      1.0000 0.30515  0.07866  0.19974  Biso   1.000  O
  O64      1.0000 0.22288  0.03734  0.16503  Biso   1.000  O
  C218     1.0000 0.20517  0.91263  0.30715  Biso   1.000  C
  H156     1.0000 0.24507  0.96113  0.31653  Biso   1.000  H
  C219     1.0000 0.19047  0.92333  0.28260  Biso   1.000  C
  H157     1.0000 0.21017  0.97823  0.27613  Biso   1.000  H
  C220     1.0000 0.11837  0.78033  0.27702  Biso   1.000  C
  H158     1.0000 0.08787  0.73133  0.26703  Biso   1.000  H
  C221     1.0000 0.22697  0.86663  0.30333  Biso   1.000  C
  H159     1.0000 0.28027  0.87883  0.30963  Biso   1.000  H
  C222     1.0000 0.19445  0.93509  0.22579  Biso   1.000  C
  H160     1.0000 0.24357  0.97523  0.23453  Biso   1.000  H
  C223     1.0000 0.18321  0.94807  0.20026  Biso   1.000  C
  C224     1.0000 0.24152  0.02667  0.18735  Biso   1.000  C
  O65      1.0000 0.97181  0.41200  0.53308  Biso   1.000  O
  O66      1.0000 0.88954  0.37068  0.49837  Biso   1.000  O
  C225     1.0000 0.87183  0.24597  0.64049  Biso   1.000  C
  H161     1.0000 0.91173  0.29447  0.64987  Biso   1.000  H
  C226     1.0000 0.85713  0.25667  0.61594  Biso   1.000  C
  H162     1.0000 0.87683  0.31157  0.60947  Biso   1.000  H
  C227     1.0000 0.78503  0.11367  0.61036  Biso   1.000  C
  H163     1.0000 0.75453  0.06467  0.60037  Biso   1.000  H
  C228     1.0000 0.89363  0.19997  0.63667  Biso   1.000  C
  H164     1.0000 0.94693  0.21217  0.64297  Biso   1.000  H
  C229     1.0000 0.86111  0.26843  0.55913  Biso   1.000  C
  H165     1.0000 0.91023  0.30857  0.56787  Biso   1.000  H
  C230     1.0000 0.84987  0.28141  0.53360  Biso   1.000  C
  C231     1.0000 0.90818  0.36001  0.52069  Biso   1.000  C
  O67      1.0000 0.10685  0.36152  0.86641  Biso   1.000  O
  O68      1.0000 0.14780  0.44379  0.83170  Biso   1.000  O
  C232     1.0000 0.04080  0.46150  0.97382  Biso   1.000  C
  H166     1.0000 0.04940  0.42160  0.98320  Biso   1.000  H
  C233     1.0000 0.06620  0.47620  0.94927  Biso   1.000  C
  H167     1.0000 0.10140  0.45650  0.94280  Biso   1.000  H
  C234     1.0000 0.99530  0.54830  0.94369  Biso   1.000  C
  H168     1.0000 0.97680  0.57880  0.93370  Biso   1.000  H
  C235     1.0000 0.97300  0.43970  0.97000  Biso   1.000  C
  H169     1.0000 0.93190  0.38640  0.97630  Biso   1.000  H
  C236     1.0000 0.07398  0.47222  0.89246  Biso   1.000  C
  H170     1.0000 0.06500  0.42310  0.90120  Biso   1.000  H
  C237     1.0000 0.09820  0.48346  0.86693  Biso   1.000  C
  C238     1.0000 0.11849  0.42515  0.85402  Biso   1.000  C
  O69      1.0000 0.77352  0.69485  0.19974  Biso   1.000  O
  O70      1.0000 0.81447  0.77712  0.16503  Biso   1.000  O
  C239     1.0000 0.70747  0.79483  0.30715  Biso   1.000  C
  H171     1.0000 0.71607  0.75493  0.31653  Biso   1.000  H
  C240     1.0000 0.73287  0.80953  0.28260  Biso   1.000  C
  H172     1.0000 0.76807  0.78983  0.27613  Biso   1.000  H
  C241     1.0000 0.66197  0.88163  0.27702  Biso   1.000  C
  H173     1.0000 0.64347  0.91213  0.26703  Biso   1.000  H
  C242     1.0000 0.63967  0.77303  0.30333  Biso   1.000  C
  H174     1.0000 0.59857  0.71973  0.30963  Biso   1.000  H
  C243     1.0000 0.74065  0.80555  0.22579  Biso   1.000  C
  H175     1.0000 0.73167  0.75643  0.23453  Biso   1.000  H
  C244     1.0000 0.76487  0.81679  0.20026  Biso   1.000  C
  C245     1.0000 0.78516  0.75848  0.18735  Biso   1.000  C
  O71      1.0000 0.44018  0.02819  0.53308  Biso   1.000  O
  O72      1.0000 0.48113  0.11046  0.49837  Biso   1.000  O
  C246     1.0000 0.37413  0.12817  0.64049  Biso   1.000  C
  H176     1.0000 0.38273  0.08827  0.64987  Biso   1.000  H
  C247     1.0000 0.39953  0.14287  0.61594  Biso   1.000  C
  H177     1.0000 0.43473  0.12317  0.60947  Biso   1.000  H
  C248     1.0000 0.32863  0.21497  0.61036  Biso   1.000  C
  H178     1.0000 0.31013  0.24547  0.60037  Biso   1.000  H
  C249     1.0000 0.30633  0.10637  0.63667  Biso   1.000  C
  H179     1.0000 0.26523  0.05307  0.64297  Biso   1.000  H
  C250     1.0000 0.40731  0.13889  0.55913  Biso   1.000  C
  H180     1.0000 0.39833  0.08977  0.56787  Biso   1.000  H
  C251     1.0000 0.43153  0.15013  0.53360  Biso   1.000  C
  C252     1.0000 0.45182  0.09182  0.52069  Biso   1.000  C
  Cu1      1.0000 0.14214  0.85786  0.85387  Biso   1.000  Cu
  Cu2      1.0000 0.80881  0.19119  0.18721  Biso   1.000  Cu
  Cu3      1.0000 0.47547  0.52453  0.52054  Biso   1.000  Cu
  Cu4      1.0000 0.14214  0.28428  0.85387  Biso   1.000  Cu
  Cu5      1.0000 0.80881  0.61761  0.18721  Biso   1.000  Cu
  Cu6      1.0000 0.47547  0.95094  0.52054  Biso   1.000  Cu
  Cu7      1.0000 0.71572  0.85786  0.85387  Biso   1.000  Cu
  Cu8      1.0000 0.38239  0.19119  0.18721  Biso   1.000  Cu
  Cu9      1.0000 0.04906  0.52453  0.52054  Biso   1.000  Cu
  Cu10     1.0000 0.85786  0.14214  0.14613  Biso   1.000  Cu
  Cu11     1.0000 0.52453  0.47547  0.47946  Biso   1.000  Cu
  Cu12     1.0000 0.19119  0.80881  0.81279  Biso   1.000  Cu
  Cu13     1.0000 0.28428  0.14214  0.14613  Biso   1.000  Cu
  Cu14     1.0000 0.95094  0.47547  0.47946  Biso   1.000  Cu
  Cu15     1.0000 0.61761  0.80881  0.81279  Biso   1.000  Cu
  Cu16     1.0000 0.85786  0.71572  0.14613  Biso   1.000  Cu
  Cu17     1.0000 0.52453  0.04906  0.47946  Biso   1.000  Cu
  Cu18     1.0000 0.19119  0.38239  0.81279  Biso   1.000  Cu
  C253     1.0000 0.00650  0.50325  0.98600  Biso   1.000  C
  C254     1.0000 0.04103  0.52051  0.93333  Biso   1.000  C
  C255     1.0000 0.06263  0.53132  0.90549  Biso   1.000  C
  C256     1.0000 0.11083  0.55542  0.85455  Biso   1.000  C
  H181     1.0000 0.12860  0.56430  0.83730  Biso   1.000  H
  C257     1.0000 0.67317  0.83658  0.31933  Biso   1.000  C
  C258     1.0000 0.70770  0.85385  0.26666  Biso   1.000  C
  C259     1.0000 0.72930  0.86465  0.23882  Biso   1.000  C
  C260     1.0000 0.77750  0.88875  0.18788  Biso   1.000  C
  H182     1.0000 0.79527  0.89763  0.17063  Biso   1.000  H
  C261     1.0000 0.33983  0.16992  0.65267  Biso   1.000  C
  C262     1.0000 0.37436  0.18718  0.60000  Biso   1.000  C
  C263     1.0000 0.39596  0.19798  0.57216  Biso   1.000  C
  C264     1.0000 0.44416  0.22208  0.52122  Biso   1.000  C
  H183     1.0000 0.46193  0.23097  0.50397  Biso   1.000  H
  C265     1.0000 0.49675  0.50325  0.98600  Biso   1.000  C
  C266     1.0000 0.47949  0.52052  0.93333  Biso   1.000  C
  C267     1.0000 0.46868  0.53132  0.90549  Biso   1.000  C
  C268     1.0000 0.44458  0.55542  0.85455  Biso   1.000  C
  H184     1.0000 0.43570  0.56430  0.83730  Biso   1.000  H
  C269     1.0000 0.16342  0.83658  0.31933  Biso   1.000  C
  C270     1.0000 0.14615  0.85385  0.26666  Biso   1.000  C
  C271     1.0000 0.13535  0.86465  0.23882  Biso   1.000  C
  C272     1.0000 0.11125  0.88875  0.18788  Biso   1.000  C
  H185     1.0000 0.10237  0.89763  0.17063  Biso   1.000  H
  C273     1.0000 0.83008  0.16992  0.65267  Biso   1.000  C
  C274     1.0000 0.81282  0.18718  0.60000  Biso   1.000  C
  C275     1.0000 0.80202  0.19798  0.57216  Biso   1.000  C
  C276     1.0000 0.77792  0.22208  0.52122  Biso   1.000  C
  H186     1.0000 0.76903  0.23097  0.50397  Biso   1.000  H
  C277     1.0000 0.49675  0.99350  0.98600  Biso   1.000  C
  C278     1.0000 0.47948  0.95897  0.93333  Biso   1.000  C
  C279     1.0000 0.46868  0.93737  0.90549  Biso   1.000  C
  C280     1.0000 0.44458  0.88917  0.85455  Biso   1.000  C
  H187     1.0000 0.43570  0.87140  0.83730  Biso   1.000  H
  C281     1.0000 0.16342  0.32683  0.31933  Biso   1.000  C
  C282     1.0000 0.14615  0.29230  0.26666  Biso   1.000  C
  C283     1.0000 0.13535  0.27070  0.23882  Biso   1.000  C
  C284     1.0000 0.11125  0.22250  0.18788  Biso   1.000  C
  H188     1.0000 0.10237  0.20473  0.17063  Biso   1.000  H
  C285     1.0000 0.83008  0.66017  0.65267  Biso   1.000  C
  C286     1.0000 0.81282  0.62564  0.60000  Biso   1.000  C
  C287     1.0000 0.80202  0.60404  0.57216  Biso   1.000  C
  C288     1.0000 0.77792  0.55584  0.52122  Biso   1.000  C
  H189     1.0000 0.76903  0.53807  0.50397  Biso   1.000  H
  C289     1.0000 0.50325  0.00650  0.01400  Biso   1.000  C
  C290     1.0000 0.52052  0.04103  0.06667  Biso   1.000  C
  C291     1.0000 0.53132  0.06263  0.09451  Biso   1.000  C
  C292     1.0000 0.55542  0.11083  0.14545  Biso   1.000  C
  H190     1.0000 0.56430  0.12860  0.16270  Biso   1.000  H
  C293     1.0000 0.16992  0.33983  0.34733  Biso   1.000  C
  C294     1.0000 0.18718  0.37436  0.40000  Biso   1.000  C
  C295     1.0000 0.19798  0.39596  0.42784  Biso   1.000  C
  C296     1.0000 0.22208  0.44416  0.47878  Biso   1.000  C
  H191     1.0000 0.23097  0.46193  0.49603  Biso   1.000  H
  C297     1.0000 0.83658  0.67317  0.68067  Biso   1.000  C
  C298     1.0000 0.85385  0.70770  0.73334  Biso   1.000  C
  C299     1.0000 0.86465  0.72930  0.76118  Biso   1.000  C
  C300     1.0000 0.88875  0.77750  0.81212  Biso   1.000  C
  H192     1.0000 0.89763  0.79527  0.82937  Biso   1.000  H
  C301     1.0000 0.50325  0.49675  0.01400  Biso   1.000  C
  C302     1.0000 0.52052  0.47948  0.06667  Biso   1.000  C
  C303     1.0000 0.53132  0.46868  0.09451  Biso   1.000  C
  C304     1.0000 0.55542  0.44458  0.14545  Biso   1.000  C
  H193     1.0000 0.56430  0.43570  0.16270  Biso   1.000  H
  C305     1.0000 0.16992  0.83008  0.34733  Biso   1.000  C
  C306     1.0000 0.18718  0.81282  0.40000  Biso   1.000  C
  C307     1.0000 0.19798  0.80202  0.42784  Biso   1.000  C
  C308     1.0000 0.22208  0.77792  0.47878  Biso   1.000  C
  H194     1.0000 0.23097  0.76903  0.49603  Biso   1.000  H
  C309     1.0000 0.83658  0.16342  0.68067  Biso   1.000  C
  C310     1.0000 0.85385  0.14615  0.73334  Biso   1.000  C
  C311     1.0000 0.86465  0.13535  0.76118  Biso   1.000  C
  C312     1.0000 0.88875  0.11125  0.81212  Biso   1.000  C
  H195     1.0000 0.89763  0.10237  0.82937  Biso   1.000  H
  C313     1.0000 0.99350  0.49675  0.01400  Biso   1.000  C
  C314     1.0000 0.95897  0.47948  0.06667  Biso   1.000  C
  C315     1.0000 0.93737  0.46868  0.09451  Biso   1.000  C
  C316     1.0000 0.88917  0.44458  0.14545  Biso   1.000  C
  H196     1.0000 0.87140  0.43570  0.16270  Biso   1.000  H
  C317     1.0000 0.66017  0.83008  0.34733  Biso   1.000  C
  C318     1.0000 0.62564  0.81282  0.40000  Biso   1.000  C
  C319     1.0000 0.60404  0.80202  0.42784  Biso   1.000  C
  C320     1.0000 0.55584  0.77792  0.47878  Biso   1.000  C
  H197     1.0000 0.53807  0.76903  0.49603  Biso   1.000  H
  C321     1.0000 0.32683  0.16342  0.68067  Biso   1.000  C
  C322     1.0000 0.29230  0.14615  0.73334  Biso   1.000  C
  C323     1.0000 0.27070  0.13535  0.76118  Biso   1.000  C
  C324     1.0000 0.22250  0.11125  0.81212  Biso   1.000  C
  H198     1.0000 0.20473  0.10237  0.82937  Biso   1.000  H
