data_image0
_cell_length_a       9.9199
_cell_length_b       10.4905
_cell_length_c       13.4316
_cell_angle_alpha    105.687
_cell_angle_beta     101.88
_cell_angle_gamma    94.436

_symmetry_space_group_name_H-M    "P 1"
_symmetry_int_tables_number       1

loop_
  _symmetry_equiv_pos_as_xyz
  'x, y, z'

loop_
  _atom_site_label
  _atom_site_occupancy
  _atom_site_fract_x
  _atom_site_fract_y
  _atom_site_fract_z
  _atom_site_thermal_displace_type
  _atom_site_B_iso_or_equiv
  _atom_site_type_symbol
  Tb1      1.0000 0.74376  0.49442  0.47550  Biso   1.000  Tb
  O1       1.0000 0.62870  0.66720  0.43800  Biso   1.000  O
  O2       1.0000 0.42410  0.62050  0.47370  Biso   1.000  O
  O3       1.0000 0.05370  0.35570  0.47080  Biso   1.000  O
  O4       1.0000 0.82650  0.28950  0.42890  Biso   1.000  O
  O5       1.0000 0.86810  0.47670  0.64680  Biso   1.000  O
  O6       1.0000 0.72580  0.62850  0.65540  Biso   1.000  O
  N1       1.0000 0.50020  0.98390  0.33260  Biso   1.000  N
  C1       1.0000 0.50650  0.68640  0.43920  Biso   1.000  C
  C2       1.0000 0.45170  0.79790  0.40020  Biso   1.000  C
  C3       1.0000 0.54150  0.88100  0.37000  Biso   1.000  C
  H1       1.0000 0.63550  0.86540  0.37570  Biso   1.000  H
  C4       1.0000 0.36400  0.00730  0.32780  Biso   1.000  C
  H2       1.0000 0.33280  0.07760  0.30100  Biso   1.000  H
  C5       1.0000 0.27130  0.93060  0.36130  Biso   1.000  C
  C6       1.0000 0.31750  0.82490  0.39500  Biso   1.000  C
  H3       1.0000 0.25460  0.76930  0.41530  Biso   1.000  H
  C7       1.0000 0.12970  0.96330  0.35920  Biso   1.000  C
  C8       1.0000 0.01790  0.86430  0.32740  Biso   1.000  C
  H4       1.0000 0.03300  0.77360  0.30580  Biso   1.000  H
  C9       1.0000 0.88490  0.89250  0.32570  Biso   1.000  C
  H5       1.0000 0.80850  0.82260  0.30070  Biso   1.000  H
  C10      1.0000 0.86450  0.02090  0.36020  Biso   1.000  C
  H6       1.0000 0.77310  0.04060  0.36260  Biso   1.000  H
  C11      1.0000 0.97480  0.12560  0.39270  Biso   1.000  C
  C12      1.0000 0.10970  0.09520  0.39310  Biso   1.000  C
  H7       1.0000 0.18660  0.16460  0.41640  Biso   1.000  H
  C13      1.0000 0.95080  0.26660  0.43430  Biso   1.000  C
  C14      1.0000 0.81010  0.56610  0.69850  Biso   1.000  C
  C15      1.0000 0.86600  0.61100  0.81570  Biso   1.000  C
  C16      1.0000 0.83570  0.73110  0.87540  Biso   1.000  C
  H8       1.0000 0.78010  0.78380  0.84110  Biso   1.000  H
  N2       1.0000 0.88680  0.77410  0.98520  Biso   1.000  N
  C17      1.0000 0.96820  0.69700  0.03530  Biso   1.000  C
  H9       1.0000 0.00320  0.72640  0.11040  Biso   1.000  H
  C18      1.0000 0.99860  0.57690  0.97570  Biso   1.000  C
  C19      1.0000 0.94750  0.53390  0.86590  Biso   1.000  C
  H10      1.0000 0.96820  0.45180  0.82510  Biso   1.000  H
  C20      1.0000 0.08430  0.49010  0.03010  Biso   1.000  C
  C21      1.0000 0.15440  0.40030  0.97070  Biso   1.000  C
  H11      1.0000 0.14890  0.39510  0.89820  Biso   1.000  H
  C22      1.0000 0.23270  0.31820  0.01720  Biso   1.000  C
  H12      1.0000 0.28060  0.25680  0.97660  Biso   1.000  H
  C23      1.0000 0.24080  0.32570  0.12330  Biso   1.000  C
  H13      1.0000 0.29420  0.26960  0.15510  Biso   1.000  H
  C24      1.0000 0.17060  0.41550  0.18280  Biso   1.000  C
  C25      1.0000 0.09240  0.49770  0.13620  Biso   1.000  C
  H14      1.0000 0.04450  0.55900  0.17680  Biso   1.000  H
  Tb2      1.0000 0.25624  0.50558  0.52450  Biso   1.000  Tb
  O7       1.0000 0.37130  0.33280  0.56200  Biso   1.000  O
  O8       1.0000 0.57590  0.37950  0.52630  Biso   1.000  O
  O9       1.0000 0.94630  0.64430  0.52920  Biso   1.000  O
  O10      1.0000 0.17350  0.71050  0.57110  Biso   1.000  O
  O11      1.0000 0.13190  0.52330  0.35320  Biso   1.000  O
  O12      1.0000 0.27420  0.37150  0.34460  Biso   1.000  O
  N3       1.0000 0.49980  0.01610  0.66740  Biso   1.000  N
  C26      1.0000 0.49350  0.31360  0.56080  Biso   1.000  C
  C27      1.0000 0.54830  0.20210  0.59980  Biso   1.000  C
  C28      1.0000 0.45850  0.11900  0.63000  Biso   1.000  C
  H15      1.0000 0.36450  0.13460  0.62430  Biso   1.000  H
  C29      1.0000 0.63600  0.99270  0.67220  Biso   1.000  C
  H16      1.0000 0.66720  0.92240  0.69900  Biso   1.000  H
  C30      1.0000 0.72870  0.06940  0.63870  Biso   1.000  C
  C31      1.0000 0.68250  0.17510  0.60500  Biso   1.000  C
  H17      1.0000 0.74540  0.23070  0.58470  Biso   1.000  H
  C32      1.0000 0.87030  0.03670  0.64080  Biso   1.000  C
  C33      1.0000 0.98210  0.13570  0.67260  Biso   1.000  C
  H18      1.0000 0.96700  0.22640  0.69420  Biso   1.000  H
  C34      1.0000 0.11510  0.10750  0.67430  Biso   1.000  C
  H19      1.0000 0.19150  0.17740  0.69930  Biso   1.000  H
  C35      1.0000 0.13550  0.97910  0.63980  Biso   1.000  C
  H20      1.0000 0.22690  0.95940  0.63740  Biso   1.000  H
  C36      1.0000 0.02520  0.87440  0.60730  Biso   1.000  C
  C37      1.0000 0.89030  0.90480  0.60690  Biso   1.000  C
  H21      1.0000 0.81340  0.83540  0.58360  Biso   1.000  H
  C38      1.0000 0.04920  0.73340  0.56570  Biso   1.000  C
  C39      1.0000 0.18990  0.43390  0.30150  Biso   1.000  C
  C40      1.0000 0.13400  0.38900  0.18430  Biso   1.000  C
  C41      1.0000 0.16430  0.26890  0.12460  Biso   1.000  C
  H22      1.0000 0.21990  0.21620  0.15890  Biso   1.000  H
  N4       1.0000 0.11320  0.22590  0.01480  Biso   1.000  N
  C42      1.0000 0.03180  0.30300  0.96470  Biso   1.000  C
  H23      1.0000 0.99680  0.27360  0.88960  Biso   1.000  H
  C43      1.0000 0.00140  0.42310  0.02430  Biso   1.000  C
  C44      1.0000 0.05250  0.46610  0.13410  Biso   1.000  C
  H24      1.0000 0.03180  0.54820  0.17490  Biso   1.000  H
  C45      1.0000 0.91570  0.50990  0.96990  Biso   1.000  C
  C46      1.0000 0.84560  0.59970  0.02930  Biso   1.000  C
  H25      1.0000 0.85110  0.60490  0.10180  Biso   1.000  H
  C47      1.0000 0.76730  0.68180  0.98280  Biso   1.000  C
  H26      1.0000 0.71940  0.74320  0.02340  Biso   1.000  H
  C48      1.0000 0.75920  0.67430  0.87670  Biso   1.000  C
  H27      1.0000 0.70580  0.73040  0.84490  Biso   1.000  H
  C49      1.0000 0.82940  0.58450  0.81720  Biso   1.000  C
  C50      1.0000 0.90760  0.50230  0.86380  Biso   1.000  C
  H28      1.0000 0.95550  0.44100  0.82320  Biso   1.000  H
