data_image0
_cell_length_a       20.3378
_cell_length_b       17.6645
_cell_length_c       8.3564
_cell_angle_alpha    90
_cell_angle_beta     96.685
_cell_angle_gamma    90

_symmetry_space_group_name_H-M    "P 1"
_symmetry_int_tables_number       1

loop_
  _symmetry_equiv_pos_as_xyz
  'x, y, z'

loop_
  _atom_site_label
  _atom_site_occupancy
  _atom_site_fract_x
  _atom_site_fract_y
  _atom_site_fract_z
  _atom_site_thermal_displace_type
  _atom_site_B_iso_or_equiv
  _atom_site_type_symbol
  U1       1.0000 0.24428  0.18228  0.29323  Biso   1.000  U
  U2       1.0000 0.17398  0.23192  0.69502  Biso   1.000  U
  O1       1.0000 0.24230  0.29250  0.73840  Biso   1.000  O
  O2       1.0000 0.10640  0.17200  0.65980  Biso   1.000  O
  O3       1.0000 0.33670  0.10500  0.38880  Biso   1.000  O
  O4       1.0000 0.40000  0.05360  0.59390  Biso   1.000  O
  O5       1.0000 0.22030  0.14210  0.88750  Biso   1.000  O
  O6       1.0000 0.30210  0.13880  0.06990  Biso   1.000  O
  O7       1.0000 0.25520  0.16180  0.57220  Biso   1.000  O
  O8       1.0000 0.11020  0.34460  0.60480  Biso   1.000  O
  O9       1.0000 0.05230  0.40670  0.40420  Biso   1.000  O
  O10      1.0000 0.21020  0.26850  0.09290  Biso   1.000  O
  O11      1.0000 0.12150  0.28530  0.91530  Biso   1.000  O
  O12      1.0000 0.16720  0.25800  0.40900  Biso   1.000  O
  C1       1.0000 0.34820  0.08730  0.53510  Biso   1.000  C
  C2       1.0000 0.29540  0.10500  0.64510  Biso   1.000  C
  C3       1.0000 0.33280  0.12830  0.80930  Biso   1.000  C
  H1       1.0000 0.36250  0.08770  0.84880  Biso   1.000  H
  H2       1.0000 0.35950  0.17280  0.79460  Biso   1.000  H
  C4       1.0000 0.28600  0.14550  0.93410  Biso   1.000  C
  C5       1.0000 0.25540  0.03160  0.65900  Biso   1.000  C
  H3       1.0000 0.22750  0.03710  0.74370  Biso   1.000  H
  H4       1.0000 0.28530  0.99000  0.68400  Biso   1.000  H
  H5       1.0000 0.22860  0.02190  0.55910  Biso   1.000  H
  C6       1.0000 0.09000  0.35390  0.45710  Biso   1.000  C
  C7       1.0000 0.11030  0.29700  0.33750  Biso   1.000  C
  C8       1.0000 0.12750  0.33970  0.18600  Biso   1.000  C
  H6       1.0000 0.08870  0.36810  0.14190  Biso   1.000  H
  H7       1.0000 0.16210  0.37600  0.21960  Biso   1.000  H
  C9       1.0000 0.14940  0.29300  0.05590  Biso   1.000  C
  C10      1.0000 0.05310  0.24480  0.29170  Biso   1.000  C
  H8       1.0000 0.05830  0.22100  0.19060  Biso   1.000  H
  H9       1.0000 0.01260  0.27320  0.28170  Biso   1.000  H
  H10      1.0000 0.05190  0.20680  0.37330  Biso   1.000  H
  U3       1.0000 0.19497  0.26539  0.69368  Biso   1.000  U
  O13      1.0000 0.24960  0.33860  0.68500  Biso   1.000  O
  O14      1.0000 0.13950  0.18960  0.70700  Biso   1.000  O
  O15      1.0000 0.15690  0.21980  0.08500  Biso   1.000  O
  O16      1.0000 0.15520  0.32280  0.92500  Biso   1.000  O
  U4       1.0000 0.74428  0.68228  0.29323  Biso   1.000  U
  U5       1.0000 0.67398  0.73192  0.69502  Biso   1.000  U
  O17      1.0000 0.74230  0.79250  0.73840  Biso   1.000  O
  O18      1.0000 0.60640  0.67200  0.65980  Biso   1.000  O
  O19      1.0000 0.83670  0.60500  0.38880  Biso   1.000  O
  O20      1.0000 0.90000  0.55360  0.59390  Biso   1.000  O
  O21      1.0000 0.72030  0.64210  0.88750  Biso   1.000  O
  O22      1.0000 0.80210  0.63880  0.06990  Biso   1.000  O
  O23      1.0000 0.75520  0.66180  0.57220  Biso   1.000  O
  O24      1.0000 0.61020  0.84460  0.60480  Biso   1.000  O
  O25      1.0000 0.55230  0.90670  0.40420  Biso   1.000  O
  O26      1.0000 0.71020  0.76850  0.09290  Biso   1.000  O
  O27      1.0000 0.62150  0.78530  0.91530  Biso   1.000  O
  O28      1.0000 0.66720  0.75800  0.40900  Biso   1.000  O
  C11      1.0000 0.84820  0.58730  0.53510  Biso   1.000  C
  C12      1.0000 0.79540  0.60500  0.64510  Biso   1.000  C
  C13      1.0000 0.83280  0.62830  0.80930  Biso   1.000  C
  H11      1.0000 0.86250  0.58770  0.84880  Biso   1.000  H
  H12      1.0000 0.85950  0.67280  0.79460  Biso   1.000  H
  C14      1.0000 0.78600  0.64550  0.93410  Biso   1.000  C
  C15      1.0000 0.75540  0.53160  0.65900  Biso   1.000  C
  H13      1.0000 0.72750  0.53710  0.74370  Biso   1.000  H
  H14      1.0000 0.78530  0.49000  0.68400  Biso   1.000  H
  H15      1.0000 0.72860  0.52190  0.55910  Biso   1.000  H
  C16      1.0000 0.59000  0.85390  0.45710  Biso   1.000  C
  C17      1.0000 0.61030  0.79700  0.33750  Biso   1.000  C
  C18      1.0000 0.62750  0.83970  0.18600  Biso   1.000  C
  H16      1.0000 0.58870  0.86810  0.14190  Biso   1.000  H
  H17      1.0000 0.66210  0.87600  0.21960  Biso   1.000  H
  C19      1.0000 0.64940  0.79300  0.05590  Biso   1.000  C
  C20      1.0000 0.55310  0.74480  0.29170  Biso   1.000  C
  H18      1.0000 0.55830  0.72100  0.19060  Biso   1.000  H
  H19      1.0000 0.51260  0.77320  0.28170  Biso   1.000  H
  H20      1.0000 0.55190  0.70680  0.37330  Biso   1.000  H
  U6       1.0000 0.69497  0.76539  0.69368  Biso   1.000  U
  O29      1.0000 0.74960  0.83860  0.68500  Biso   1.000  O
  O30      1.0000 0.63950  0.68960  0.70700  Biso   1.000  O
  O31      1.0000 0.65690  0.71980  0.08500  Biso   1.000  O
  O32      1.0000 0.65520  0.82280  0.92500  Biso   1.000  O
  U7       1.0000 0.75572  0.18228  0.70677  Biso   1.000  U
  U8       1.0000 0.82602  0.23192  0.30498  Biso   1.000  U
  O33      1.0000 0.75770  0.29250  0.26160  Biso   1.000  O
  O34      1.0000 0.89360  0.17200  0.34020  Biso   1.000  O
  O35      1.0000 0.66330  0.10500  0.61120  Biso   1.000  O
  O36      1.0000 0.60000  0.05360  0.40610  Biso   1.000  O
  O37      1.0000 0.77970  0.14210  0.11250  Biso   1.000  O
  O38      1.0000 0.69790  0.13880  0.93010  Biso   1.000  O
  O39      1.0000 0.74480  0.16180  0.42780  Biso   1.000  O
  O40      1.0000 0.88980  0.34460  0.39520  Biso   1.000  O
  O41      1.0000 0.94770  0.40670  0.59580  Biso   1.000  O
  O42      1.0000 0.78980  0.26850  0.90710  Biso   1.000  O
  O43      1.0000 0.87850  0.28530  0.08470  Biso   1.000  O
  O44      1.0000 0.83280  0.25800  0.59100  Biso   1.000  O
  C21      1.0000 0.65180  0.08730  0.46490  Biso   1.000  C
  C22      1.0000 0.70460  0.10500  0.35490  Biso   1.000  C
  C23      1.0000 0.66720  0.12830  0.19070  Biso   1.000  C
  H21      1.0000 0.63750  0.08770  0.15120  Biso   1.000  H
  H22      1.0000 0.64050  0.17280  0.20540  Biso   1.000  H
  C24      1.0000 0.71400  0.14550  0.06590  Biso   1.000  C
  C25      1.0000 0.74460  0.03160  0.34100  Biso   1.000  C
  H23      1.0000 0.77250  0.03710  0.25630  Biso   1.000  H
  H24      1.0000 0.71470  0.99000  0.31600  Biso   1.000  H
  H25      1.0000 0.77140  0.02190  0.44090  Biso   1.000  H
  C26      1.0000 0.91000  0.35390  0.54290  Biso   1.000  C
  C27      1.0000 0.88970  0.29700  0.66250  Biso   1.000  C
  C28      1.0000 0.87250  0.33970  0.81400  Biso   1.000  C
  H26      1.0000 0.91130  0.36810  0.85810  Biso   1.000  H
  H27      1.0000 0.83790  0.37600  0.78040  Biso   1.000  H
  C29      1.0000 0.85060  0.29300  0.94410  Biso   1.000  C
  C30      1.0000 0.94690  0.24480  0.70830  Biso   1.000  C
  H28      1.0000 0.94170  0.22100  0.80940  Biso   1.000  H
  H29      1.0000 0.98740  0.27320  0.71830  Biso   1.000  H
  H30      1.0000 0.94810  0.20680  0.62670  Biso   1.000  H
  U9       1.0000 0.80503  0.26539  0.30632  Biso   1.000  U
  O45      1.0000 0.75040  0.33860  0.31500  Biso   1.000  O
  O46      1.0000 0.86050  0.18960  0.29300  Biso   1.000  O
  O47      1.0000 0.84310  0.21980  0.91500  Biso   1.000  O
  O48      1.0000 0.84480  0.32280  0.07500  Biso   1.000  O
  U10      1.0000 0.25572  0.68228  0.70677  Biso   1.000  U
  U11      1.0000 0.32602  0.73192  0.30498  Biso   1.000  U
  O49      1.0000 0.25770  0.79250  0.26160  Biso   1.000  O
  O50      1.0000 0.39360  0.67200  0.34020  Biso   1.000  O
  O51      1.0000 0.16330  0.60500  0.61120  Biso   1.000  O
  O52      1.0000 0.10000  0.55360  0.40610  Biso   1.000  O
  O53      1.0000 0.27970  0.64210  0.11250  Biso   1.000  O
  O54      1.0000 0.19790  0.63880  0.93010  Biso   1.000  O
  O55      1.0000 0.24480  0.66180  0.42780  Biso   1.000  O
  O56      1.0000 0.38980  0.84460  0.39520  Biso   1.000  O
  O57      1.0000 0.44770  0.90670  0.59580  Biso   1.000  O
  O58      1.0000 0.28980  0.76850  0.90710  Biso   1.000  O
  O59      1.0000 0.37850  0.78530  0.08470  Biso   1.000  O
  O60      1.0000 0.33280  0.75800  0.59100  Biso   1.000  O
  C31      1.0000 0.15180  0.58730  0.46490  Biso   1.000  C
  C32      1.0000 0.20460  0.60500  0.35490  Biso   1.000  C
  C33      1.0000 0.16720  0.62830  0.19070  Biso   1.000  C
  H31      1.0000 0.13750  0.58770  0.15120  Biso   1.000  H
  H32      1.0000 0.14050  0.67280  0.20540  Biso   1.000  H
  C34      1.0000 0.21400  0.64550  0.06590  Biso   1.000  C
  C35      1.0000 0.24460  0.53160  0.34100  Biso   1.000  C
  H33      1.0000 0.27250  0.53710  0.25630  Biso   1.000  H
  H34      1.0000 0.21470  0.49000  0.31600  Biso   1.000  H
  H35      1.0000 0.27140  0.52190  0.44090  Biso   1.000  H
  C36      1.0000 0.41000  0.85390  0.54290  Biso   1.000  C
  C37      1.0000 0.38970  0.79700  0.66250  Biso   1.000  C
  C38      1.0000 0.37250  0.83970  0.81400  Biso   1.000  C
  H36      1.0000 0.41130  0.86810  0.85810  Biso   1.000  H
  H37      1.0000 0.33790  0.87600  0.78040  Biso   1.000  H
  C39      1.0000 0.35060  0.79300  0.94410  Biso   1.000  C
  C40      1.0000 0.44690  0.74480  0.70830  Biso   1.000  C
  H38      1.0000 0.44170  0.72100  0.80940  Biso   1.000  H
  H39      1.0000 0.48740  0.77320  0.71830  Biso   1.000  H
  H40      1.0000 0.44810  0.70680  0.62670  Biso   1.000  H
  U12      1.0000 0.30503  0.76539  0.30632  Biso   1.000  U
  O61      1.0000 0.25040  0.83860  0.31500  Biso   1.000  O
  O62      1.0000 0.36050  0.68960  0.29300  Biso   1.000  O
  O63      1.0000 0.34310  0.71980  0.91500  Biso   1.000  O
  O64      1.0000 0.34480  0.82280  0.07500  Biso   1.000  O
  U13      1.0000 0.50000  0.01346  0.50000  Biso   1.000  U
  U14      1.0000 0.00000  0.51346  0.50000  Biso   1.000  U
