data_cg060408tsi20060629_081747_clean
_audit_creation_date              2015-08-19
_audit_creation_method            'Materials Studio'
_symmetry_space_group_name_H-M    'P1'
_symmetry_Int_Tables_number       1
_symmetry_cell_setting            triclinic
loop_
_symmetry_equiv_pos_as_xyz
  x,y,z
_cell_length_a                    14.3816
_cell_length_b                    14.3816
_cell_length_c                    14.3816
_cell_angle_alpha                 60.0000
_cell_angle_beta                  60.0000
_cell_angle_gamma                 60.0000
loop_
_atom_site_label
_atom_site_type_symbol
_atom_site_fract_x
_atom_site_fract_y
_atom_site_fract_z
_atom_site_U_iso_or_equiv
_atom_site_adp_type
_atom_site_occupancy
Cd1    Cd    0.06800   0.64400   0.64400   0.01267  Uiso   1.00
Cd2    Cd    0.64400   0.64400   0.64400   0.01267  Uiso   1.00
Cd3    Cd    0.32663   0.32663   0.02011   0.01267  Uiso   1.00
Cd4    Cd    0.32663   0.02011   0.32663   0.01267  Uiso   1.00
Cd5    Cd    0.64400   0.64400   0.06800   0.01267  Uiso   1.00
Cd6    Cd    0.32663   0.32663   0.32663   0.01267  Uiso   1.00
Cd7    Cd    0.02011   0.32663   0.32663   0.01267  Uiso   1.00
Cd8    Cd    0.75000   0.75000   0.75000   0.01267  Uiso   1.00
Cd9    Cd    0.64400   0.06800   0.64400   0.01267  Uiso   1.00
H1     H     0.29340   0.48180   0.48180   0.01267  Uiso   1.00
H2     H     0.48180   0.74300   0.29340   0.01267  Uiso   1.00
H3     H     0.29340   0.74300   0.48180   0.01267  Uiso   1.00
H4     H     0.48180   0.48180   0.74300   0.01267  Uiso   1.00
H5     H     0.29340   0.48180   0.74300   0.01267  Uiso   1.00
H6     H     0.48180   0.48180   0.29340   0.01267  Uiso   1.00
H7     H     0.48180   0.29340   0.74300   0.01267  Uiso   1.00
H8     H     0.74300   0.29340   0.48180   0.01267  Uiso   1.00
H9     H     0.74300   0.48180   0.29340   0.01267  Uiso   1.00
H10    H     0.48180   0.29340   0.48180   0.01267  Uiso   1.00
H11    H     0.74300   0.48180   0.48180   0.01267  Uiso   1.00
H12    H     0.48180   0.74300   0.48180   0.01267  Uiso   1.00
C1     C     0.10630   0.42050   0.05270   0.01267  Uiso   1.00
C2     C     0.53370   0.90250   0.53370   0.01267  Uiso   1.00
C3     C     0.08470   0.98110   0.46710   0.01267  Uiso   1.00
C4     C     0.90250   0.53370   0.03010   0.01267  Uiso   1.00
C5     C     0.42050   0.42050   0.10630   0.01267  Uiso   1.00
C6     C     0.90250   0.53370   0.53370   0.01267  Uiso   1.00
C7     C     0.98110   0.46710   0.46710   0.01267  Uiso   1.00
C8     C     0.03010   0.90250   0.53370   0.01267  Uiso   1.00
C9     C     0.53370   0.03010   0.90250   0.01267  Uiso   1.00
C10    C     0.46710   0.08470   0.46710   0.01267  Uiso   1.00
C11    C     0.46710   0.46710   0.98110   0.01267  Uiso   1.00
C12    C     0.48790   0.80090   0.48790   0.01267  Uiso   1.00
C13    C     0.98110   0.46710   0.08470   0.01267  Uiso   1.00
C14    C     0.58910   0.91090   0.91090   0.01267  Uiso   1.00
C15    C     0.91090   0.58910   0.91090   0.01267  Uiso   1.00
C16    C     0.58910   0.58910   0.91090   0.01267  Uiso   1.00
C17    C     0.22330   0.48790   0.80090   0.01267  Uiso   1.00
C18    C     0.53370   0.53370   0.90250   0.01267  Uiso   1.00
C19    C     0.03010   0.53370   0.53370   0.01267  Uiso   1.00
C20    C     0.08470   0.46710   0.98110   0.01267  Uiso   1.00
C21    C     0.42050   0.05270   0.10630   0.01267  Uiso   1.00
C22    C     0.53370   0.53370   0.03010   0.01267  Uiso   1.00
C23    C     0.90250   0.03010   0.53370   0.01267  Uiso   1.00
C24    C     0.48790   0.22330   0.80090   0.01267  Uiso   1.00
C25    C     0.80090   0.48790   0.22330   0.01267  Uiso   1.00
C26    C     0.46710   0.08470   0.98110   0.01267  Uiso   1.00
C27    C     0.91090   0.91090   0.58910   0.01267  Uiso   1.00
C28    C     0.58910   0.91090   0.58910   0.01267  Uiso   1.00
C29    C     0.10630   0.05270   0.42050   0.01267  Uiso   1.00
C30    C     0.08470   0.46710   0.46710   0.01267  Uiso   1.00
C31    C     0.03010   0.53370   0.90250   0.01267  Uiso   1.00
C32    C     0.80090   0.22330   0.48790   0.01267  Uiso   1.00
C33    C     0.42050   0.10630   0.42050   0.01267  Uiso   1.00
C34    C     0.05270   0.42050   0.10630   0.01267  Uiso   1.00
C35    C     0.48790   0.48790   0.22330   0.01267  Uiso   1.00
C36    C     0.05270   0.10630   0.42050   0.01267  Uiso   1.00
C37    C     0.48790   0.48790   0.80090   0.01267  Uiso   1.00
C38    C     0.05270   0.42050   0.42050   0.01267  Uiso   1.00
C39    C     0.22330   0.48790   0.48790   0.01267  Uiso   1.00
C40    C     0.48790   0.22330   0.48790   0.01267  Uiso   1.00
C41    C     0.80090   0.48790   0.48790   0.01267  Uiso   1.00
C42    C     0.48790   0.80090   0.22330   0.01267  Uiso   1.00
C43    C     0.53370   0.03010   0.53370   0.01267  Uiso   1.00
C44    C     0.46710   0.46710   0.08470   0.01267  Uiso   1.00
C45    C     0.42050   0.05270   0.42050   0.01267  Uiso   1.00
C46    C     0.46710   0.98110   0.46710   0.01267  Uiso   1.00
C47    C     0.98110   0.08470   0.46710   0.01267  Uiso   1.00
C48    C     0.22330   0.80090   0.48790   0.01267  Uiso   1.00
C49    C     0.10630   0.42050   0.42050   0.01267  Uiso   1.00
C50    C     0.46710   0.98110   0.08470   0.01267  Uiso   1.00
C51    C     0.53370   0.90250   0.03010   0.01267  Uiso   1.00
C52    C     0.42050   0.42050   0.05270   0.01267  Uiso   1.00
C53    C     0.42050   0.10630   0.05270   0.01267  Uiso   1.00
C54    C     0.91090   0.58910   0.58910   0.01267  Uiso   1.00
N1     N     0.19710   0.43710   0.92870   0.01267  Uiso   1.00
N2     N     0.54430   0.79390   0.11750   0.01267  Uiso   1.00
N3     N     0.54430   0.79390   0.54430   0.01267  Uiso   1.00
N4     N     0.54430   0.11750   0.79390   0.01267  Uiso   1.00
N5     N     0.54430   0.54430   0.79390   0.01267  Uiso   1.00
N6     N     0.43710   0.92870   0.19710   0.01267  Uiso   1.00
N7     N     0.43710   0.43710   0.19710   0.01267  Uiso   1.00
N8     N     0.79390   0.11750   0.54430   0.01267  Uiso   1.00
N9     N     0.43710   0.43710   0.92870   0.01267  Uiso   1.00
N10    N     0.11750   0.79390   0.54430   0.01267  Uiso   1.00
N11    N     0.92870   0.19710   0.43710   0.01267  Uiso   1.00
N12    N     0.79390   0.54430   0.54430   0.01267  Uiso   1.00
N13    N     0.19710   0.43710   0.43710   0.01267  Uiso   1.00
N14    N     0.54430   0.54430   0.11750   0.01267  Uiso   1.00
N15    N     0.79390   0.54430   0.11750   0.01267  Uiso   1.00
N16    N     0.43710   0.19710   0.92870   0.01267  Uiso   1.00
N17    N     0.19710   0.92870   0.43710   0.01267  Uiso   1.00
N18    N     0.43710   0.19710   0.43710   0.01267  Uiso   1.00
N19    N     0.92870   0.43710   0.43710   0.01267  Uiso   1.00
N20    N     0.11750   0.54430   0.79390   0.01267  Uiso   1.00
N21    N     0.54430   0.11750   0.54430   0.01267  Uiso   1.00
N22    N     0.43710   0.92870   0.43710   0.01267  Uiso   1.00
N23    N     0.92870   0.43710   0.19710   0.01267  Uiso   1.00
N24    N     0.11750   0.54430   0.54430   0.01267  Uiso   1.00
O1     O     0.89510   0.64530   0.81430   0.01267  Uiso   1.00
O2     O     0.58180   0.84720   0.98920   0.01267  Uiso   1.00
O3     O     0.36090   0.13910   0.36090   0.01267  Uiso   1.00
O4     O     0.98920   0.58180   0.58180   0.01267  Uiso   1.00
O5     O     0.58180   0.58180   0.98920   0.01267  Uiso   1.00
O6     O     0.81430   0.89510   0.64530   0.01267  Uiso   1.00
O7     O     0.84720   0.58180   0.58180   0.01267  Uiso   1.00
O8     O     0.96260   0.43700   0.43700   0.01267  Uiso   1.00
O9     O     0.64530   0.64530   0.81430   0.01267  Uiso   1.00
O10    O     0.96260   0.43700   0.16340   0.01267  Uiso   1.00
O11    O     0.64530   0.64530   0.89510   0.01267  Uiso   1.00
O12    O     0.36090   0.36090   0.13910   0.01267  Uiso   1.00
O13    O     0.16340   0.43700   0.96260   0.01267  Uiso   1.00
O14    O     0.81430   0.64530   0.64530   0.01267  Uiso   1.00
O15    O     0.58180   0.98920   0.58180   0.01267  Uiso   1.00
O16    O     0.43700   0.16340   0.43700   0.01267  Uiso   1.00
O17    O     0.84720   0.98920   0.58180   0.01267  Uiso   1.00
O18    O     0.43700   0.16340   0.96260   0.01267  Uiso   1.00
O19    O     0.13910   0.36090   0.13910   0.01267  Uiso   1.00
O20    O     0.89510   0.81430   0.64530   0.01267  Uiso   1.00
O21    O     0.96260   0.16340   0.43700   0.01267  Uiso   1.00
O22    O     0.98920   0.58180   0.84720   0.01267  Uiso   1.00
O23    O     0.98920   0.84720   0.58180   0.01267  Uiso   1.00
O24    O     0.64530   0.81430   0.89510   0.01267  Uiso   1.00
O25    O     0.64530   0.89510   0.81430   0.01267  Uiso   1.00
O26    O     0.84720   0.58180   0.98920   0.01267  Uiso   1.00
O27    O     0.13910   0.36090   0.36090   0.01267  Uiso   1.00
O28    O     0.16340   0.43700   0.43700   0.01267  Uiso   1.00
O29    O     0.43700   0.96260   0.43700   0.01267  Uiso   1.00
O30    O     0.43700   0.96260   0.16340   0.01267  Uiso   1.00
O31    O     0.81430   0.64530   0.89510   0.01267  Uiso   1.00
O32    O     0.43700   0.43700   0.96260   0.01267  Uiso   1.00
O33    O     0.58180   0.84720   0.58180   0.01267  Uiso   1.00
O34    O     0.13910   0.13910   0.36090   0.01267  Uiso   1.00
O35    O     0.89510   0.64530   0.64530   0.01267  Uiso   1.00
O36    O     0.58180   0.58180   0.84720   0.01267  Uiso   1.00
O37    O     0.36090   0.13910   0.13910   0.01267  Uiso   1.00
O38    O     0.64530   0.81430   0.64530   0.01267  Uiso   1.00
O39    O     0.64530   0.89510   0.64530   0.01267  Uiso   1.00
O40    O     0.16340   0.96260   0.43700   0.01267  Uiso   1.00
O41    O     0.58180   0.98920   0.84720   0.01267  Uiso   1.00
O42    O     0.43700   0.43700   0.16340   0.01267  Uiso   1.00
