data_cg100357q_si_002_clean
_audit_creation_date              2015-08-19
_audit_creation_method            'Materials Studio'
_symmetry_space_group_name_H-M    'P1'
_symmetry_Int_Tables_number       1
_symmetry_cell_setting            triclinic
loop_
_symmetry_equiv_pos_as_xyz
  x,y,z
_cell_length_a                    10.7448
_cell_length_b                    19.2009
_cell_length_c                    30.6914
_cell_angle_alpha                 87.1926
_cell_angle_beta                  79.9186
_cell_angle_gamma                 73.7515
loop_
_atom_site_label
_atom_site_type_symbol
_atom_site_fract_x
_atom_site_fract_y
_atom_site_fract_z
_atom_site_U_iso_or_equiv
_atom_site_adp_type
_atom_site_occupancy
Zn1    Zn    0.51165   0.42417   0.48733   0.01267  Uiso   1.00
Zn2    Zn    0.07685   0.92417   0.98733   0.01267  Uiso   1.00
Zn3    Zn    0.48835   0.57583   0.51267   0.01267  Uiso   1.00
Zn4    Zn    0.43582   0.57583   0.98733   0.01267  Uiso   1.00
Zn5    Zn    0.56418   0.42417   0.01267   0.01267  Uiso   1.00
Zn6    Zn    0.92315   0.07583   0.01267   0.01267  Uiso   1.00
Zn7    Zn    0.50102   0.07583   0.48733   0.01267  Uiso   1.00
Zn8    Zn    0.49898   0.92417   0.51267   0.01267  Uiso   1.00
H1     H     0.04300   0.56700   0.03340   0.01267  Uiso   1.00
H2     H     0.59500   0.05560   0.09260   0.01267  Uiso   1.00
H3     H     0.75300   0.83000   0.39580   0.01267  Uiso   1.00
H4     H     0.52290   0.17280   0.54700   0.01267  Uiso   1.00
H5     H     0.67040   0.17880   0.44280   0.01267  Uiso   1.00
H6     H     0.33160   0.32220   0.51420   0.01267  Uiso   1.00
H7     H     0.81240   0.44440   0.09260   0.01267  Uiso   1.00
H8     H     0.27580   0.71480   0.33060   0.01267  Uiso   1.00
H9     H     0.07560   0.59240   0.71760   0.01267  Uiso   1.00
H10    H     0.25970   0.96640   0.85120   0.01267  Uiso   1.00
H11    H     0.19570   0.82720   0.04700   0.01267  Uiso   1.00
H12    H     0.85080   0.82060   0.83220   0.01267  Uiso   1.00
H13    H     0.65550   0.27180   0.51640   0.01267  Uiso   1.00
H14    H     0.42270   0.46640   0.35120   0.01267  Uiso   1.00
H15    H     0.35120   0.67000   0.39580   0.01267  Uiso   1.00
H16    H     0.91990   0.20140   0.95820   0.01267  Uiso   1.00
H17    H     0.29870   0.71340   0.53500   0.01267  Uiso   1.00
H18    H     0.53290   0.26820   0.03680   0.01267  Uiso   1.00
H19    H     0.57270   0.69960   0.45360   0.01267  Uiso   1.00
H20    H     0.67190   0.77180   0.48360   0.01267  Uiso   1.00
H21    H     0.11000   0.43300   0.53340   0.01267  Uiso   1.00
H22    H     0.18760   0.55560   0.90740   0.01267  Uiso   1.00
H23    H     0.60020   0.69360   0.74000   0.01267  Uiso   1.00
H24    H     0.34510   0.84680   0.99220   0.01267  Uiso   1.00
H25    H     0.34220   0.73780   0.65780   0.01267  Uiso   1.00
H26    H     0.46710   0.73180   0.96320   0.01267  Uiso   1.00
H27    H     0.32960   0.82120   0.55720   0.01267  Uiso   1.00
H28    H     0.65080   0.17880   0.05720   0.01267  Uiso   1.00
H29    H     0.93030   0.23180   0.03680   0.01267  Uiso   1.00
H30    H     0.66280   0.16220   0.05840   0.01267  Uiso   1.00
H31    H     0.84410   0.19780   0.07560   0.01267  Uiso   1.00
H32    H     0.35300   0.28200   0.28780   0.01267  Uiso   1.00
H33    H     0.67500   0.16220   0.44160   0.01267  Uiso   1.00
H34    H     0.57270   0.27180   0.98360   0.01267  Uiso   1.00
H35    H     0.30810   0.84680   0.50780   0.01267  Uiso   1.00
H36    H     0.34920   0.82120   0.94280   0.01267  Uiso   1.00
H37    H     0.39830   0.05280   0.93740   0.01267  Uiso   1.00
H38    H     0.84620   0.32220   0.98580   0.01267  Uiso   1.00
H39    H     0.77410   0.19960   0.95360   0.01267  Uiso   1.00
H40    H     0.95700   0.43300   0.96660   0.01267  Uiso   1.00
H41    H     0.98870   0.86320   0.88560   0.01267  Uiso   1.00
H42    H     0.78240   0.86360   0.92520   0.01267  Uiso   1.00
H43    H     0.66800   0.17780   0.98580   0.01267  Uiso   1.00
H44    H     0.66840   0.67780   0.48580   0.01267  Uiso   1.00
H45    H     0.08300   0.17000   0.89580   0.01267  Uiso   1.00
H46    H     0.89360   0.78520   0.33060   0.01267  Uiso   1.00
H47    H     0.62570   0.63680   0.88560   0.01267  Uiso   1.00
H48    H     0.26630   0.85780   0.79220   0.01267  Uiso   1.00
H49    H     0.16800   0.40760   0.21760   0.01267  Uiso   1.00
H50    H     0.74270   0.32720   0.95300   0.01267  Uiso   1.00
H51    H     0.14920   0.17940   0.16780   0.01267  Uiso   1.00
H52    H     0.44150   0.64220   0.79220   0.01267  Uiso   1.00
H53    H     0.24700   0.17000   0.60420   0.01267  Uiso   1.00
H54    H     0.99640   0.32060   0.33220   0.01267  Uiso   1.00
H55    H     0.94250   0.86280   0.27500   0.01267  Uiso   1.00
H56    H     0.52630   0.19960   0.54640   0.01267  Uiso   1.00
H57    H     0.46840   0.70180   0.58060   0.01267  Uiso   1.00
H58    H     0.79200   0.32120   0.05720   0.01267  Uiso   1.00
H59    H     0.77230   0.30040   0.95360   0.01267  Uiso   1.00
H60    H     0.37810   0.70140   0.04180   0.01267  Uiso   1.00
H61    H     0.17880   0.21480   0.83060   0.01267  Uiso   1.00
H62    H     0.37870   0.20140   0.54180   0.01267  Uiso   1.00
H63    H     0.61320   0.67880   0.55720   0.01267  Uiso   1.00
H64    H     0.38910   0.53360   0.85120   0.01267  Uiso   1.00
H65    H     0.22590   0.80040   0.04640   0.01267  Uiso   1.00
H66    H     0.69890   0.26820   0.46320   0.01267  Uiso   1.00
H67    H     0.22770   0.69960   0.04640   0.01267  Uiso   1.00
H68    H     0.38680   0.32120   0.44280   0.01267  Uiso   1.00
H69    H     0.64700   0.71800   0.71220   0.01267  Uiso   1.00
H70    H     0.58030   0.30220   0.07560   0.01267  Uiso   1.00
H71    H     0.76220   0.23780   0.15780   0.01267  Uiso   1.00
H72    H     0.89000   0.56700   0.46660   0.01267  Uiso   1.00
H73    H     0.39980   0.30640   0.26000   0.01267  Uiso   1.00
H74    H     0.70680   0.90760   0.71760   0.01267  Uiso   1.00
H75    H     0.42050   0.70140   0.45820   0.01267  Uiso   1.00
H76    H     0.62190   0.29860   0.95820   0.01267  Uiso   1.00
H77    H     0.64810   0.86320   0.61440   0.01267  Uiso   1.00
H78    H     0.20760   0.36360   0.07480   0.01267  Uiso   1.00
H79    H     0.16270   0.65320   0.99220   0.01267  Uiso   1.00
H80    H     0.98420   0.04400   0.16320   0.01267  Uiso   1.00
H81    H     0.64880   0.33000   0.60420   0.01267  Uiso   1.00
H82    H     0.41630   0.64220   0.70780   0.01267  Uiso   1.00
H83    H     0.20800   0.67880   0.94280   0.01267  Uiso   1.00
H84    H     0.25730   0.67280   0.04700   0.01267  Uiso   1.00
H85    H     0.47370   0.80040   0.45360   0.01267  Uiso   1.00
H86    H     0.65490   0.15320   0.00780   0.01267  Uiso   1.00
H87    H     0.58370   0.35780   0.29220   0.01267  Uiso   1.00
H88    H     0.17140   0.17940   0.33220   0.01267  Uiso   1.00
H89    H     0.61660   0.66220   0.55840   0.01267  Uiso   1.00
H90    H     0.10640   0.21480   0.66940   0.01267  Uiso   1.00
H91    H     0.88560   0.90760   0.78240   0.01267  Uiso   1.00
H92    H     0.20620   0.69360   0.76000   0.01267  Uiso   1.00
H93    H     0.33370   0.21340   0.46500   0.01267  Uiso   1.00
H94    H     0.82120   0.78520   0.16940   0.01267  Uiso   1.00
H95    H     0.94370   0.22820   0.98360   0.01267  Uiso   1.00
H96    H     0.32810   0.22820   0.51640   0.01267  Uiso   1.00
H97    H     0.42730   0.72820   0.01640   0.01267  Uiso   1.00
H98    H     0.83730   0.34680   0.00780   0.01267  Uiso   1.00
H99    H     0.83200   0.59240   0.78240   0.01267  Uiso   1.00
H100   H     0.56990   0.67280   0.45300   0.01267  Uiso   1.00
H101   H     0.48790   0.71340   0.96500   0.01267  Uiso   1.00
H102   H     0.74920   0.20180   0.08060   0.01267  Uiso   1.00
H103   H     0.08010   0.79860   0.04180   0.01267  Uiso   1.00
H104   H     0.60170   0.94720   0.06260   0.01267  Uiso   1.00
H105   H     0.84020   0.19360   0.26000   0.01267  Uiso   1.00
H106   H     0.58000   0.26220   0.15780   0.01267  Uiso   1.00
H107   H     0.41970   0.69780   0.92440   0.01267  Uiso   1.00
H108   H     0.52120   0.33000   0.89580   0.01267  Uiso   1.00
H109   H     0.47880   0.67000   0.10420   0.01267  Uiso   1.00
H110   H     0.79240   0.63640   0.92520   0.01267  Uiso   1.00
H111   H     0.83570   0.55280   0.06260   0.01267  Uiso   1.00
H112   H     0.72610   0.03360   0.35120   0.01267  Uiso   1.00
H113   H     0.35190   0.13680   0.38560   0.01267  Uiso   1.00
H114   H     0.37430   0.36320   0.11440   0.01267  Uiso   1.00
H115   H     0.55850   0.35780   0.20780   0.01267  Uiso   1.00
H116   H     0.64740   0.54400   0.83680   0.01267  Uiso   1.00
H117   H     0.32980   0.70180   0.91940   0.01267  Uiso   1.00
H118   H     0.05630   0.77180   0.01640   0.01267  Uiso   1.00
H119   H     0.37590   0.85780   0.70780   0.01267  Uiso   1.00
H120   H     0.57950   0.29860   0.54180   0.01267  Uiso   1.00
H121   H     0.25080   0.79820   0.91940   0.01267  Uiso   1.00
H122   H     0.57730   0.53360   0.64880   0.01267  Uiso   1.00
H123   H     0.04710   0.78660   0.96500   0.01267  Uiso   1.00
H124   H     0.07120   0.63640   0.57480   0.01267  Uiso   1.00
H125   H     0.57640   0.06700   0.96660   0.01267  Uiso   1.00
H126   H     0.52820   0.95600   0.66320   0.01267  Uiso   1.00
H127   H     0.61090   0.46640   0.14880   0.01267  Uiso   1.00
H128   H     0.57720   0.78200   0.78780   0.01267  Uiso   1.00
H129   H     0.53160   0.29820   0.41940   0.01267  Uiso   1.00
H130   H     0.45100   0.79820   0.58060   0.01267  Uiso   1.00
H131   H     0.14080   0.78200   0.71220   0.01267  Uiso   1.00
H132   H     0.86500   0.28200   0.21220   0.01267  Uiso   1.00
H133   H     0.18300   0.32060   0.16780   0.01267  Uiso   1.00
H134   H     0.30530   0.13720   0.77500   0.01267  Uiso   1.00
H135   H     0.80430   0.17280   0.95300   0.01267  Uiso   1.00
H136   H     0.33720   0.83780   0.94160   0.01267  Uiso   1.00
H137   H     0.69190   0.15320   0.49220   0.01267  Uiso   1.00
H138   H     0.30860   0.54400   0.66320   0.01267  Uiso   1.00
H139   H     0.22120   0.66220   0.94160   0.01267  Uiso   1.00
H140   H     0.14340   0.93300   0.46660   0.01267  Uiso   1.00
H141   H     0.42000   0.73780   0.84220   0.01267  Uiso   1.00
H142   H     0.00360   0.67940   0.66780   0.01267  Uiso   1.00
H143   H     0.61750   0.30220   0.42440   0.01267  Uiso   1.00
H144   H     0.85660   0.06700   0.53340   0.01267  Uiso   1.00
H145   H     0.15380   0.67780   0.01420   0.01267  Uiso   1.00
H146   H     0.42280   0.21800   0.21220   0.01267  Uiso   1.00
H147   H     0.72420   0.28520   0.66940   0.01267  Uiso   1.00
H148   H     0.71750   0.36280   0.72500   0.01267  Uiso   1.00
H149   H     0.38340   0.33780   0.44160   0.01267  Uiso   1.00
H150   H     0.65780   0.26220   0.34220   0.01267  Uiso   1.00
H151   H     0.43010   0.32720   0.54700   0.01267  Uiso   1.00
H152   H     0.29320   0.09240   0.28240   0.01267  Uiso   1.00
H153   H     0.92440   0.40760   0.28240   0.01267  Uiso   1.00
H154   H     0.15980   0.80640   0.74000   0.01267  Uiso   1.00
H155   H     0.30110   0.73180   0.53680   0.01267  Uiso   1.00
H156   H     0.23780   0.76220   0.84220   0.01267  Uiso   1.00
H157   H     0.85400   0.86360   0.57480   0.01267  Uiso   1.00
H158   H     0.54900   0.20180   0.41940   0.01267  Uiso   1.00
H159   H     0.40500   0.94440   0.90740   0.01267  Uiso   1.00
H160   H     0.74030   0.03360   0.14880   0.01267  Uiso   1.00
H161   H     0.28250   0.63720   0.27500   0.01267  Uiso   1.00
H162   H     0.05750   0.13720   0.72500   0.01267  Uiso   1.00
H163   H     0.70130   0.28660   0.46500   0.01267  Uiso   1.00
H164   H     0.01130   0.13680   0.11440   0.01267  Uiso   1.00
H165   H     0.81700   0.67940   0.83220   0.01267  Uiso   1.00
H166   H     0.33790   0.23180   0.46320   0.01267  Uiso   1.00
H167   H     0.11440   0.09240   0.21760   0.01267  Uiso   1.00
H168   H     0.33200   0.82220   0.01420   0.01267  Uiso   1.00
H169   H     0.54190   0.80220   0.57560   0.01267  Uiso   1.00
H170   H     0.77880   0.33780   0.05840   0.01267  Uiso   1.00
H171   H     0.85920   0.21800   0.28780   0.01267  Uiso   1.00
H172   H     0.67020   0.29820   0.08060   0.01267  Uiso   1.00
H173   H     0.53380   0.80640   0.76000   0.01267  Uiso   1.00
H174   H     0.68410   0.65320   0.50780   0.01267  Uiso   1.00
H175   H     0.91700   0.83000   0.10420   0.01267  Uiso   1.00
H176   H     0.47180   0.04400   0.33680   0.01267  Uiso   1.00
H177   H     0.62410   0.14220   0.29220   0.01267  Uiso   1.00
H178   H     0.42730   0.30040   0.54640   0.01267  Uiso   1.00
H179   H     0.45810   0.19780   0.42440   0.01267  Uiso   1.00
H180   H     0.06970   0.76820   0.96320   0.01267  Uiso   1.00
H181   H     0.14600   0.13640   0.42520   0.01267  Uiso   1.00
H182   H     0.69140   0.45600   0.33680   0.01267  Uiso   1.00
H183   H     0.35260   0.45600   0.16320   0.01267  Uiso   1.00
H184   H     0.01580   0.95600   0.83680   0.01267  Uiso   1.00
H185   H     0.66210   0.76820   0.53680   0.01267  Uiso   1.00
H186   H     0.66630   0.78660   0.53500   0.01267  Uiso   1.00
H187   H     0.16430   0.44720   0.93740   0.01267  Uiso   1.00
H188   H     0.50940   0.71480   0.16940   0.01267  Uiso   1.00
H189   H     0.42360   0.93300   0.03340   0.01267  Uiso   1.00
H190   H     0.15590   0.80220   0.92440   0.01267  Uiso   1.00
H191   H     0.95290   0.21340   0.03500   0.01267  Uiso   1.00
H192   H     0.31590   0.34680   0.49220   0.01267  Uiso   1.00
H193   H     0.47710   0.82720   0.45300   0.01267  Uiso   1.00
H194   H     0.79380   0.30640   0.24000   0.01267  Uiso   1.00
H195   H     0.21760   0.13640   0.07480   0.01267  Uiso   1.00
H196   H     0.38250   0.69780   0.57560   0.01267  Uiso   1.00
H197   H     0.13500   0.71800   0.78780   0.01267  Uiso   1.00
H198   H     0.41970   0.36280   0.77500   0.01267  Uiso   1.00
H199   H     0.34580   0.82220   0.48580   0.01267  Uiso   1.00
H200   H     0.27390   0.96640   0.64880   0.01267  Uiso   1.00
H201   H     0.65420   0.17780   0.51420   0.01267  Uiso   1.00
H202   H     0.46620   0.19360   0.24000   0.01267  Uiso   1.00
H203   H     0.62130   0.79860   0.45820   0.01267  Uiso   1.00
H204   H     0.73370   0.14220   0.20780   0.01267  Uiso   1.00
H205   H     0.32500   0.83780   0.55840   0.01267  Uiso   1.00
H206   H     0.82860   0.82060   0.66780   0.01267  Uiso   1.00
H207   H     0.69470   0.86280   0.22500   0.01267  Uiso   1.00
H208   H     0.76250   0.36320   0.38560   0.01267  Uiso   1.00
H209   H     0.92880   0.36360   0.42520   0.01267  Uiso   1.00
H210   H     0.49060   0.28520   0.83060   0.01267  Uiso   1.00
H211   H     0.58030   0.63720   0.22500   0.01267  Uiso   1.00
H212   H     0.23750   0.63680   0.61440   0.01267  Uiso   1.00
H213   H     0.34450   0.72820   0.48360   0.01267  Uiso   1.00
H214   H     0.51210   0.28660   0.03500   0.01267  Uiso   1.00
C1     C     0.94187   0.52276   0.45270   0.01267  Uiso   1.00
C2     C     0.20130   0.68900   0.97460   0.01267  Uiso   1.00
C3     C     0.37260   0.35280   0.14500   0.01267  Uiso   1.00
C4     C     0.29643   0.09768   0.07146   0.01267  Uiso   1.00
C5     C     0.36960   0.23300   0.29780   0.01267  Uiso   1.00
C6     C     0.57770   0.69680   0.47980   0.01267  Uiso   1.00
C7     C     0.39171   0.45570   0.80748   0.01267  Uiso   1.00
C8     C     0.52394   0.98642   0.06410   0.01267  Uiso   1.00
C9     C     0.28202   0.47404   0.03292   0.01267  Uiso   1.00
C10    C     0.41733   0.97724   0.04730   0.01267  Uiso   1.00
C11    C     0.74646   0.39400   0.28228   0.01267  Uiso   1.00
C12    C     0.39749   0.17118   0.11044   0.01267  Uiso   1.00
C13    C     0.60718   0.48258   0.65286   0.01267  Uiso   1.00
C14    C     0.50440   0.70800   0.82980   0.01267  Uiso   1.00
C15    C     0.65088   0.50740   0.72504   0.01267  Uiso   1.00
C16    C     0.45780   0.20800   0.32980   0.01267  Uiso   1.00
C17    C     0.54250   0.78440   0.47260   0.01267  Uiso   1.00
C18    C     0.74570   0.19680   0.97980   0.01267  Uiso   1.00
C19    C     0.63955   0.59200   0.82610   0.01267  Uiso   1.00
C20    C     0.12408   0.99260   0.72504   0.01267  Uiso   1.00
C21    C     0.91196   0.51358   0.06410   0.01267  Uiso   1.00
C22    C     0.89740   0.23300   0.20220   0.01267  Uiso   1.00
C23    C     0.10522   0.03304   0.92232   0.01267  Uiso   1.00
C24    C     0.54220   0.56300   0.12020   0.01267  Uiso   1.00
C25    C     0.24262   0.01742   0.84714   0.01267  Uiso   1.00
C26    C     0.38620   0.72440   0.54720   0.01267  Uiso   1.00
C27    C     0.95830   0.87880   0.79480   0.01267  Uiso   1.00
C28    C     0.33170   0.65020   0.70000   0.01267  Uiso   1.00
C29    C     0.26030   0.32620   0.17640   0.01267  Uiso   1.00
C30    C     0.02214   0.72230   0.86862   0.01267  Uiso   1.00
C31    C     0.15489   0.04430   0.69252   0.01267  Uiso   1.00
C32    C     0.72873   0.88220   0.19794   0.01267  Uiso   1.00
C33    C     0.88694   0.22230   0.36862   0.01267  Uiso   1.00
C34    C     0.10260   0.76700   0.79780   0.01267  Uiso   1.00
C35    C     0.66290   0.87880   0.70520   0.01267  Uiso   1.00
C36    C     0.36490   0.81100   0.52540   0.01267  Uiso   1.00
C37    C     0.83260   0.26700   0.29780   0.01267  Uiso   1.00
C38    C     0.26845   0.59200   0.67390   0.01267  Uiso   1.00
C39    C     0.28898   0.02596   0.46708   0.01267  Uiso   1.00
C40    C     0.60520   0.43700   0.62020   0.01267  Uiso   1.00
C41    C     0.39282   0.51742   0.34714   0.01267  Uiso   1.00
C42    C     0.73970   0.67380   0.82360   0.01267  Uiso   1.00
C43    C     0.55765   0.90800   0.67390   0.01267  Uiso   1.00
C44    C     0.04170   0.12120   0.20520   0.01267  Uiso   1.00
C45    C     0.15780   0.77560   0.95280   0.01267  Uiso   1.00
C46    C     0.47126   0.10600   0.28228   0.01267  Uiso   1.00
C47    C     0.10860   0.77080   0.98640   0.01267  Uiso   1.00
C48    C     0.65828   0.49260   0.22504   0.01267  Uiso   1.00
C49    C     0.98240   0.14720   0.14500   0.01267  Uiso   1.00
C50    C     0.76004   0.98258   0.34714   0.01267  Uiso   1.00
C51    C     0.66830   0.34980   0.30000   0.01267  Uiso   1.00
C52    C     0.59565   0.89356   0.91274   0.01267  Uiso   1.00
C53    C     0.39480   0.56300   0.37980   0.01267  Uiso   1.00
C54    C     0.41010   0.79980   0.55400   0.01267  Uiso   1.00
C55    C     0.34741   0.54430   0.30748   0.01267  Uiso   1.00
C56    C     0.60924   0.77770   0.86862   0.01267  Uiso   1.00
C57    C     0.49560   0.29200   0.17020   0.01267  Uiso   1.00
C58    C     0.16240   0.06300   0.87980   0.01267  Uiso   1.00
C59    C     0.73710   0.82620   0.67640   0.01267  Uiso   1.00
C60    C     0.54220   0.79200   0.67020   0.01267  Uiso   1.00
C61    C     0.17310   0.78440   0.02740   0.01267  Uiso   1.00
C62    C     0.61738   0.71908   0.84016   0.01267  Uiso   1.00
C63    C     0.42230   0.30320   0.52020   0.01267  Uiso   1.00
C64    C     0.73155   0.40800   0.32610   0.01267  Uiso   1.00
C65    C     0.77555   0.86248   0.37342   0.01267  Uiso   1.00
C66    C     0.74690   0.62120   0.79480   0.01267  Uiso   1.00
C67    C     0.11306   0.77770   0.63138   0.01267  Uiso   1.00
C68    C     0.63826   0.96696   0.42232   0.01267  Uiso   1.00
C69    C     0.52884   0.66380   0.16532   0.01267  Uiso   1.00
C70    C     0.53590   0.70020   0.55400   0.01267  Uiso   1.00
C71    C     0.29950   0.71560   0.02740   0.01267  Uiso   1.00
C72    C     0.56058   0.46696   0.57768   0.01267  Uiso   1.00
C73    C     0.93133   0.17118   0.38956   0.01267  Uiso   1.00
C74    C     0.86789   0.59768   0.92854   0.01267  Uiso   1.00
C75    C     0.44235   0.09200   0.32610   0.01267  Uiso   1.00
C76    C     0.38332   0.99260   0.77496   0.01267  Uiso   1.00
C77    C     0.16580   0.79200   0.82980   0.01267  Uiso   1.00
C78    C     0.13211   0.40232   0.07146   0.01267  Uiso   1.00
C79    C     0.77450   0.30320   0.97980   0.01267  Uiso   1.00
C80    C     0.11870   0.81900   0.76960   0.01267  Uiso   1.00
C81    C     0.16740   0.73300   0.70220   0.01267  Uiso   1.00
C82    C     0.44250   0.80320   0.47980   0.01267  Uiso   1.00
C83    C     0.37040   0.14720   0.35500   0.01267  Uiso   1.00
C84    C     0.06330   0.17380   0.17640   0.01267  Uiso   1.00
C85    C     0.22550   0.69680   0.02020   0.01267  Uiso   1.00
C86    C     0.35954   0.39400   0.21772   0.01267  Uiso   1.00
C87    C     0.51510   0.28440   0.52740   0.01267  Uiso   1.00
C88    C     0.34172   0.50740   0.77496   0.01267  Uiso   1.00
C89    C     0.64046   0.60600   0.78228   0.01267  Uiso   1.00
C90    C     0.45750   0.21560   0.52740   0.01267  Uiso   1.00
C91    C     0.20730   0.68100   0.73040   0.01267  Uiso   1.00
C92    C     0.11494   0.53398   0.55094   0.01267  Uiso   1.00
C93    C     0.89411   0.90232   0.57146   0.01267  Uiso   1.00
C94    C     0.28760   0.70800   0.67020   0.01267  Uiso   1.00
C95    C     0.58267   0.02276   0.95270   0.01267  Uiso   1.00
C96    C     0.55750   0.19680   0.52020   0.01267  Uiso   1.00
C97    C     0.97786   0.27770   0.13138   0.01267  Uiso   1.00
C98    C     0.67662   0.78092   0.65984   0.01267  Uiso   1.00
C99    C     0.83412   0.96602   0.55094   0.01267  Uiso   1.00
C100   C     0.13803   0.13752   0.87342   0.01267  Uiso   1.00
C101   C     0.63420   0.27080   0.48640   0.01267  Uiso   1.00
C102   C     0.60970   0.68900   0.52540   0.01267  Uiso   1.00
C103   C     0.79270   0.31900   0.26960   0.01267  Uiso   1.00
C104   C     0.89478   0.96696   0.07768   0.01267  Uiso   1.00
C105   C     0.23996   0.01742   0.65286   0.01267  Uiso   1.00
C106   C     0.69113   0.38220   0.69794   0.01267  Uiso   1.00
C107   C     0.30014   0.03398   0.05094   0.01267  Uiso   1.00
C108   C     0.48190   0.34980   0.20000   0.01267  Uiso   1.00
C109   C     0.33710   0.12120   0.29480   0.01267  Uiso   1.00
C110   C     0.73610   0.29980   0.05400   0.01267  Uiso   1.00
C111   C     0.71102   0.97404   0.53292   0.01267  Uiso   1.00
C112   C     0.87592   0.00740   0.27496   0.01267  Uiso   1.00
C113   C     0.43770   0.18100   0.26960   0.01267  Uiso   1.00
C114   C     0.59500   0.27080   0.01360   0.01267  Uiso   1.00
C115   C     0.63040   0.76700   0.70220   0.01267  Uiso   1.00
C116   C     0.52874   0.89400   0.71772   0.01267  Uiso   1.00
C117   C     0.26290   0.17380   0.32360   0.01267  Uiso   1.00
C118   C     0.39076   0.22230   0.13138   0.01267  Uiso   1.00
C119   C     0.58976   0.51742   0.15286   0.01267  Uiso   1.00
C120   C     0.09891   0.94894   0.75124   0.01267  Uiso   1.00
C121   C     0.10213   0.54980   0.91734   0.01267  Uiso   1.00
C122   C     0.93670   0.82620   0.82360   0.01267  Uiso   1.00
C123   C     0.61380   0.27560   0.45280   0.01267  Uiso   1.00
C124   C     0.16588   0.03398   0.44906   0.01267  Uiso   1.00
C125   C     0.30887   0.61780   0.30206   0.01267  Uiso   1.00
C126   C     0.72540   0.93700   0.37980   0.01267  Uiso   1.00
C127   C     0.18506   0.02596   0.03292   0.01267  Uiso   1.00
C128   C     0.52754   0.53304   0.07768   0.01267  Uiso   1.00
C129   C     0.13190   0.62120   0.70520   0.01267  Uiso   1.00
C130   C     0.67590   0.18900   0.02540   0.01267  Uiso   1.00
C131   C     0.04246   0.78092   0.84016   0.01267  Uiso   1.00
C132   C     0.35015   0.44894   0.24876   0.01267  Uiso   1.00
C133   C     0.84220   0.22440   0.04720   0.01267  Uiso   1.00
C134   C     0.25354   0.60600   0.71772   0.01267  Uiso   1.00
C135   C     0.63510   0.18900   0.47460   0.01267  Uiso   1.00
C136   C     0.56660   0.77560   0.54720   0.01267  Uiso   1.00
C137   C     0.81810   0.15020   0.20000   0.01267  Uiso   1.00
C138   C     0.96463   0.47724   0.95270   0.01267  Uiso   1.00
C139   C     0.00793   0.67118   0.88956   0.01267  Uiso   1.00
C140   C     0.25606   0.52596   0.53292   0.01267  Uiso   1.00
C141   C     0.11093   0.11780   0.69794   0.01267  Uiso   1.00
C142   C     0.01760   0.85280   0.85500   0.01267  Uiso   1.00
C143   C     0.51145   0.63752   0.12658   0.01267  Uiso   1.00
C144   C     0.08650   0.67380   0.67640   0.01267  Uiso   1.00
C145   C     0.48053   0.95020   0.91734   0.01267  Uiso   1.00
C146   C     0.95754   0.21908   0.15984   0.01267  Uiso   1.00
C147   C     0.65259   0.45570   0.69252   0.01267  Uiso   1.00
C148   C     0.16354   0.71908   0.65984   0.01267  Uiso   1.00
C149   C     0.46830   0.84980   0.70000   0.01267  Uiso   1.00
C150   C     0.69919   0.95570   0.19252   0.01267  Uiso   1.00
C151   C     0.85796   0.83620   0.33468   0.01267  Uiso   1.00
C152   C     0.19416   0.16380   0.83468   0.01267  Uiso   1.00
C153   C     0.36045   0.40800   0.17390   0.01267  Uiso   1.00
C154   C     0.22445   0.13752   0.62658   0.01267  Uiso   1.00
C155   C     0.89140   0.22920   0.01360   0.01267  Uiso   1.00
C156   C     0.83420   0.20800   0.17020   0.01267  Uiso   1.00
C157   C     0.84511   0.95570   0.30748   0.01267  Uiso   1.00
C158   C     0.61060   0.27560   0.04720   0.01267  Uiso   1.00
C159   C     0.38940   0.72440   0.95280   0.01267  Uiso   1.00
C160   C     0.85108   0.53398   0.94906   0.01267  Uiso   1.00
C161   C     0.37940   0.22920   0.48640   0.01267  Uiso   1.00
C162   C     0.60251   0.82882   0.88956   0.01267  Uiso   1.00
C163   C     0.18190   0.84980   0.80000   0.01267  Uiso   1.00
C164   C     0.47246   0.46696   0.92232   0.01267  Uiso   1.00
C165   C     0.88130   0.18100   0.23040   0.01267  Uiso   1.00
C166   C     0.30736   0.66380   0.33468   0.01267  Uiso   1.00
C167   C     0.25310   0.37880   0.20520   0.01267  Uiso   1.00
C168   C     0.82089   0.67118   0.61044   0.01267  Uiso   1.00
C169   C     0.88907   0.88220   0.30206   0.01267  Uiso   1.00
C170   C     0.48490   0.71560   0.47260   0.01267  Uiso   1.00
C171   C     0.86197   0.86248   0.12658   0.01267  Uiso   1.00
C172   C     0.98921   0.10644   0.41274   0.01267  Uiso   1.00
C173   C     0.36174   0.03304   0.57768   0.01267  Uiso   1.00
C174   C     0.89787   0.45020   0.08266   0.01267  Uiso   1.00
C175   C     0.26390   0.70020   0.94600   0.01267  Uiso   1.00
C176   C     0.69264   0.33620   0.66532   0.01267  Uiso   1.00
C177   C     0.03537   0.52276   0.04730   0.01267  Uiso   1.00
C178   C     0.24444   0.27770   0.36862   0.01267  Uiso   1.00
C179   C     0.58990   0.20020   0.44600   0.01267  Uiso   1.00
C180   C     0.43942   0.53304   0.42232   0.01267  Uiso   1.00
C181   C     0.57333   0.61780   0.19794   0.01267  Uiso   1.00
C182   C     0.99161   0.60644   0.91274   0.01267  Uiso   1.00
C183   C     0.25430   0.80320   0.02020   0.01267  Uiso   1.00
C184   C     0.38262   0.28092   0.15984   0.01267  Uiso   1.00
C185   C     0.41024   0.48258   0.84714   0.01267  Uiso   1.00
C186   C     0.89457   0.02276   0.54730   0.01267  Uiso   1.00
C187   C     0.77460   0.35280   0.35500   0.01267  Uiso   1.00
C188   C     0.43340   0.22440   0.45280   0.01267  Uiso   1.00
C189   C     0.74394   0.47404   0.46708   0.01267  Uiso   1.00
C190   C     0.00839   0.39356   0.08726   0.01267  Uiso   1.00
C191   C     0.32410   0.81100   0.97460   0.01267  Uiso   1.00
C192   C     0.14204   0.16380   0.66532   0.01267  Uiso   1.00
C193   C     0.47116   0.33620   0.83468   0.01267  Uiso   1.00
C194   C     0.83760   0.93700   0.12020   0.01267  Uiso   1.00
C195   C     0.38830   0.31900   0.23040   0.01267  Uiso   1.00
C196   C     0.45780   0.43700   0.87980   0.01267  Uiso   1.00
C197   C     0.62960   0.85280   0.64500   0.01267  Uiso   1.00
C198   C     0.34912   0.49260   0.27496   0.01267  Uiso   1.00
C199   C     0.03435   0.90800   0.82610   0.01267  Uiso   1.00
C200   C     0.70050   0.28440   0.97260   0.01267  Uiso   1.00
C201   C     0.79870   0.31100   0.02540   0.01267  Uiso   1.00
C202   C     0.46410   0.29980   0.44600   0.01267  Uiso   1.00
C203   C     0.48855   0.36248   0.87342   0.01267  Uiso   1.00
C204   C     0.42667   0.38220   0.80206   0.01267  Uiso   1.00
C205   C     0.96557   0.40232   0.42854   0.01267  Uiso   1.00
C206   C     0.01079   0.89356   0.58726   0.01267  Uiso   1.00
C207   C     0.96565   0.09200   0.17390   0.01267  Uiso   1.00
C208   C     0.90109   0.05106   0.24876   0.01267  Uiso   1.00
C209   C     0.30081   0.04430   0.80748   0.01267  Uiso   1.00
C210   C     0.27127   0.11780   0.80206   0.01267  Uiso   1.00
C211   C     0.88506   0.46602   0.44906   0.01267  Uiso   1.00
C212   C     0.99207   0.32882   0.11044   0.01267  Uiso   1.00
C213   C     0.51810   0.65020   0.80000   0.01267  Uiso   1.00
C214   C     0.47606   0.01358   0.93590   0.01267  Uiso   1.00
C215   C     0.71240   0.29200   0.32980   0.01267  Uiso   1.00
C216   C     0.64985   0.55106   0.75124   0.01267  Uiso   1.00
C217   C     0.56230   0.81900   0.73040   0.01267  Uiso   1.00
C218   C     0.70357   0.90232   0.92854   0.01267  Uiso   1.00
C219   C     0.22540   0.64720   0.64500   0.01267  Uiso   1.00
C220   C     0.83646   0.28092   0.34016   0.01267  Uiso   1.00
C221   C     0.61668   0.00740   0.22504   0.01267  Uiso   1.00
C222   C     0.71798   0.52596   0.96708   0.01267  Uiso   1.00
C223   C     0.40435   0.10644   0.08726   0.01267  Uiso   1.00
C224   C     0.60829   0.54430   0.19252   0.01267  Uiso   1.00
C225   C     0.62060   0.77080   0.51360   0.01267  Uiso   1.00
C226   C     0.03443   0.59768   0.57146   0.01267  Uiso   1.00
C227   C     0.61170   0.68100   0.76960   0.01267  Uiso   1.00
C228   C     0.64897   0.36248   0.62658   0.01267  Uiso   1.00
C229   C     0.62740   0.64720   0.85500   0.01267  Uiso   1.00
C230   C     0.27460   0.06300   0.62020   0.01267  Uiso   1.00
C231   C     0.29010   0.79980   0.94600   0.01267  Uiso   1.00
C232   C     0.70091   0.44894   0.25124   0.01267  Uiso   1.00
C233   C     0.75556   0.72230   0.63138   0.01267  Uiso   1.00
C234   C     0.45215   0.94894   0.74876   0.01267  Uiso   1.00
C235   C     0.91350   0.32620   0.32360   0.01267  Uiso   1.00
C236   C     0.29909   0.55106   0.74876   0.01267  Uiso   1.00
C237   C     0.70990   0.20020   0.05400   0.01267  Uiso   1.00
C238   C     0.51947   0.04980   0.08266   0.01267  Uiso   1.00
C239   C     0.07726   0.89400   0.78228   0.01267  Uiso   1.00
C240   C     0.05813   0.47724   0.54730   0.01267  Uiso   1.00
C241   C     0.40040   0.26700   0.20220   0.01267  Uiso   1.00
C242   C     0.82690   0.21560   0.97260   0.01267  Uiso   1.00
C243   C     0.75738   0.98258   0.15286   0.01267  Uiso   1.00
C244   C     0.59960   0.73300   0.79780   0.01267  Uiso   1.00
C245   C     0.36580   0.72920   0.51360   0.01267  Uiso   1.00
C246   C     0.81494   0.97404   0.96708   0.01267  Uiso   1.00
C247   C     0.80584   0.83620   0.16532   0.01267  Uiso   1.00
C248   C     0.90195   0.60644   0.58726   0.01267  Uiso   1.00
C249   C     0.35103   0.63752   0.37342   0.01267  Uiso   1.00
C250   C     0.10543   0.97724   0.45270   0.01267  Uiso   1.00
C251   C     0.54785   0.05106   0.25124   0.01267  Uiso   1.00
C252   C     0.08804   0.48642   0.93590   0.01267  Uiso   1.00
C253   C     0.86810   0.37880   0.29480   0.01267  Uiso   1.00
C254   C     0.09805   0.39356   0.41274   0.01267  Uiso   1.00
C255   C     0.40500   0.72920   0.98640   0.01267  Uiso   1.00
C256   C     0.17911   0.32882   0.38956   0.01267  Uiso   1.00
C257   C     0.14892   0.46602   0.05094   0.01267  Uiso   1.00
C258   C     0.10589   0.09768   0.42854   0.01267  Uiso   1.00
C259   C     0.06867   0.82882   0.61044   0.01267  Uiso   1.00
C260   C     0.53170   0.15020   0.30000   0.01267  Uiso   1.00
C261   C     0.69986   0.96602   0.94906   0.01267  Uiso   1.00
C262   C     0.92274   0.10600   0.21772   0.01267  Uiso   1.00
C263   C     0.32338   0.21908   0.34016   0.01267  Uiso   1.00
C264   C     0.39030   0.31100   0.47460   0.01267  Uiso   1.00
N1     N     0.32752   0.68328   0.98448   0.01267  Uiso   1.00
N2     N     0.67248   0.31672   0.01552   0.01267  Uiso   1.00
N3     N     0.51080   0.31672   0.48448   0.01267  Uiso   1.00
N4     N     0.49528   0.81672   0.51552   0.01267  Uiso   1.00
N5     N     0.81200   0.18328   0.01552   0.01267  Uiso   1.00
N6     N     0.48920   0.68328   0.51552   0.01267  Uiso   1.00
N7     N     0.18800   0.81672   0.98448   0.01267  Uiso   1.00
N8     N     0.50472   0.18328   0.48448   0.01267  Uiso   1.00
O1     O     0.29832   0.57954   0.53582   0.01267  Uiso   1.00
O2     O     0.44129   0.57854   0.45028   0.01267  Uiso   1.00
O3     O     0.37786   0.42046   0.03582   0.01267  Uiso   1.00
O4     O     0.02989   0.07854   0.95028   0.01267  Uiso   1.00
O5     O     0.32126   0.46682   0.51546   0.01267  Uiso   1.00
O6     O     0.28808   0.53318   0.01546   0.01267  Uiso   1.00
O7     O     0.33672   0.96682   0.48454   0.01267  Uiso   1.00
O8     O     0.70168   0.42046   0.46418   0.01267  Uiso   1.00
O9     O     0.62214   0.57954   0.96418   0.01267  Uiso   1.00
O10    O     0.53588   0.53346   0.57178   0.01267  Uiso   1.00
O11    O     0.85888   0.03346   0.07178   0.01267  Uiso   1.00
O12    O     0.51983   0.42146   0.95028   0.01267  Uiso   1.00
O13    O     0.33414   0.07954   0.46418   0.01267  Uiso   1.00
O14    O     0.46412   0.46654   0.42822   0.01267  Uiso   1.00
O15    O     0.67874   0.53318   0.48454   0.01267  Uiso   1.00
O16    O     0.39157   0.07854   0.54972   0.01267  Uiso   1.00
O17    O     0.60766   0.03346   0.42822   0.01267  Uiso   1.00
O18    O     0.43066   0.53346   0.92822   0.01267  Uiso   1.00
O19    O     0.19646   0.96682   0.01546   0.01267  Uiso   1.00
O20    O     0.08632   0.07954   0.03582   0.01267  Uiso   1.00
O21    O     0.71192   0.46682   0.98454   0.01267  Uiso   1.00
O22    O     0.80354   0.03318   0.98454   0.01267  Uiso   1.00
O23    O     0.56934   0.46654   0.07178   0.01267  Uiso   1.00
O24    O     0.48017   0.57854   0.04972   0.01267  Uiso   1.00
O25    O     0.66586   0.92046   0.53582   0.01267  Uiso   1.00
O26    O     0.97011   0.92146   0.04972   0.01267  Uiso   1.00
O27    O     0.55871   0.42146   0.54972   0.01267  Uiso   1.00
O28    O     0.60843   0.92146   0.45028   0.01267  Uiso   1.00
O29    O     0.91368   0.92046   0.96418   0.01267  Uiso   1.00
O30    O     0.14112   0.96654   0.92822   0.01267  Uiso   1.00
O31    O     0.66328   0.03318   0.51546   0.01267  Uiso   1.00
O32    O     0.39234   0.96654   0.57178   0.01267  Uiso   1.00
