data_cg2007167_si_002_clean
_audit_creation_date              2015-08-19
_audit_creation_method            'Materials Studio'
_symmetry_space_group_name_H-M    'P1'
_symmetry_Int_Tables_number       1
_symmetry_cell_setting            triclinic
loop_
_symmetry_equiv_pos_as_xyz
  x,y,z
_cell_length_a                    16.4559
_cell_length_b                    20.6238
_cell_length_c                    21.8274
_cell_angle_alpha                 112.9920
_cell_angle_beta                  90.0000
_cell_angle_gamma                 90.0000
loop_
_atom_site_label
_atom_site_type_symbol
_atom_site_fract_x
_atom_site_fract_y
_atom_site_fract_z
_atom_site_U_iso_or_equiv
_atom_site_adp_type
_atom_site_occupancy
Cu1    Cu    0.75273   0.77871   0.06843   0.01267  Uiso   1.00
Cu2    Cu    0.74727   0.27871   0.56843   0.01267  Uiso   1.00
Cu3    Cu    0.81948   0.86221   0.42632   0.01267  Uiso   1.00
Cu4    Cu    0.24727   0.22129   0.93157   0.01267  Uiso   1.00
Cu5    Cu    0.31948   0.63779   0.07368   0.01267  Uiso   1.00
Cu6    Cu    0.68052   0.36221   0.92632   0.01267  Uiso   1.00
Cu7    Cu    0.18052   0.13779   0.57368   0.01267  Uiso   1.00
Cu8    Cu    0.25273   0.72129   0.43157   0.01267  Uiso   1.00
H1     H     0.28720   0.94500   0.67870   0.01267  Uiso   1.00
H2     H     0.76660   0.38910   0.71700   0.01267  Uiso   1.00
H3     H     0.37870   0.37120   0.77000   0.01267  Uiso   1.00
H4     H     0.52110   0.20820   0.33020   0.01267  Uiso   1.00
H5     H     0.09680   0.98090   0.50220   0.01267  Uiso   1.00
H6     H     0.99300   0.23930   0.73510   0.01267  Uiso   1.00
H7     H     0.21280   0.44500   0.17870   0.01267  Uiso   1.00
H8     H     0.56380   0.77790   0.29600   0.01267  Uiso   1.00
H9     H     0.89350   0.58440   0.20160   0.01267  Uiso   1.00
H10    H     0.57240   0.22520   0.48830   0.01267  Uiso   1.00
H11    H     0.41100   0.79630   0.40460   0.01267  Uiso   1.00
H12    H     0.02520   0.58120   0.15810   0.01267  Uiso   1.00
H13    H     0.50700   0.73930   0.23510   0.01267  Uiso   1.00
H14    H     0.43160   0.79920   0.29690   0.01267  Uiso   1.00
H15    H     0.69220   0.45310   0.20210   0.01267  Uiso   1.00
H16    H     0.09810   0.63030   0.43480   0.01267  Uiso   1.00
H17    H     0.10650   0.41560   0.79840   0.01267  Uiso   1.00
H18    H     0.93620   0.27790   0.79600   0.01267  Uiso   1.00
H19    H     0.90970   0.23490   0.62540   0.01267  Uiso   1.00
H20    H     0.25470   0.93820   0.24030   0.01267  Uiso   1.00
H21    H     0.71280   0.05500   0.32130   0.01267  Uiso   1.00
H22    H     0.48680   0.92390   0.30430   0.01267  Uiso   1.00
H23    H     0.17860   0.08030   0.94170   0.01267  Uiso   1.00
H24    H     0.53920   0.00280   0.09730   0.01267  Uiso   1.00
H25    H     0.97890   0.70820   0.83020   0.01267  Uiso   1.00
H26    H     0.22800   0.94440   0.31130   0.01267  Uiso   1.00
H27    H     0.62130   0.62880   0.23000   0.01267  Uiso   1.00
H28    H     0.47480   0.08120   0.65810   0.01267  Uiso   1.00
H29    H     0.43620   0.22210   0.70400   0.01267  Uiso   1.00
H30    H     0.45320   0.47410   0.79690   0.01267  Uiso   1.00
H31    H     0.47740   0.07210   0.01410   0.01267  Uiso   1.00
H32    H     0.30720   0.37020   0.93300   0.01267  Uiso   1.00
H33    H     0.81910   0.79510   0.26760   0.01267  Uiso   1.00
H34    H     0.55200   0.44420   0.18210   0.01267  Uiso   1.00
H35    H     0.54850   0.05490   0.36020   0.01267  Uiso   1.00
H36    H     0.62920   0.62440   0.29980   0.01267  Uiso   1.00
H37    H     0.52560   0.09130   0.26650   0.01267  Uiso   1.00
H38    H     0.27200   0.44440   0.81130   0.01267  Uiso   1.00
H39    H     0.84800   0.88250   0.57220   0.01267  Uiso   1.00
H40    H     0.45630   0.84500   0.25760   0.01267  Uiso   1.00
H41    H     0.41640   0.81420   0.28920   0.01267  Uiso   1.00
H42    H     0.97740   0.42790   0.48590   0.01267  Uiso   1.00
H43    H     0.54680   0.52590   0.20310   0.01267  Uiso   1.00
H44    H     0.97130   0.73200   0.30560   0.01267  Uiso   1.00
H45    H     0.91100   0.70370   0.09540   0.01267  Uiso   1.00
H46    H     0.87870   0.12880   0.73000   0.01267  Uiso   1.00
H47    H     0.08330   0.49370   0.20950   0.01267  Uiso   1.00
H48    H     0.19280   0.87020   0.43300   0.01267  Uiso   1.00
H49    H     0.88390   0.61680   0.77740   0.01267  Uiso   1.00
H50    H     0.50360   0.76150   0.25860   0.01267  Uiso   1.00
H51    H     0.52870   0.23200   0.80560   0.01267  Uiso   1.00
H52    H     0.50270   0.82980   0.62250   0.01267  Uiso   1.00
H53    H     0.07640   0.52090   0.53480   0.01267  Uiso   1.00
H54    H     0.99730   0.32980   0.12250   0.01267  Uiso   1.00
H55    H     0.52520   0.91880   0.34190   0.01267  Uiso   1.00
H56    H     0.82140   0.91970   0.05830   0.01267  Uiso   1.00
H57    H     0.92760   0.72520   0.98830   0.01267  Uiso   1.00
H58    H     0.67860   0.41970   0.55830   0.01267  Uiso   1.00
H59    H     0.58360   0.18580   0.71080   0.01267  Uiso   1.00
H60    H     0.42360   0.02090   0.03480   0.01267  Uiso   1.00
H61    H     0.31910   0.70490   0.23240   0.01267  Uiso   1.00
H62    H     0.64350   0.49620   0.26690   0.01267  Uiso   1.00
H63    H     0.04680   0.97410   0.29690   0.01267  Uiso   1.00
H64    H     0.80720   0.12980   0.56700   0.01267  Uiso   1.00
H65    H     0.85650   0.99620   0.76690   0.01267  Uiso   1.00
H66    H     0.24530   0.43820   0.74030   0.01267  Uiso   1.00
H67    H     0.90190   0.36970   0.56520   0.01267  Uiso   1.00
H68    H     0.02870   0.26800   0.69440   0.01267  Uiso   1.00
H69    H     0.35650   0.50380   0.73310   0.01267  Uiso   1.00
H70    H     0.04850   0.44510   0.13980   0.01267  Uiso   1.00
H71    H     0.92360   0.47910   0.46520   0.01267  Uiso   1.00
H72    H     0.96080   0.50280   0.59730   0.01267  Uiso   1.00
H73    H     0.29700   0.27020   0.61500   0.01267  Uiso   1.00
H74    H     0.17890   0.39190   0.11020   0.01267  Uiso   1.00
H75    H     0.58330   0.00630   0.29050   0.01267  Uiso   1.00
H76    H     0.44800   0.55580   0.81790   0.01267  Uiso   1.00
H77    H     0.00700   0.76070   0.26490   0.01267  Uiso   1.00
H78    H     0.95630   0.65500   0.24240   0.01267  Uiso   1.00
H79    H     0.93160   0.70080   0.20310   0.01267  Uiso   1.00
H80    H     0.61610   0.11680   0.27740   0.01267  Uiso   1.00
H81    H     0.75470   0.56180   0.25970   0.01267  Uiso   1.00
H82    H     0.00270   0.67020   0.87750   0.01267  Uiso   1.00
H83    H     0.46080   0.99720   0.90270   0.01267  Uiso   1.00
H84    H     0.37080   0.37560   0.70020   0.01267  Uiso   1.00
H85    H     0.19220   0.04690   0.29790   0.01267  Uiso   1.00
H86    H     0.22460   0.72950   0.57350   0.01267  Uiso   1.00
H87    H     0.59680   0.51910   0.99780   0.01267  Uiso   1.00
H88    H     0.68090   0.29510   0.76760   0.01267  Uiso   1.00
H89    H     0.40190   0.13030   0.93480   0.01267  Uiso   1.00
H90    H     0.91670   0.50630   0.79050   0.01267  Uiso   1.00
H91    H     0.12920   0.87560   0.20020   0.01267  Uiso   1.00
H92    H     0.08390   0.34490   0.73570   0.01267  Uiso   1.00
H93    H     0.47760   0.13110   0.62020   0.01267  Uiso   1.00
H94    H     0.40320   0.94960   0.92500   0.01267  Uiso   1.00
H95    H     0.45150   0.94510   0.63980   0.01267  Uiso   1.00
H96    H     0.72800   0.55560   0.18870   0.01267  Uiso   1.00
H97    H     0.56840   0.20080   0.70310   0.01267  Uiso   1.00
H98    H     0.84870   0.43740   0.97640   0.01267  Uiso   1.00
H99    H     0.58900   0.20370   0.59540   0.01267  Uiso   1.00
H100   H     0.95150   0.55490   0.86020   0.01267  Uiso   1.00
H101   H     0.14350   0.00380   0.23310   0.01267  Uiso   1.00
H102   H     0.20300   0.77020   0.11500   0.01267  Uiso   1.00
H103   H     0.91640   0.68580   0.21080   0.01267  Uiso   1.00
H104   H     0.78720   0.55500   0.82130   0.01267  Uiso   1.00
H105   H     0.27540   0.22950   0.07350   0.01267  Uiso   1.00
H106   H     0.51320   0.07610   0.69570   0.01267  Uiso   1.00
H107   H     0.34800   0.61750   0.92780   0.01267  Uiso   1.00
H108   H     0.59680   0.05040   0.07500   0.01267  Uiso   1.00
H109   H     0.07240   0.27480   0.01170   0.01267  Uiso   1.00
H110   H     0.34870   0.06260   0.52360   0.01267  Uiso   1.00
H111   H     0.74530   0.06180   0.75970   0.01267  Uiso   1.00
H112   H     0.41610   0.84490   0.23570   0.01267  Uiso   1.00
H113   H     0.94800   0.94420   0.68210   0.01267  Uiso   1.00
H114   H     0.04370   0.34500   0.75760   0.01267  Uiso   1.00
H115   H     0.65200   0.38250   0.07220   0.01267  Uiso   1.00
H116   H     0.98680   0.57610   0.19570   0.01267  Uiso   1.00
H117   H     0.90320   0.55040   0.57500   0.01267  Uiso   1.00
H118   H     0.77200   0.05560   0.68870   0.01267  Uiso   1.00
H119   H     0.79700   0.22980   0.88500   0.01267  Uiso   1.00
H120   H     0.03920   0.49720   0.40270   0.01267  Uiso   1.00
H121   H     0.15130   0.56260   0.02360   0.01267  Uiso   1.00
H122   H     0.41670   0.99370   0.70950   0.01267  Uiso   1.00
H123   H     0.42760   0.77480   0.51170   0.01267  Uiso   1.00
H124   H     0.06840   0.29920   0.79690   0.01267  Uiso   1.00
H125   H     0.67890   0.10810   0.38980   0.01267  Uiso   1.00
H126   H     0.97440   0.59130   0.76650   0.01267  Uiso   1.00
H127   H     0.90320   0.01910   0.49780   0.01267  Uiso   1.00
H128   H     0.58390   0.15510   0.76430   0.01267  Uiso   1.00
H129   H     0.97480   0.41880   0.84190   0.01267  Uiso   1.00
H130   H     0.49730   0.17020   0.37750   0.01267  Uiso   1.00
H131   H     0.52260   0.92790   0.98590   0.01267  Uiso   1.00
H132   H     0.79470   0.96550   0.35050   0.01267  Uiso   1.00
H133   H     0.82110   0.60810   0.88980   0.01267  Uiso   1.00
H134   H     0.47440   0.90870   0.73350   0.01267  Uiso   1.00
H135   H     0.72460   0.77050   0.92650   0.01267  Uiso   1.00
H136   H     0.02260   0.57210   0.51410   0.01267  Uiso   1.00
H137   H     0.15200   0.11750   0.42780   0.01267  Uiso   1.00
H138   H     0.23340   0.61090   0.28300   0.01267  Uiso   1.00
H139   H     0.02560   0.40870   0.23350   0.01267  Uiso   1.00
H140   H     0.30780   0.54690   0.79790   0.01267  Uiso   1.00
H141   H     0.70300   0.72980   0.38500   0.01267  Uiso   1.00
H142   H     0.09680   0.44960   0.42500   0.01267  Uiso   1.00
H143   H     0.11610   0.38320   0.22260   0.01267  Uiso   1.00
H144   H     0.18090   0.20490   0.73240   0.01267  Uiso   1.00
H145   H     0.77540   0.27050   0.42650   0.01267  Uiso   1.00
H146   H     0.09030   0.76510   0.37460   0.01267  Uiso   1.00
H147   H     0.06380   0.72210   0.20400   0.01267  Uiso   1.00
H148   H     0.08360   0.31420   0.78920   0.01267  Uiso   1.00
H149   H     0.47890   0.79180   0.66980   0.01267  Uiso   1.00
H150   H     0.26660   0.11090   0.78300   0.01267  Uiso   1.00
H151   H     0.29470   0.53450   0.14950   0.01267  Uiso   1.00
H152   H     0.59810   0.86970   0.06520   0.01267  Uiso   1.00
H153   H     0.99640   0.26150   0.75860   0.01267  Uiso   1.00
H154   H     0.38390   0.88320   0.72260   0.01267  Uiso   1.00
H155   H     0.05200   0.05580   0.31790   0.01267  Uiso   1.00
H156   H     0.40320   0.48090   0.00220   0.01267  Uiso   1.00
H157   H     0.00360   0.73850   0.24140   0.01267  Uiso   1.00
H158   H     0.65130   0.93740   0.47640   0.01267  Uiso   1.00
H159   H     0.32140   0.58030   0.44170   0.01267  Uiso   1.00
H160   H     0.95320   0.02590   0.70310   0.01267  Uiso   1.00
H161   H     0.39350   0.91560   0.29840   0.01267  Uiso   1.00
H162   H     0.70530   0.46550   0.85050   0.01267  Uiso   1.00
H163   H     0.60650   0.08440   0.70160   0.01267  Uiso   1.00
H164   H     0.54370   0.15500   0.74240   0.01267  Uiso   1.00
H165   H     0.20530   0.03450   0.64950   0.01267  Uiso   1.00
H166   H     0.02110   0.29180   0.16980   0.01267  Uiso   1.00
H167   H     0.87080   0.12440   0.79980   0.01267  Uiso   1.00
H168   H     0.52240   0.86890   0.37980   0.01267  Uiso   1.00
H169   H     0.32110   0.89190   0.61020   0.01267  Uiso   1.00
H170   H     0.57640   0.97910   0.96520   0.01267  Uiso   1.00
H171   H     0.02240   0.63110   0.12020   0.01267  Uiso   1.00
H172   H     0.47130   0.76800   0.19440   0.01267  Uiso   1.00
H173   H     0.40970   0.26510   0.87460   0.01267  Uiso   1.00
H174   H     0.49300   0.26070   0.76490   0.01267  Uiso   1.00
H175   H     0.91610   0.65510   0.26430   0.01267  Uiso   1.00
H176   H     0.59030   0.73490   0.12540   0.01267  Uiso   1.00
H177   H     0.69280   0.62980   0.06700   0.01267  Uiso   1.00
H178   H     0.01320   0.42390   0.80430   0.01267  Uiso   1.00
H179   H     0.80780   0.95310   0.70210   0.01267  Uiso   1.00
H180   H     0.73340   0.88910   0.21700   0.01267  Uiso   1.00
H181   H     0.12130   0.87120   0.27000   0.01267  Uiso   1.00
H182   H     0.08900   0.29630   0.90460   0.01267  Uiso   1.00
H183   H     0.49640   0.23850   0.74140   0.01267  Uiso   1.00
H184   H     0.97760   0.36890   0.87980   0.01267  Uiso   1.00
C1     C     0.63450   0.17530   0.59037   0.01267  Uiso   1.00
C2     C     0.44950   0.84100   0.27070   0.01267  Uiso   1.00
C3     C     0.65820   0.49431   0.22314   0.01267  Uiso   1.00
C4     C     0.74920   0.46810   0.87825   0.01267  Uiso   1.00
C5     C     0.17290   0.43900   0.14420   0.01267  Uiso   1.00
C6     C     0.73500   0.42170   0.55948   0.01267  Uiso   1.00
C7     C     0.02420   0.32630   0.78930   0.01267  Uiso   1.00
C8     C     0.25080   0.53190   0.12175   0.01267  Uiso   1.00
C9     C     0.70807   0.55955   0.23181   0.01267  Uiso   1.00
C10    C     0.58790   0.05240   0.32630   0.01267  Uiso   1.00
C11    C     0.06830   0.39110   0.20040   0.01267  Uiso   1.00
C12    C     0.94180   0.60250   0.18820   0.01267  Uiso   1.00
C13    C     0.49870   0.79380   0.23620   0.01267  Uiso   1.00
C14    C     0.75080   0.96810   0.37825   0.01267  Uiso   1.00
C15    C     0.22420   0.76605   0.15273   0.01267  Uiso   1.00
C16    C     0.69090   0.85700   0.20805   0.01267  Uiso   1.00
C17    C     0.77760   0.75485   0.92669   0.01267  Uiso   1.00
C18    C     0.52420   0.17370   0.71070   0.01267  Uiso   1.00
C19    C     0.95850   0.67840   0.85192   0.01267  Uiso   1.00
C20    C     0.86696   0.92255   0.56704   0.01267  Uiso   1.00
C21    C     0.00130   0.29380   0.73620   0.01267  Uiso   1.00
C22    C     0.80910   0.35700   0.70805   0.01267  Uiso   1.00
C23    C     0.50130   0.20620   0.76380   0.01267  Uiso   1.00
C24    C     0.65990   0.62619   0.26250   0.01267  Uiso   1.00
C25    C     0.82710   0.56100   0.85580   0.01267  Uiso   1.00
C26    C     0.76500   0.92170   0.05948   0.01267  Uiso   1.00
C27    C     0.41866   0.51494   0.81768   0.01267  Uiso   1.00
C28    C     0.10261   0.00270   0.47234   0.01267  Uiso   1.00
C29    C     0.27760   0.74515   0.57331   0.01267  Uiso   1.00
C30    C     0.91866   0.98506   0.68232   0.01267  Uiso   1.00
C31    C     0.42210   0.99740   0.93630   0.01267  Uiso   1.00
C32    C     0.93170   0.60890   0.79960   0.01267  Uiso   1.00
C33    C     0.72420   0.73395   0.34727   0.01267  Uiso   1.00
C34    C     0.63304   0.42255   0.06704   0.01267  Uiso   1.00
C35    C     0.14530   0.60620   0.43635   0.01267  Uiso   1.00
C36    C     0.28630   0.73200   0.21694   0.01267  Uiso   1.00
C37    C     0.84010   0.12619   0.76250   0.01267  Uiso   1.00
C38    C     0.74830   0.63410   0.07573   0.01267  Uiso   1.00
C39    C     0.72240   0.25485   0.42669   0.01267  Uiso   1.00
C40    C     0.55820   0.10250   0.68820   0.01267  Uiso   1.00
C41    C     0.61460   0.77400   0.15780   0.01267  Uiso   1.00
C42    C     0.78630   0.76800   0.28306   0.01267  Uiso   1.00
C43    C     0.08134   0.01494   0.31768   0.01267  Uiso   1.00
C44    C     0.19090   0.64300   0.29195   0.01267  Uiso   1.00
C45    C     0.39739   0.50270   0.97234   0.01267  Uiso   1.00
C46    C     0.79193   0.05955   0.73181   0.01267  Uiso   1.00
C47    C     0.38660   0.76920   0.53853   0.01267  Uiso   1.00
C48    C     0.77580   0.23395   0.84727   0.01267  Uiso   1.00
C49    C     0.89739   0.99730   0.52766   0.01267  Uiso   1.00
C50    C     0.24920   0.03190   0.62175   0.01267  Uiso   1.00
C51    C     0.21370   0.23200   0.71694   0.01267  Uiso   1.00
C52    C     0.55050   0.15900   0.72930   0.01267  Uiso   1.00
C53    C     0.15820   0.00569   0.27686   0.01267  Uiso   1.00
C54    C     0.86550   0.67530   0.09037   0.01267  Uiso   1.00
C55    C     0.94950   0.65900   0.22930   0.01267  Uiso   1.00
C56    C     0.56830   0.10890   0.29960   0.01267  Uiso   1.00
C57    C     0.84180   0.99431   0.72314   0.01267  Uiso   1.00
C58    C     0.32710   0.93900   0.64420   0.01267  Uiso   1.00
C59    C     0.97580   0.67370   0.21070   0.01267  Uiso   1.00
C60    C     0.50990   0.11310   0.64730   0.01267  Uiso   1.00
C61    C     0.05820   0.39750   0.81180   0.01267  Uiso   1.00
C62    C     0.04150   0.32160   0.14808   0.01267  Uiso   1.00
C63    C     0.82720   0.45380   0.94570   0.01267  Uiso   1.00
C64    C     0.99870   0.70620   0.26380   0.01267  Uiso   1.00
C65    C     0.75170   0.13410   0.57573   0.01267  Uiso   1.00
C66    C     0.43470   0.92620   0.39200   0.01267  Uiso   1.00
C67    C     0.03100   0.71560   0.23810   0.01267  Uiso   1.00
C68    C     0.27580   0.26605   0.65273   0.01267  Uiso   1.00
C69    C     0.85470   0.39380   0.56365   0.01267  Uiso   1.00
C70    C     0.36696   0.57745   0.93296   0.01267  Uiso   1.00
C71    C     0.67280   0.95380   0.44570   0.01267  Uiso   1.00
C72    C     0.30910   0.14300   0.79195   0.01267  Uiso   1.00
C73    C     0.47580   0.82630   0.28930   0.01267  Uiso   1.00
C74    C     0.06530   0.42620   0.89200   0.01267  Uiso   1.00
C75    C     0.11340   0.26920   0.03853   0.01267  Uiso   1.00
C76    C     0.53870   0.97670   0.99840   0.01267  Uiso   1.00
C77    C     0.41210   0.94760   0.67370   0.01267  Uiso   1.00
C78    C     0.29193   0.44045   0.76819   0.01267  Uiso   1.00
C79    C     0.20807   0.94045   0.26819   0.01267  Uiso   1.00
C80    C     0.99010   0.61310   0.14730   0.01267  Uiso   1.00
C81    C     0.88660   0.73080   0.96147   0.01267  Uiso   1.00
C82    C     0.53100   0.78440   0.26190   0.01267  Uiso   1.00
C83    C     0.25170   0.36590   0.92427   0.01267  Uiso   1.00
C84    C     0.46130   0.02330   0.00160   0.01267  Uiso   1.00
C85    C     0.60261   0.49730   0.02766   0.01267  Uiso   1.00
C86    C     0.11460   0.72600   0.34220   0.01267  Uiso   1.00
C87    C     0.61340   0.23080   0.46147   0.01267  Uiso   1.00
C88    C     0.49010   0.88690   0.35270   0.01267  Uiso   1.00
C89    C     0.92210   0.50260   0.56370   0.01267  Uiso   1.00
C90    C     0.24830   0.86590   0.42427   0.01267  Uiso   1.00
C91    C     0.93470   0.57380   0.10800   0.01267  Uiso   1.00
C92    C     0.07790   0.49740   0.43630   0.01267  Uiso   1.00
C93    C     0.23500   0.07830   0.94052   0.01267  Uiso   1.00
C94    C     0.03870   0.52330   0.50160   0.01267  Uiso   1.00
C95    C     0.15990   0.87381   0.23750   0.01267  Uiso   1.00
C96    C     0.36550   0.82470   0.40963   0.01267  Uiso   1.00
C97    C     0.13450   0.32470   0.90963   0.01267  Uiso   1.00
C98    C     0.58134   0.48506   0.18232   0.01267  Uiso   1.00
C99    C     0.64530   0.89380   0.06365   0.01267  Uiso   1.00
C100   C     0.67290   0.06100   0.35580   0.01267  Uiso   1.00
C101   C     0.17280   0.54620   0.05430   0.01267  Uiso   1.00
C102   C     0.46900   0.21560   0.73810   0.01267  Uiso   1.00
C103   C     0.08790   0.44760   0.17370   0.01267  Uiso   1.00
C104   C     0.38540   0.22600   0.84220   0.01267  Uiso   1.00
C105   C     0.71370   0.26800   0.78306   0.01267  Uiso   1.00
C106   C     0.13304   0.07745   0.43296   0.01267  Uiso   1.00
C107   C     0.45850   0.82160   0.64808   0.01267  Uiso   1.00
C108   C     0.05050   0.34100   0.77070   0.01267  Uiso   1.00
C109   C     0.35470   0.10620   0.93635   0.01267  Uiso   1.00
C110   C     0.26500   0.57830   0.44052   0.01267  Uiso   1.00
C111   C     0.91210   0.55240   0.82630   0.01267  Uiso   1.00
C112   C     0.44180   0.89750   0.31180   0.01267  Uiso   1.00
C113   C     0.54150   0.17840   0.35192   0.01267  Uiso   1.00
C114   C     0.22240   0.24515   0.07331   0.01267  Uiso   1.00
C115   C     0.34180   0.50569   0.77686   0.01267  Uiso   1.00
C116   C     0.88540   0.27400   0.65780   0.01267  Uiso   1.00
C117   C     0.00990   0.38690   0.85270   0.01267  Uiso   1.00
C118   C     0.96900   0.28440   0.76190   0.01267  Uiso   1.00
C119   C     0.43170   0.89110   0.70040   0.01267  Uiso   1.00
C120   C     0.32720   0.04620   0.55430   0.01267  Uiso   1.00
C121   C     0.96130   0.47670   0.49840   0.01267  Uiso   1.00
C122   C     0.56530   0.07380   0.60800   0.01267  Uiso   1.00
C123   C     0.34010   0.37381   0.73750   0.01267  Uiso   1.00
C124   C     0.57790   0.00260   0.06370   0.01267  Uiso   1.00
N1     N     0.24990   0.78906   0.25691   0.01267  Uiso   1.00
N2     N     0.63764   0.43349   0.01142   0.01267  Uiso   1.00
N3     N     0.81227   0.50866   0.88528   0.01267  Uiso   1.00
N4     N     0.79172   0.69073   0.07737   0.01267  Uiso   1.00
N5     N     0.63590   0.00000   0.42890   0.01267  Uiso   1.00
N6     N     0.20828   0.30927   0.92263   0.01267  Uiso   1.00
N7     N     0.71090   0.08660   0.58712   0.01267  Uiso   1.00
N8     N     0.70956   0.69005   0.28597   0.01267  Uiso   1.00
N9     N     0.58628   0.80660   0.21778   0.01267  Uiso   1.00
N10    N     0.13480   0.38673   0.90472   0.01267  Uiso   1.00
N11    N     0.18603   0.24431   0.01778   0.01267  Uiso   1.00
N12    N     0.17762   0.26962   0.12668   0.01267  Uiso   1.00
N13    N     0.36410   0.00000   0.57110   0.01267  Uiso   1.00
N14    N     0.07756   0.97443   0.41017   0.01267  Uiso   1.00
N15    N     0.31397   0.74431   0.51778   0.01267  Uiso   1.00
N16    N     0.29172   0.80927   0.42263   0.01267  Uiso   1.00
N17    N     0.25010   0.28906   0.75691   0.01267  Uiso   1.00
N18    N     0.75010   0.21094   0.74309   0.01267  Uiso   1.00
N19    N     0.86410   0.50000   0.92890   0.01267  Uiso   1.00
N20    N     0.64714   0.95672   0.06227   0.01267  Uiso   1.00
N21    N     0.28910   0.91340   0.41288   0.01267  Uiso   1.00
N22    N     0.92244   0.02557   0.58983   0.01267  Uiso   1.00
N23    N     0.22470   0.52410   0.44184   0.01267  Uiso   1.00
N24    N     0.25594   0.06844   0.58454   0.01267  Uiso   1.00
N25    N     0.13523   0.63900   0.24744   0.01267  Uiso   1.00
N26    N     0.22705   0.21548   0.65210   0.01267  Uiso   1.00
N27    N     0.18192   0.69645   0.35106   0.01267  Uiso   1.00
N28    N     0.82238   0.73038   0.87332   0.01267  Uiso   1.00
N29    N     0.10702   0.28527   0.10316   0.01267  Uiso   1.00
N30    N     0.36236   0.56651   0.98858   0.01267  Uiso   1.00
N31    N     0.31808   0.19645   0.85106   0.01267  Uiso   1.00
N32    N     0.77295   0.78452   0.34790   0.01267  Uiso   1.00
N33    N     0.27530   0.02410   0.94184   0.01267  Uiso   1.00
N34    N     0.18773   0.49134   0.11472   0.01267  Uiso   1.00
N35    N     0.31227   0.99134   0.61472   0.01267  Uiso   1.00
N36    N     0.74990   0.71094   0.24309   0.01267  Uiso   1.00
N37    N     0.28096   0.13065   0.93736   0.01267  Uiso   1.00
N38    N     0.32238   0.76962   0.62668   0.01267  Uiso   1.00
N39    N     0.91372   0.30660   0.71778   0.01267  Uiso   1.00
N40    N     0.71904   0.86935   0.06264   0.01267  Uiso   1.00
N41    N     0.72705   0.28452   0.84790   0.01267  Uiso   1.00
N42    N     0.77530   0.47590   0.55816   0.01267  Uiso   1.00
N43    N     0.72470   0.97590   0.05816   0.01267  Uiso   1.00
N44    N     0.85286   0.45672   0.56227   0.01267  Uiso   1.00
N45    N     0.63523   0.86100   0.25256   0.01267  Uiso   1.00
N46    N     0.68192   0.80355   0.14894   0.01267  Uiso   1.00
N47    N     0.20956   0.80995   0.21403   0.01267  Uiso   1.00
N48    N     0.13764   0.06651   0.48858   0.01267  Uiso   1.00
N49    N     0.78910   0.58660   0.08712   0.01267  Uiso   1.00
N50    N     0.79044   0.19005   0.78597   0.01267  Uiso   1.00
N51    N     0.41372   0.19340   0.78222   0.01267  Uiso   1.00
N52    N     0.70828   0.19073   0.57737   0.01267  Uiso   1.00
N53    N     0.68773   0.00866   0.38528   0.01267  Uiso   1.00
N54    N     0.60702   0.21473   0.39684   0.01267  Uiso   1.00
N55    N     0.81808   0.30355   0.64894   0.01267  Uiso   1.00
N56    N     0.27295   0.71548   0.15210   0.01267  Uiso   1.00
N57    N     0.75594   0.43156   0.91546   0.01267  Uiso   1.00
N58    N     0.68603   0.25569   0.48222   0.01267  Uiso   1.00
N59    N     0.81397   0.75569   0.98222   0.01267  Uiso   1.00
N60    N     0.39298   0.78527   0.60316   0.01267  Uiso   1.00
N61    N     0.86520   0.61327   0.09528   0.01267  Uiso   1.00
N62    N     0.09800   0.02381   0.38609   0.01267  Uiso   1.00
N63    N     0.13590   0.50000   0.07110   0.01267  Uiso   1.00
N64    N     0.24406   0.56844   0.08454   0.01267  Uiso   1.00
N65    N     0.59800   0.47619   0.11391   0.01267  Uiso   1.00
N66    N     0.42244   0.47443   0.91017   0.01267  Uiso   1.00
N67    N     0.36520   0.88673   0.40472   0.01267  Uiso   1.00
N68    N     0.40200   0.52381   0.88609   0.01267  Uiso   1.00
N69    N     0.89298   0.71473   0.89684   0.01267  Uiso   1.00
N70    N     0.63480   0.11327   0.59528   0.01267  Uiso   1.00
N71    N     0.74406   0.93156   0.41546   0.01267  Uiso   1.00
N72    N     0.21904   0.63065   0.43736   0.01267  Uiso   1.00
N73    N     0.21090   0.41340   0.91288   0.01267  Uiso   1.00
N74    N     0.14714   0.54328   0.43773   0.01267  Uiso   1.00
N75    N     0.86477   0.36100   0.75256   0.01267  Uiso   1.00
N76    N     0.08628   0.69340   0.28222   0.01267  Uiso   1.00
N77    N     0.29044   0.30995   0.71403   0.01267  Uiso   1.00
N78    N     0.36477   0.13900   0.74744   0.01267  Uiso   1.00
N79    N     0.86236   0.93349   0.51142   0.01267  Uiso   1.00
N80    N     0.78096   0.36935   0.56264   0.01267  Uiso   1.00
N81    N     0.57756   0.52557   0.08983   0.01267  Uiso   1.00
N82    N     0.35286   0.04328   0.93773   0.01267  Uiso   1.00
N83    N     0.67762   0.23038   0.37332   0.01267  Uiso   1.00
N84    N     0.90200   0.97619   0.61391   0.01267  Uiso   1.00
