data_cg200120p_si_002_clean
_audit_creation_date              2015-08-19
_audit_creation_method            'Materials Studio'
_symmetry_space_group_name_H-M    'P1'
_symmetry_Int_Tables_number       1
_symmetry_cell_setting            triclinic
loop_
_symmetry_equiv_pos_as_xyz
  x,y,z
_cell_length_a                    14.1972
_cell_length_b                    14.1972
_cell_length_c                    22.1185
_cell_angle_alpha                 74.8304
_cell_angle_beta                  74.1706
_cell_angle_gamma                 99.6339
loop_
_atom_site_label
_atom_site_type_symbol
_atom_site_fract_x
_atom_site_fract_y
_atom_site_fract_z
_atom_site_U_iso_or_equiv
_atom_site_adp_type
_atom_site_occupancy
Co1    Co    0.47298   0.11807   0.43403   0.01267  Uiso   1.00
Co2    Co    0.94790   0.09299   0.93403   0.01267  Uiso   1.00
Co3    Co    0.52702   0.88193   0.56597   0.01267  Uiso   1.00
Co4    Co    0.50000   0.50000   0.50000   0.01267  Uiso   1.00
Co5    Co    0.05210   0.90701   0.06597   0.01267  Uiso   1.00
Co6    Co    0.50000   0.00000   0.00000   0.01267  Uiso   1.00
H1     H     0.87270   0.23590   0.12620   0.01267  Uiso   1.00
H2     H     0.76820   0.28700   0.43540   0.01267  Uiso   1.00
H3     H     0.54460   0.79070   0.45450   0.01267  Uiso   1.00
H4     H     0.93050   0.03840   0.81090   0.01267  Uiso   1.00
H5     H     0.62210   0.36270   0.55960   0.01267  Uiso   1.00
H6     H     0.97070   0.95950   0.83780   0.01267  Uiso   1.00
H7     H     0.37010   0.42180   0.37430   0.01267  Uiso   1.00
H8     H     0.77370   0.69980   0.49870   0.01267  Uiso   1.00
H9     H     0.96380   0.21880   0.02940   0.01267  Uiso   1.00
H10    H     0.25180   0.00680   0.52940   0.01267  Uiso   1.00
H11    H     0.62650   0.26220   0.65830   0.01267  Uiso   1.00
H12    H     0.03620   0.78120   0.97060   0.01267  Uiso   1.00
H13    H     0.24220   0.73950   0.78970   0.01267  Uiso   1.00
H14    H     0.55120   0.08170   0.20530   0.01267  Uiso   1.00
H15    H     0.57950   0.71520   0.15830   0.01267  Uiso   1.00
H16    H     0.70840   0.47350   0.68070   0.01267  Uiso   1.00
H17    H     0.34730   0.20570   0.64380   0.01267  Uiso   1.00
H18    H     0.34580   0.61090   0.18070   0.01267  Uiso   1.00
H19    H     0.29160   0.52650   0.31930   0.01267  Uiso   1.00
H20    H     0.82970   0.87600   0.14650   0.01267  Uiso   1.00
H21    H     0.65050   0.00890   0.14380   0.01267  Uiso   1.00
H22    H     0.44880   0.91830   0.79470   0.01267  Uiso   1.00
H23    H     0.27360   0.12160   0.75320   0.01267  Uiso   1.00
H24    H     0.07360   0.22010   0.49870   0.01267  Uiso   1.00
H25    H     0.22240   0.20360   0.06460   0.01267  Uiso   1.00
H26    H     0.45540   0.20930   0.54550   0.01267  Uiso   1.00
H27    H     0.74820   0.99320   0.47060   0.01267  Uiso   1.00
H28    H     0.38500   0.43430   0.65150   0.01267  Uiso   1.00
H29    H     0.31100   0.94450   0.39710   0.01267  Uiso   1.00
H30    H     0.40920   0.86430   0.25230   0.01267  Uiso   1.00
H31    H     0.58580   0.03650   0.84850   0.01267  Uiso   1.00
H32    H     0.23180   0.71300   0.56460   0.01267  Uiso   1.00
H33    H     0.34950   0.99110   0.85620   0.01267  Uiso   1.00
H34    H     0.45900   0.09020   0.30420   0.01267  Uiso   1.00
H35    H     0.47750   0.02380   0.64650   0.01267  Uiso   1.00
H36    H     0.34930   0.74140   0.68910   0.01267  Uiso   1.00
H37    H     0.69850   0.27240   0.00130   0.01267  Uiso   1.00
H38    H     0.43610   0.31290   0.10140   0.01267  Uiso   1.00
H39    H     0.41420   0.96350   0.15150   0.01267  Uiso   1.00
H40    H     0.25480   0.00090   0.95450   0.01267  Uiso   1.00
H41    H     0.62990   0.57820   0.62570   0.01267  Uiso   1.00
H42    H     0.38340   0.33850   0.75230   0.01267  Uiso   1.00
H43    H     0.29730   0.80850   0.66220   0.01267  Uiso   1.00
H44    H     0.06950   0.96160   0.18910   0.01267  Uiso   1.00
H45    H     0.17030   0.12400   0.85350   0.01267  Uiso   1.00
H46    H     0.12730   0.76410   0.87380   0.01267  Uiso   1.00
H47    H     0.54100   0.90980   0.69580   0.01267  Uiso   1.00
H48    H     0.72640   0.87840   0.24680   0.01267  Uiso   1.00
H49    H     0.59080   0.13570   0.74770   0.01267  Uiso   1.00
H50    H     0.42050   0.28480   0.84170   0.01267  Uiso   1.00
H51    H     0.37350   0.73780   0.34170   0.01267  Uiso   1.00
H52    H     0.86210   0.99890   0.37380   0.01267  Uiso   1.00
H53    H     0.70390   0.25560   0.87430   0.01267  Uiso   1.00
H54    H     0.29610   0.74440   0.12570   0.01267  Uiso   1.00
H55    H     0.61500   0.56570   0.34850   0.01267  Uiso   1.00
H56    H     0.77760   0.79640   0.93540   0.01267  Uiso   1.00
H57    H     0.56390   0.68710   0.89860   0.01267  Uiso   1.00
H58    H     0.02930   0.04050   0.16220   0.01267  Uiso   1.00
H59    H     0.62520   0.97320   0.25320   0.01267  Uiso   1.00
H60    H     0.57770   0.81830   0.05960   0.01267  Uiso   1.00
H61    H     0.10560   0.23680   0.80420   0.01267  Uiso   1.00
H62    H     0.74520   0.99910   0.04550   0.01267  Uiso   1.00
H63    H     0.65420   0.38910   0.81930   0.01267  Uiso   1.00
H64    H     0.08570   0.46250   0.60140   0.01267  Uiso   1.00
H65    H     0.21880   0.57230   0.00130   0.01267  Uiso   1.00
H66    H     0.78120   0.42770   0.99870   0.01267  Uiso   1.00
H67    H     0.42230   0.18170   0.94040   0.01267  Uiso   1.00
H68    H     0.79920   0.18670   0.24150   0.01267  Uiso   1.00
H69    H     0.20080   0.81330   0.75850   0.01267  Uiso   1.00
H70    H     0.22630   0.30020   0.50130   0.01267  Uiso   1.00
H71    H     0.13790   0.00110   0.62620   0.01267  Uiso   1.00
H72    H     0.69450   0.63280   0.95450   0.01267  Uiso   1.00
H73    H     0.91270   0.35100   0.45450   0.01267  Uiso   1.00
H74    H     0.91430   0.53750   0.39860   0.01267  Uiso   1.00
H75    H     0.30150   0.72760   0.99870   0.01267  Uiso   1.00
H76    H     0.65070   0.25860   0.31090   0.01267  Uiso   1.00
H77    H     0.65270   0.79430   0.35620   0.01267  Uiso   1.00
H78    H     0.29270   0.21710   0.29100   0.01267  Uiso   1.00
H79    H     0.70270   0.19150   0.33780   0.01267  Uiso   1.00
H80    H     0.07180   0.95930   0.74150   0.01267  Uiso   1.00
H81    H     0.99190   0.41630   0.79100   0.01267  Uiso   1.00
H82    H     0.37790   0.63730   0.44040   0.01267  Uiso   1.00
H83    H     0.37480   0.02680   0.74680   0.01267  Uiso   1.00
H84    H     0.70730   0.78290   0.70900   0.01267  Uiso   1.00
H85    H     0.02920   0.03190   0.71030   0.01267  Uiso   1.00
H86    H     0.92820   0.04070   0.25850   0.01267  Uiso   1.00
H87    H     0.15840   0.29190   0.89710   0.01267  Uiso   1.00
H88    H     0.92640   0.77990   0.50130   0.01267  Uiso   1.00
H89    H     0.00810   0.58370   0.20900   0.01267  Uiso   1.00
H90    H     0.68900   0.05550   0.60290   0.01267  Uiso   1.00
H91    H     0.89440   0.76320   0.19580   0.01267  Uiso   1.00
H92    H     0.84160   0.70810   0.10290   0.01267  Uiso   1.00
H93    H     0.97080   0.96810   0.28970   0.01267  Uiso   1.00
H94    H     0.78700   0.75650   0.29470   0.01267  Uiso   1.00
H95    H     0.21300   0.24350   0.70530   0.01267  Uiso   1.00
H96    H     0.52250   0.97620   0.35350   0.01267  Uiso   1.00
H97    H     0.75780   0.26050   0.21030   0.01267  Uiso   1.00
H98    H     0.30550   0.36720   0.04550   0.01267  Uiso   1.00
H99    H     0.08730   0.64900   0.54550   0.01267  Uiso   1.00
H100   H     0.61660   0.66150   0.24770   0.01267  Uiso   1.00
C1     C     0.28860   0.59510   0.98010   0.01267  Uiso   1.00
C2     C     0.33860   0.40110   0.34650   0.01267  Uiso   1.00
C3     C     0.28680   0.83600   0.48300   0.01267  Uiso   1.00
C4     C     0.00770   0.63720   0.42070   0.01267  Uiso   1.00
C5     C     0.22590   0.25420   0.02690   0.01267  Uiso   1.00
C6     C     0.71640   0.57030   0.04030   0.01267  Uiso   1.00
C7     C     0.42360   0.70320   0.34160   0.01267  Uiso   1.00
C8     C     0.72930   0.16250   0.25420   0.01267  Uiso   1.00
C9     C     0.71140   0.40490   0.01990   0.01267  Uiso   1.00
C10    C     0.39090   0.16570   0.56220   0.01267  Uiso   1.00
C11    C     0.49410   0.66470   0.91900   0.01267  Uiso   1.00
C12    C     0.14640   0.67740   0.16080   0.01267  Uiso   1.00
C13    C     0.45520   0.23480   0.84160   0.01267  Uiso   1.00
C14    C     0.83410   0.81680   0.26710   0.01267  Uiso   1.00
C15    C     0.27150   0.04770   0.55280   0.01267  Uiso   1.00
C16    C     0.02380   0.01650   0.81250   0.01267  Uiso   1.00
C17    C     0.61430   0.76230   0.62400   0.01267  Uiso   1.00
C18    C     0.79720   0.95660   0.38880   0.01267  Uiso   1.00
C19    C     0.08330   0.01650   0.75420   0.01267  Uiso   1.00
C20    C     0.24780   0.43820   0.26860   0.01267  Uiso   1.00
C21    C     0.88940   0.24330   0.54030   0.01267  Uiso   1.00
C22    C     0.17140   0.38890   0.55230   0.01267  Uiso   1.00
C23    C     0.54480   0.76520   0.15840   0.01267  Uiso   1.00
C24    C     0.20280   0.04340   0.61120   0.01267  Uiso   1.00
C25    C     0.92360   0.40980   0.79620   0.01267  Uiso   1.00
C26    C     0.49980   0.82310   0.94750   0.01267  Uiso   1.00
C27    C     0.73310   0.11590   0.57280   0.01267  Uiso   1.00
C28    C     0.50530   0.22310   0.78260   0.01267  Uiso   1.00
C29    C     0.57640   0.29680   0.65840   0.01267  Uiso   1.00
C30    C     0.13230   0.70870   0.51520   0.01267  Uiso   1.00
C31    C     0.62600   0.03390   0.26190   0.01267  Uiso   1.00
C32    C     0.14210   0.11160   0.82210   0.01267  Uiso   1.00
C33    C     0.55540   0.14660   0.78620   0.01267  Uiso   1.00
C34    C     0.89950   0.17570   0.05280   0.01267  Uiso   1.00
C35    C     0.11370   0.76170   0.12400   0.01267  Uiso   1.00
C36    C     0.49470   0.77690   0.21740   0.01267  Uiso   1.00
C37    C     0.00050   0.06180   0.79830   0.01267  Uiso   1.00
C38    C     0.60910   0.83430   0.43780   0.01267  Uiso   1.00
C39    C     0.85360   0.32260   0.83920   0.01267  Uiso   1.00
C40    C     0.38570   0.23770   0.37600   0.01267  Uiso   1.00
C41    C     0.55790   0.42840   0.07930   0.01267  Uiso   1.00
C42    C     0.50020   0.17690   0.05250   0.01267  Uiso   1.00
C43    C     0.56530   0.60060   0.34730   0.01267  Uiso   1.00
C44    C     0.61910   0.11790   0.50500   0.01267  Uiso   1.00
C45    C     0.81860   0.15730   0.58370   0.01267  Uiso   1.00
C46    C     0.75240   0.31490   0.84650   0.01267  Uiso   1.00
C47    C     0.27730   0.60530   0.18740   0.01267  Uiso   1.00
C48    C     0.70430   0.20390   0.23580   0.01267  Uiso   1.00
C49    C     0.28540   0.94720   0.87860   0.01267  Uiso   1.00
C50    C     0.24970   0.87790   0.85200   0.01267  Uiso   1.00
C51    C     0.70730   0.53530   0.68740   0.01267  Uiso   1.00
C52    C     0.07520   0.26870   0.51990   0.01267  Uiso   1.00
C53    C     0.44210   0.57160   0.92070   0.01267  Uiso   1.00
C54    C     0.71320   0.16400   0.51700   0.01267  Uiso   1.00
C55    C     0.79320   0.48360   0.76860   0.01267  Uiso   1.00
C56    C     0.75030   0.12210   0.14800   0.01267  Uiso   1.00
C57    C     0.33860   0.53420   0.95120   0.01267  Uiso   1.00
C58    C     0.70600   0.71980   0.70380   0.01267  Uiso   1.00
C59    C     0.86770   0.29130   0.48480   0.01267  Uiso   1.00
C60    C     0.72270   0.39470   0.81260   0.01267  Uiso   1.00
C61    C     0.77210   0.04690   0.06220   0.01267  Uiso   1.00
C62    C     0.01460   0.71020   0.45120   0.01267  Uiso   1.00
C63    C     0.18140   0.84270   0.41630   0.01267  Uiso   1.00
C64    C     0.82860   0.61110   0.44770   0.01267  Uiso   1.00
C65    C     0.99230   0.36280   0.57930   0.01267  Uiso   1.00
C66    C     0.37400   0.96610   0.73810   0.01267  Uiso   1.00
C67    C     0.83260   0.68340   0.47880   0.01267  Uiso   1.00
C68    C     0.77410   0.74580   0.97310   0.01267  Uiso   1.00
C69    C     0.29570   0.79610   0.76420   0.01267  Uiso   1.00
C70    C     0.44790   0.91260   0.15270   0.01267  Uiso   1.00
C71    C     0.77010   0.89830   0.35200   0.01267  Uiso   1.00
C72    C     0.50570   0.28790   0.71740   0.01267  Uiso   1.00
C73    C     0.66220   0.31140   0.02120   0.01267  Uiso   1.00
C74    C     0.88630   0.23830   0.87600   0.01267  Uiso   1.00
C75    C     0.32900   0.83630   0.68750   0.01267  Uiso   1.00
C76    C     0.87710   0.87590   0.00500   0.01267  Uiso   1.00
C77    C     0.55880   0.27630   0.05230   0.01267  Uiso   1.00
C78    C     0.27610   0.35250   0.01520   0.01267  Uiso   1.00
C79    C     0.81900   0.76980   0.01700   0.01267  Uiso   1.00
C80    C     0.41610   0.89880   0.76710   0.01267  Uiso   1.00
C81    C     0.36010   0.79880   0.70170   0.01267  Uiso   1.00
C82    C     0.27070   0.83750   0.74580   0.01267  Uiso   1.00
C83    C     0.72940   0.55270   0.44750   0.01267  Uiso   1.00
C84    C     0.42690   0.64250   0.40120   0.01267  Uiso   1.00
C85    C     0.29270   0.46470   0.31260   0.01267  Uiso   1.00
C86    C     0.11060   0.75670   0.45970   0.01267  Uiso   1.00
C87    C     0.56720   0.65840   0.28620   0.01267  Uiso   1.00
C88    C     0.58390   0.10120   0.23290   0.01267  Uiso   1.00
C89    C     0.07640   0.59020   0.20380   0.01267  Uiso   1.00
C90    C     0.44120   0.72370   0.94770   0.01267  Uiso   1.00
C91    C     0.47100   0.89530   0.70710   0.01267  Uiso   1.00
C92    C     0.81130   0.69410   0.07280   0.01267  Uiso   1.00
C93    C     0.18100   0.23020   0.98300   0.01267  Uiso   1.00
C94    C     0.84000   0.90220   0.28680   0.01267  Uiso   1.00
C95    C     0.22990   0.10170   0.64800   0.01267  Uiso   1.00
C96    C     0.26690   0.88410   0.42720   0.01267  Uiso   1.00
C97    C     0.66140   0.46580   0.04880   0.01267  Uiso   1.00
C98    C     0.84540   0.18600   0.11120   0.01267  Uiso   1.00
C99    C     0.43280   0.34160   0.71380   0.01267  Uiso   1.00
C100   C     0.27060   0.44730   0.55250   0.01267  Uiso   1.00
C101   C     0.16590   0.18320   0.73290   0.01267  Uiso   1.00
C102   C     0.20680   0.51640   0.23140   0.01267  Uiso   1.00
C103   C     0.10240   0.17810   0.79290   0.01267  Uiso   1.00
C104   C     0.57310   0.35750   0.59880   0.01267  Uiso   1.00
C105   C     0.55210   0.08740   0.84730   0.01267  Uiso   1.00
C106   C     0.68900   0.12680   0.21320   0.01267  Uiso   1.00
C107   C     0.22790   0.95310   0.93780   0.01267  Uiso   1.00
C108   C     0.24100   0.40230   0.91630   0.01267  Uiso   1.00
C109   C     0.72390   0.64750   0.98480   0.01267  Uiso   1.00
C110   C     0.71460   0.05280   0.12140   0.01267  Uiso   1.00
C111   C     0.31100   0.87320   0.78680   0.01267  Uiso   1.00
C112   C     0.25140   0.34550   0.26050   0.01267  Uiso   1.00
C113   C     0.75900   0.59770   0.08370   0.01267  Uiso   1.00
C114   C     0.38090   0.88210   0.49500   0.01267  Uiso   1.00
C115   C     0.97620   0.98350   0.18750   0.01267  Uiso   1.00
C116   C     0.33780   0.68860   0.97880   0.01267  Uiso   1.00
C117   C     0.98540   0.28980   0.54880   0.01267  Uiso   1.00
C118   C     0.91670   0.98350   0.24580   0.01267  Uiso   1.00
C119   C     0.16740   0.31660   0.52120   0.01267  Uiso   1.00
C120   C     0.49430   0.71210   0.28260   0.01267  Uiso   1.00
C121   C     0.08370   0.41310   0.58100   0.01267  Uiso   1.00
C122   C     0.78110   0.25280   0.47310   0.01267  Uiso   1.00
C123   C     0.56630   0.03580   0.32210   0.01267  Uiso   1.00
C124   C     0.67100   0.16370   0.31250   0.01267  Uiso   1.00
C125   C     0.72850   0.95230   0.44720   0.01267  Uiso   1.00
C126   C     0.28360   0.42970   0.95970   0.01267  Uiso   1.00
C127   C     0.79580   0.88790   0.23810   0.01267  Uiso   1.00
C128   C     0.63990   0.20120   0.29830   0.01267  Uiso   1.00
C129   C     0.33820   0.30720   0.33920   0.01267  Uiso   1.00
C130   C     0.93970   0.94010   0.26420   0.01267  Uiso   1.00
C131   C     0.12290   0.12410   0.99500   0.01267  Uiso   1.00
C132   C     0.10600   0.51190   0.23950   0.01267  Uiso   1.00
C133   C     0.45630   0.17190   0.90120   0.01267  Uiso   1.00
C134   C     0.66180   0.69280   0.66080   0.01267  Uiso   1.00
C135   C     0.85790   0.88840   0.17790   0.01267  Uiso   1.00
C136   C     0.20420   0.11210   0.76190   0.01267  Uiso   1.00
C137   C     0.89400   0.48810   0.76050   0.01267  Uiso   1.00
C138   C     0.74860   0.65450   0.73950   0.01267  Uiso   1.00
C139   C     0.44460   0.85340   0.21380   0.01267  Uiso   1.00
C140   C     0.99950   0.93820   0.20170   0.01267  Uiso   1.00
C141   C     0.75220   0.56180   0.73140   0.01267  Uiso   1.00
C142   C     0.06030   0.05990   0.73580   0.01267  Uiso   1.00
C143   C     0.16000   0.09780   0.71320   0.01267  Uiso   1.00
C144   C     0.66140   0.59890   0.65350   0.01267  Uiso   1.00
C145   C     0.92480   0.73130   0.48010   0.01267  Uiso   1.00
C146   C     0.89760   0.82190   0.20710   0.01267  Uiso   1.00
C147   C     0.29400   0.28020   0.29620   0.01267  Uiso   1.00
C148   C     0.54370   0.82810   0.09880   0.01267  Uiso   1.00
C149   C     0.24760   0.68510   0.15350   0.01267  Uiso   1.00
C150   C     0.21890   0.74720   0.52690   0.01267  Uiso   1.00
C151   C     0.32580   0.16400   0.62140   0.01267  Uiso   1.00
C152   C     0.50590   0.33530   0.08100   0.01267  Uiso   1.00
C153   C     0.52900   0.10470   0.29290   0.01267  Uiso   1.00
C154   C     0.15460   0.81400   0.88880   0.01267  Uiso   1.00
C155   C     0.67420   0.83600   0.37860   0.01267  Uiso   1.00
C156   C     0.91630   0.58690   0.41900   0.01267  Uiso   1.00
C157   C     0.43370   0.96420   0.67790   0.01267  Uiso   1.00
C158   C     0.10050   0.82430   0.94720   0.01267  Uiso   1.00
C159   C     0.43470   0.39940   0.65270   0.01267  Uiso   1.00
C160   C     0.18870   0.30590   0.92720   0.01267  Uiso   1.00
N1     N     0.36567   0.10774   0.52767   0.01267  Uiso   1.00
N2     N     0.13541   0.89334   0.97233   0.01267  Uiso   1.00
N3     N     0.24710   0.47950   0.85460   0.01267  Uiso   1.00
N4     N     0.90180   0.39430   0.60950   0.01267  Uiso   1.00
N5     N     0.42898   0.87210   0.66332   0.01267  Uiso   1.00
N6     N     0.03542   0.09230   0.83668   0.01267  Uiso   1.00
N7     N     0.57102   0.12790   0.33668   0.01267  Uiso   1.00
N8     N     0.63433   0.89226   0.47233   0.01267  Uiso   1.00
N9     N     0.50343   0.40861   0.59518   0.01267  Uiso   1.00
N10    N     0.50380   0.51130   0.89050   0.01267  Uiso   1.00
N11    N     0.83410   0.10170   0.64540   0.01267  Uiso   1.00
N12    N     0.16590   0.89830   0.35460   0.01267  Uiso   1.00
N13    N     0.96458   0.90770   0.16332   0.01267  Uiso   1.00
N14    N     0.49621   0.90139   0.09518   0.01267  Uiso   1.00
N15    N     0.21140   0.31400   0.21180   0.01267  Uiso   1.00
N16    N     0.78860   0.68600   0.78820   0.01267  Uiso   1.00
N17    N     0.09820   0.60570   0.39050   0.01267  Uiso   1.00
N18    N     0.97420   0.57680   0.71180   0.01267  Uiso   1.00
N19    N     0.49657   0.59139   0.40482   0.01267  Uiso   1.00
N20    N     0.02580   0.42320   0.28820   0.01267  Uiso   1.00
N21    N     0.75290   0.52050   0.14540   0.01267  Uiso   1.00
N22    N     0.49620   0.48870   0.10950   0.01267  Uiso   1.00
N23    N     0.86459   0.10666   0.02767   0.01267  Uiso   1.00
N24    N     0.50379   0.09861   0.90482   0.01267  Uiso   1.00
O1     O     0.96904   0.25735   0.88711   0.01267  Uiso   1.00
O2     O     0.75450   0.05240   0.69370   0.01267  Uiso   1.00
O3     O     0.91280   0.48290   0.60630   0.01267  Uiso   1.00
O4     O     0.84320   0.78240   0.76060   0.01267  Uiso   1.00
O5     O     0.95600   0.64400   0.67960   0.01267  Uiso   1.00
O6     O     0.24550   0.94760   0.30630   0.01267  Uiso   1.00
O7     O     0.15680   0.21760   0.23940   0.01267  Uiso   1.00
O8     O     0.17640   0.36440   0.17960   0.01267  Uiso   1.00
O9     O     0.87631   0.94500   0.95653   0.01267  Uiso   1.00
O10    O     0.43460   0.96575   0.45441   0.01267  Uiso   1.00
O11    O     0.40153   0.83284   0.54347   0.01267  Uiso   1.00
O12    O     0.41080   0.48090   0.10630   0.01267  Uiso   1.00
O13    O     0.12369   0.05500   0.04347   0.01267  Uiso   1.00
O14    O     0.35554   0.14385   0.38711   0.01267  Uiso   1.00
O15    O     0.08840   0.88630   0.34690   0.01267  Uiso   1.00
O16    O     0.53120   0.53980   0.13660   0.01267  Uiso   1.00
O17    O     0.73282   0.48872   0.41810   0.01267  Uiso   1.00
O18    O     0.46880   0.46020   0.86340   0.01267  Uiso   1.00
O19    O     0.34927   0.42825   0.52194   0.01267  Uiso   1.00
O20    O     0.65073   0.57175   0.47806   0.01267  Uiso   1.00
O21    O     0.73320   0.43530   0.15310   0.01267  Uiso   1.00
O22    O     0.82360   0.33220   0.63660   0.01267  Uiso   1.00
O23    O     0.16710   0.85118   0.10468   0.01267  Uiso   1.00
O24    O     0.95700   0.39620   0.26060   0.01267  Uiso   1.00
O25    O     0.04400   0.35600   0.32040   0.01267  Uiso   1.00
O26    O     0.75390   0.55180   0.19370   0.01267  Uiso   1.00
O27    O     0.45586   0.27178   0.39532   0.01267  Uiso   1.00
O28    O     0.24610   0.44820   0.80630   0.01267  Uiso   1.00
O29    O     0.83290   0.14882   0.89532   0.01267  Uiso   1.00
O30    O     0.26718   0.51128   0.58190   0.01267  Uiso   1.00
O31    O     0.54981   0.12879   0.02194   0.01267  Uiso   1.00
O32    O     0.08720   0.51710   0.39370   0.01267  Uiso   1.00
O33    O     0.54414   0.72822   0.60468   0.01267  Uiso   1.00
O34    O     0.75510   0.75040   0.80910   0.01267  Uiso   1.00
O35    O     0.59847   0.16716   0.45653   0.01267  Uiso   1.00
O36    O     0.04300   0.60380   0.73940   0.01267  Uiso   1.00
O37    O     0.64446   0.85615   0.61289   0.01267  Uiso   1.00
O38    O     0.94050   0.43580   0.30910   0.01267  Uiso   1.00
O39    O     0.58920   0.51910   0.89370   0.01267  Uiso   1.00
O40    O     0.24490   0.24960   0.19090   0.01267  Uiso   1.00
O41    O     0.40682   0.15092   0.08190   0.01267  Uiso   1.00
O42    O     0.59318   0.84908   0.91810   0.01267  Uiso   1.00
O43    O     0.17640   0.66780   0.36340   0.01267  Uiso   1.00
O44    O     0.82360   0.63560   0.82040   0.01267  Uiso   1.00
O45    O     0.91160   0.11370   0.65310   0.01267  Uiso   1.00
O46    O     0.92016   0.88901   0.04559   0.01267  Uiso   1.00
O47    O     0.56540   0.03425   0.54559   0.01267  Uiso   1.00
O48    O     0.05950   0.56420   0.69090   0.01267  Uiso   1.00
O49    O     0.03096   0.74265   0.11289   0.01267  Uiso   1.00
O50    O     0.26680   0.56470   0.84690   0.01267  Uiso   1.00
O51    O     0.45019   0.87121   0.97806   0.01267  Uiso   1.00
O52    O     0.07984   0.11099   0.95441   0.01267  Uiso   1.00
