data_cg3015354_si_002_clean
_audit_creation_date              2015-08-19
_audit_creation_method            'Materials Studio'
_symmetry_space_group_name_H-M    'P1'
_symmetry_Int_Tables_number       1
_symmetry_cell_setting            triclinic
loop_
_symmetry_equiv_pos_as_xyz
  x,y,z
_cell_length_a                    18.8610
_cell_length_b                    20.0190
_cell_length_c                    20.0190
_cell_angle_alpha                 90.0000
_cell_angle_beta                  90.0000
_cell_angle_gamma                 90.0000
loop_
_atom_site_label
_atom_site_type_symbol
_atom_site_fract_x
_atom_site_fract_y
_atom_site_fract_z
_atom_site_U_iso_or_equiv
_atom_site_adp_type
_atom_site_occupancy
Mn1    Mn    0.44591   0.21578   0.16469   0.01267  Uiso   1.00
Mn2    Mn    0.75000   0.79018   0.29018   0.01267  Uiso   1.00
Mn3    Mn    0.84803   0.71013   0.71956   0.01267  Uiso   1.00
Mn4    Mn    0.22484   0.92140   0.79369   0.01267  Uiso   1.00
Mn5    Mn    0.94707   0.29598   0.44822   0.01267  Uiso   1.00
Mn6    Mn    0.27516   0.29369   0.42140   0.01267  Uiso   1.00
Mn7    Mn    0.55293   0.05178   0.20402   0.01267  Uiso   1.00
Mn8    Mn    0.05293   0.44822   0.70402   0.01267  Uiso   1.00
Mn9    Mn    0.37950   0.42806   0.76829   0.01267  Uiso   1.00
Mn10   Mn    0.94591   0.71578   0.33531   0.01267  Uiso   1.00
Mn11   Mn    0.27516   0.70631   0.57860   0.01267  Uiso   1.00
Mn12   Mn    0.62050   0.23171   0.42806   0.01267  Uiso   1.00
Mn13   Mn    0.34803   0.21013   0.78044   0.01267  Uiso   1.00
Mn14   Mn    0.44591   0.78422   0.83531   0.01267  Uiso   1.00
Mn15   Mn    0.05409   0.66469   0.71578   0.01267  Uiso   1.00
Mn16   Mn    0.77516   0.79369   0.07860   0.01267  Uiso   1.00
Mn17   Mn    0.84803   0.28987   0.28044   0.01267  Uiso   1.00
Mn18   Mn    0.25000   0.29018   0.20982   0.01267  Uiso   1.00
Mn19   Mn    0.37950   0.57194   0.23171   0.01267  Uiso   1.00
Mn20   Mn    0.87950   0.92806   0.73171   0.01267  Uiso   1.00
Mn21   Mn    0.72484   0.42140   0.70631   0.01267  Uiso   1.00
Mn22   Mn    0.15197   0.28044   0.71013   0.01267  Uiso   1.00
Mn23   Mn    0.75000   0.20982   0.70982   0.01267  Uiso   1.00
Mn24   Mn    0.87950   0.07194   0.26829   0.01267  Uiso   1.00
Mn25   Mn    0.65197   0.21956   0.21013   0.01267  Uiso   1.00
Mn26   Mn    0.15197   0.71956   0.28987   0.01267  Uiso   1.00
Mn27   Mn    0.12050   0.26829   0.92806   0.01267  Uiso   1.00
Mn28   Mn    0.34803   0.78987   0.21956   0.01267  Uiso   1.00
Mn29   Mn    0.22484   0.07860   0.20631   0.01267  Uiso   1.00
Mn30   Mn    0.94707   0.70402   0.55178   0.01267  Uiso   1.00
Mn31   Mn    0.44707   0.79598   0.05178   0.01267  Uiso   1.00
Mn32   Mn    0.77516   0.20631   0.92140   0.01267  Uiso   1.00
Mn33   Mn    0.72484   0.57860   0.29369   0.01267  Uiso   1.00
Mn34   Mn    0.55293   0.94822   0.79598   0.01267  Uiso   1.00
Mn35   Mn    0.55409   0.16469   0.78422   0.01267  Uiso   1.00
Mn36   Mn    0.94591   0.28422   0.66469   0.01267  Uiso   1.00
Mn37   Mn    0.25000   0.70982   0.79018   0.01267  Uiso   1.00
Mn38   Mn    0.62050   0.76829   0.57194   0.01267  Uiso   1.00
Mn39   Mn    0.55409   0.83531   0.21578   0.01267  Uiso   1.00
Mn40   Mn    0.12050   0.73171   0.07194   0.01267  Uiso   1.00
Mn41   Mn    0.05409   0.33531   0.28422   0.01267  Uiso   1.00
Mn42   Mn    0.65197   0.78044   0.78987   0.01267  Uiso   1.00
Mn43   Mn    0.05293   0.55178   0.29598   0.01267  Uiso   1.00
Mn44   Mn    0.44707   0.20402   0.94822   0.01267  Uiso   1.00
H1     H     0.25410   0.68440   0.22040   0.01267  Uiso   1.00
H2     H     0.74590   0.77960   0.68440   0.01267  Uiso   1.00
H3     H     0.25410   0.31560   0.77960   0.01267  Uiso   1.00
H4     H     0.24590   0.72040   0.18440   0.01267  Uiso   1.00
H5     H     0.24590   0.27960   0.81560   0.01267  Uiso   1.00
H6     H     0.75410   0.81560   0.72040   0.01267  Uiso   1.00
H7     H     0.75410   0.18440   0.27960   0.01267  Uiso   1.00
H8     H     0.74590   0.22040   0.31560   0.01267  Uiso   1.00
C1     C     0.21140   0.42750   0.74190   0.01267  Uiso   1.00
C2     C     0.09920   0.30660   0.50190   0.01267  Uiso   1.00
C3     C     0.58770   0.65030   0.24840   0.01267  Uiso   1.00
C4     C     0.74350   0.05650   0.73960   0.01267  Uiso   1.00
C5     C     0.75650   0.76040   0.44350   0.01267  Uiso   1.00
C6     C     0.70120   0.99960   0.24450   0.01267  Uiso   1.00
C7     C     0.90080   0.50190   0.69340   0.01267  Uiso   1.00
C8     C     0.51710   0.65030   0.23550   0.01267  Uiso   1.00
C9     C     0.85620   0.75310   0.20390   0.01267  Uiso   1.00
C10    C     0.91230   0.25160   0.84970   0.01267  Uiso   1.00
C11    C     0.28860   0.24190   0.92750   0.01267  Uiso   1.00
C12    C     0.31760   0.43110   0.21250   0.01267  Uiso   1.00
C13    C     0.28860   0.75810   0.07250   0.01267  Uiso   1.00
C14    C     0.96030   0.79970   0.72610   0.01267  Uiso   1.00
C15    C     0.91230   0.74840   0.15030   0.01267  Uiso   1.00
C16    C     0.85720   0.55580   0.70120   0.01267  Uiso   1.00
C17    C     0.81760   0.06890   0.71250   0.01267  Uiso   1.00
C18    C     0.03970   0.72610   0.20030   0.01267  Uiso   1.00
C19    C     0.20120   0.50040   0.74450   0.01267  Uiso   1.00
C20    C     0.58770   0.34970   0.75160   0.01267  Uiso   1.00
C21    C     0.25650   0.73960   0.94350   0.01267  Uiso   1.00
C22    C     0.78860   0.74190   0.57250   0.01267  Uiso   1.00
C23    C     0.68240   0.78750   0.43110   0.01267  Uiso   1.00
C24    C     0.14280   0.70120   0.44420   0.01267  Uiso   1.00
C25    C     0.29880   0.75550   0.99960   0.01267  Uiso   1.00
C26    C     0.27800   0.07040   0.79680   0.01267  Uiso   1.00
C27    C     0.89240   0.57180   0.32000   0.01267  Uiso   1.00
C28    C     0.40080   0.00190   0.80660   0.01267  Uiso   1.00
C29    C     0.40080   0.99810   0.19340   0.01267  Uiso   1.00
C30    C     0.60760   0.18000   0.92820   0.01267  Uiso   1.00
C31    C     0.27800   0.92960   0.20320   0.01267  Uiso   1.00
C32    C     0.85720   0.44420   0.29880   0.01267  Uiso   1.00
C33    C     0.18240   0.71250   0.93110   0.01267  Uiso   1.00
C34    C     0.68240   0.21250   0.56890   0.01267  Uiso   1.00
C35    C     0.96030   0.20030   0.27390   0.01267  Uiso   1.00
C36    C     0.79880   0.74450   0.49960   0.01267  Uiso   1.00
C37    C     0.22200   0.70320   0.42960   0.01267  Uiso   1.00
C38    C     0.59920   0.19340   0.00190   0.01267  Uiso   1.00
C39    C     0.25650   0.26040   0.05650   0.01267  Uiso   1.00
C40    C     0.10760   0.68000   0.57180   0.01267  Uiso   1.00
C41    C     0.29880   0.24450   0.00040   0.01267  Uiso   1.00
C42    C     0.77800   0.57040   0.70320   0.01267  Uiso   1.00
C43    C     0.39240   0.07180   0.18000   0.01267  Uiso   1.00
C44    C     0.90080   0.49810   0.30660   0.01267  Uiso   1.00
C45    C     0.35620   0.25310   0.29610   0.01267  Uiso   1.00
C46    C     0.77800   0.42960   0.29680   0.01267  Uiso   1.00
C47    C     0.59920   0.80660   0.99810   0.01267  Uiso   1.00
C48    C     0.72200   0.20320   0.07040   0.01267  Uiso   1.00
C49    C     0.74350   0.94350   0.26040   0.01267  Uiso   1.00
C50    C     0.60760   0.82000   0.07180   0.01267  Uiso   1.00
C51    C     0.64280   0.79880   0.94420   0.01267  Uiso   1.00
C52    C     0.03970   0.27390   0.79970   0.01267  Uiso   1.00
C53    C     0.79880   0.25550   0.50040   0.01267  Uiso   1.00
C54    C     0.64280   0.20120   0.05580   0.01267  Uiso   1.00
C55    C     0.35720   0.94420   0.20120   0.01267  Uiso   1.00
C56    C     0.64380   0.29610   0.74690   0.01267  Uiso   1.00
C57    C     0.35720   0.05580   0.79880   0.01267  Uiso   1.00
C58    C     0.70120   0.00040   0.75550   0.01267  Uiso   1.00
C59    C     0.48290   0.23550   0.34970   0.01267  Uiso   1.00
C60    C     0.14380   0.79610   0.75310   0.01267  Uiso   1.00
C61    C     0.85620   0.24690   0.79610   0.01267  Uiso   1.00
C62    C     0.48290   0.76450   0.65030   0.01267  Uiso   1.00
C63    C     0.41230   0.75160   0.65030   0.01267  Uiso   1.00
C64    C     0.24350   0.55650   0.76040   0.01267  Uiso   1.00
C65    C     0.71140   0.07250   0.24190   0.01267  Uiso   1.00
C66    C     0.75650   0.23960   0.55650   0.01267  Uiso   1.00
C67    C     0.98290   0.73550   0.15030   0.01267  Uiso   1.00
C68    C     0.08770   0.84970   0.74840   0.01267  Uiso   1.00
C69    C     0.51710   0.34970   0.76450   0.01267  Uiso   1.00
C70    C     0.81760   0.93110   0.28750   0.01267  Uiso   1.00
C71    C     0.08770   0.15030   0.25160   0.01267  Uiso   1.00
C72    C     0.89240   0.42820   0.68000   0.01267  Uiso   1.00
C73    C     0.09920   0.69340   0.49810   0.01267  Uiso   1.00
C74    C     0.24350   0.44350   0.23960   0.01267  Uiso   1.00
C75    C     0.46030   0.70030   0.22610   0.01267  Uiso   1.00
C76    C     0.98290   0.26450   0.84970   0.01267  Uiso   1.00
C77    C     0.22200   0.29680   0.57040   0.01267  Uiso   1.00
C78    C     0.10760   0.32000   0.42820   0.01267  Uiso   1.00
C79    C     0.14280   0.29880   0.55580   0.01267  Uiso   1.00
C80    C     0.35620   0.74690   0.70390   0.01267  Uiso   1.00
C81    C     0.71140   0.92750   0.75810   0.01267  Uiso   1.00
C82    C     0.53970   0.22610   0.29970   0.01267  Uiso   1.00
C83    C     0.14380   0.20390   0.24690   0.01267  Uiso   1.00
C84    C     0.64380   0.70390   0.25310   0.01267  Uiso   1.00
C85    C     0.46030   0.29970   0.77390   0.01267  Uiso   1.00
C86    C     0.18240   0.28750   0.06890   0.01267  Uiso   1.00
C87    C     0.21140   0.57250   0.25810   0.01267  Uiso   1.00
C88    C     0.78860   0.25810   0.42750   0.01267  Uiso   1.00
C89    C     0.39240   0.92820   0.82000   0.01267  Uiso   1.00
C90    C     0.01710   0.84970   0.73550   0.01267  Uiso   1.00
C91    C     0.72200   0.79680   0.92960   0.01267  Uiso   1.00
C92    C     0.01710   0.15030   0.26450   0.01267  Uiso   1.00
C93    C     0.53970   0.77390   0.70030   0.01267  Uiso   1.00
C94    C     0.20120   0.49960   0.25550   0.01267  Uiso   1.00
C95    C     0.31760   0.56890   0.78750   0.01267  Uiso   1.00
C96    C     0.41230   0.24840   0.34970   0.01267  Uiso   1.00
N1     N     0.39970   0.88890   0.21070   0.01267  Uiso   1.00
N2     N     0.50510   0.76120   0.58560   0.01267  Uiso   1.00
N3     N     0.46840   0.97560   0.19540   0.01267  Uiso   1.00
N4     N     0.05270   0.95230   0.74980   0.01267  Uiso   1.00
N5     N     0.72870   0.96980   0.93180   0.01267  Uiso   1.00
N6     N     0.59560   0.35420   0.94340   0.01267  Uiso   1.00
N7     N     0.96560   0.59050   0.70620   0.01267  Uiso   1.00
N8     N     0.90440   0.55660   0.14580   0.01267  Uiso   1.00
N9     N     0.60030   0.21070   0.11110   0.01267  Uiso   1.00
N10    N     0.86290   0.27380   0.52530   0.01267  Uiso   1.00
N11    N     0.00510   0.73880   0.08560   0.01267  Uiso   1.00
N12    N     0.36290   0.77380   0.97470   0.01267  Uiso   1.00
N13    N     0.94730   0.74980   0.04770   0.01267  Uiso   1.00
N14    N     0.41610   0.10170   0.94760   0.01267  Uiso   1.00
N15    N     0.00510   0.26120   0.91440   0.01267  Uiso   1.00
N16    N     0.99490   0.08560   0.26120   0.01267  Uiso   1.00
N17    N     0.58390   0.94760   0.89830   0.01267  Uiso   1.00
N18    N     0.77130   0.43180   0.46980   0.01267  Uiso   1.00
N19    N     0.22870   0.53020   0.43180   0.01267  Uiso   1.00
N20    N     0.22870   0.46980   0.56820   0.01267  Uiso   1.00
N21    N     0.96840   0.52440   0.69540   0.01267  Uiso   1.00
N22    N     0.47180   0.93760   0.67010   0.01267  Uiso   1.00
N23    N     0.47180   0.06240   0.32990   0.01267  Uiso   1.00
N24    N     0.46560   0.09050   0.79380   0.01267  Uiso   1.00
N25    N     0.13710   0.52530   0.72620   0.01267  Uiso   1.00
N26    N     0.10030   0.28930   0.61110   0.01267  Uiso   1.00
N27    N     0.97180   0.43760   0.82990   0.01267  Uiso   1.00
N28    N     0.60860   0.41380   0.74220   0.01267  Uiso   1.00
N29    N     0.84730   0.41390   0.46940   0.01267  Uiso   1.00
N30    N     0.03160   0.30460   0.52440   0.01267  Uiso   1.00
N31    N     0.60860   0.58620   0.25780   0.01267  Uiso   1.00
N32    N     0.08390   0.44760   0.60170   0.01267  Uiso   1.00
N33    N     0.91610   0.39830   0.44760   0.01267  Uiso   1.00
N34    N     0.52820   0.67010   0.06240   0.01267  Uiso   1.00
N35    N     0.60030   0.78930   0.88890   0.01267  Uiso   1.00
N36    N     0.96990   0.80920   0.56940   0.01267  Uiso   1.00
N37    N     0.40440   0.94340   0.64580   0.01267  Uiso   1.00
N38    N     0.96840   0.47560   0.30460   0.01267  Uiso   1.00
N39    N     0.44730   0.24980   0.45230   0.01267  Uiso   1.00
N40    N     0.63950   0.90880   0.23200   0.01267  Uiso   1.00
N41    N     0.10860   0.08620   0.24220   0.01267  Uiso   1.00
N42    N     0.94730   0.25020   0.95230   0.01267  Uiso   1.00
N43    N     0.79660   0.24600   0.61050   0.01267  Uiso   1.00
N44    N     0.63710   0.02530   0.77380   0.01267  Uiso   1.00
N45    N     0.34730   0.91390   0.03060   0.01267  Uiso   1.00
N46    N     0.34730   0.08610   0.96940   0.01267  Uiso   1.00
N47    N     0.99490   0.91440   0.73880   0.01267  Uiso   1.00
N48    N     0.46990   0.69080   0.06940   0.01267  Uiso   1.00
N49    N     0.03440   0.70620   0.40950   0.01267  Uiso   1.00
N50    N     0.03160   0.69540   0.47560   0.01267  Uiso   1.00
N51    N     0.89140   0.75780   0.08620   0.01267  Uiso   1.00
N52    N     0.08390   0.55240   0.39830   0.01267  Uiso   1.00
N53    N     0.46990   0.30920   0.93060   0.01267  Uiso   1.00
N54    N     0.86050   0.73200   0.40880   0.01267  Uiso   1.00
N55    N     0.53010   0.06940   0.30920   0.01267  Uiso   1.00
N56    N     0.84730   0.58610   0.53060   0.01267  Uiso   1.00
N57    N     0.49490   0.41440   0.76120   0.01267  Uiso   1.00
N58    N     0.05270   0.04770   0.25020   0.01267  Uiso   1.00
N59    N     0.03440   0.29380   0.59050   0.01267  Uiso   1.00
N60    N     0.96990   0.19080   0.43060   0.01267  Uiso   1.00
N61    N     0.29660   0.74600   0.88950   0.01267  Uiso   1.00
N62    N     0.02820   0.82990   0.56240   0.01267  Uiso   1.00
N63    N     0.27130   0.06820   0.96980   0.01267  Uiso   1.00
N64    N     0.55270   0.54770   0.24980   0.01267  Uiso   1.00
N65    N     0.36290   0.22620   0.02530   0.01267  Uiso   1.00
N66    N     0.77130   0.56820   0.53020   0.01267  Uiso   1.00
N67    N     0.55270   0.45230   0.75020   0.01267  Uiso   1.00
N68    N     0.02820   0.17010   0.43760   0.01267  Uiso   1.00
N69    N     0.39140   0.74220   0.58620   0.01267  Uiso   1.00
N70    N     0.52820   0.32990   0.93760   0.01267  Uiso   1.00
N71    N     0.10030   0.71070   0.38890   0.01267  Uiso   1.00
N72    N     0.46840   0.02440   0.80460   0.01267  Uiso   1.00
N73    N     0.70340   0.88950   0.25400   0.01267  Uiso   1.00
N74    N     0.97180   0.56240   0.17010   0.01267  Uiso   1.00
N75    N     0.91610   0.60170   0.55240   0.01267  Uiso   1.00
N76    N     0.70340   0.11050   0.74600   0.01267  Uiso   1.00
N77    N     0.03010   0.56940   0.19080   0.01267  Uiso   1.00
N78    N     0.89970   0.38890   0.28930   0.01267  Uiso   1.00
N79    N     0.89140   0.24220   0.91380   0.01267  Uiso   1.00
N80    N     0.36050   0.76800   0.90880   0.01267  Uiso   1.00
N81    N     0.86050   0.26800   0.59120   0.01267  Uiso   1.00
N82    N     0.03010   0.43060   0.80920   0.01267  Uiso   1.00
N83    N     0.53010   0.93060   0.69080   0.01267  Uiso   1.00
N84    N     0.65270   0.03060   0.08610   0.01267  Uiso   1.00
N85    N     0.27130   0.93180   0.03020   0.01267  Uiso   1.00
N86    N     0.20340   0.61050   0.75400   0.01267  Uiso   1.00
N87    N     0.39970   0.11110   0.78930   0.01267  Uiso   1.00
N88    N     0.46560   0.90950   0.20620   0.01267  Uiso   1.00
N89    N     0.59560   0.64580   0.05660   0.01267  Uiso   1.00
N90    N     0.90440   0.44340   0.85420   0.01267  Uiso   1.00
N91    N     0.79660   0.75400   0.38950   0.01267  Uiso   1.00
N92    N     0.39140   0.25780   0.41380   0.01267  Uiso   1.00
N93    N     0.29660   0.25400   0.11050   0.01267  Uiso   1.00
N94    N     0.40440   0.05660   0.35420   0.01267  Uiso   1.00
N95    N     0.63950   0.09120   0.76800   0.01267  Uiso   1.00
N96    N     0.49490   0.58560   0.23880   0.01267  Uiso   1.00
N97    N     0.65270   0.96940   0.91390   0.01267  Uiso   1.00
N98    N     0.20340   0.38950   0.24600   0.01267  Uiso   1.00
N99    N     0.86290   0.72620   0.47470   0.01267  Uiso   1.00
N100   N     0.89970   0.61110   0.71070   0.01267  Uiso   1.00
N101   N     0.96560   0.40950   0.29380   0.01267  Uiso   1.00
N102   N     0.53160   0.19540   0.02440   0.01267  Uiso   1.00
N103   N     0.53440   0.20620   0.09050   0.01267  Uiso   1.00
N104   N     0.44730   0.75020   0.54770   0.01267  Uiso   1.00
N105   N     0.09560   0.14580   0.44340   0.01267  Uiso   1.00
N106   N     0.15270   0.53060   0.41390   0.01267  Uiso   1.00
N107   N     0.13710   0.47470   0.27380   0.01267  Uiso   1.00
N108   N     0.72870   0.03020   0.06820   0.01267  Uiso   1.00
N109   N     0.50510   0.23880   0.41440   0.01267  Uiso   1.00
N110   N     0.10860   0.91380   0.75780   0.01267  Uiso   1.00
N111   N     0.58390   0.05240   0.10170   0.01267  Uiso   1.00
N112   N     0.53440   0.79380   0.90950   0.01267  Uiso   1.00
N113   N     0.13950   0.59120   0.73200   0.01267  Uiso   1.00
N114   N     0.63710   0.97470   0.22620   0.01267  Uiso   1.00
N115   N     0.09560   0.85420   0.55660   0.01267  Uiso   1.00
N116   N     0.13950   0.40880   0.26800   0.01267  Uiso   1.00
N117   N     0.15270   0.46940   0.58610   0.01267  Uiso   1.00
N118   N     0.53160   0.80460   0.97560   0.01267  Uiso   1.00
N119   N     0.36050   0.23200   0.09120   0.01267  Uiso   1.00
N120   N     0.41610   0.89830   0.05240   0.01267  Uiso   1.00
O1     O     0.10390   0.27190   0.82140   0.01267  Uiso   1.00
O2     O     0.70380   0.68620   0.27660   0.01267  Uiso   1.00
O3     O     0.94860   0.39480   0.67670   0.01267  Uiso   1.00
O4     O     0.82900   0.12650   0.69370   0.01267  Uiso   1.00
O5     O     0.89610   0.17860   0.27190   0.01267  Uiso   1.00
O6     O     0.76600   0.80100   0.97470   0.01267  Uiso   1.00
O7     O     0.39610   0.32140   0.77190   0.01267  Uiso   1.00
O8     O     0.70380   0.31380   0.72340   0.01267  Uiso   1.00
O9     O     0.73010   0.75670   0.59740   0.01267  Uiso   1.00
O10    O     0.20380   0.81380   0.77660   0.01267  Uiso   1.00
O11    O     0.25000   0.72630   0.22630   0.01267  Uiso   1.00
O12    O     0.25000   0.27370   0.77370   0.01267  Uiso   1.00
O13    O     0.73400   0.47470   0.30100   0.01267  Uiso   1.00
O14    O     0.73730   0.78880   0.86730   0.01267  Uiso   1.00
O15    O     0.63190   0.76130   0.23640   0.01267  Uiso   1.00
O16    O     0.76600   0.19900   0.02530   0.01267  Uiso   1.00
O17    O     0.33230   0.09600   0.17390   0.01267  Uiso   1.00
O18    O     0.66770   0.17390   0.90400   0.01267  Uiso   1.00
O19    O     0.32900   0.62650   0.80630   0.01267  Uiso   1.00
O20    O     0.60390   0.22810   0.32140   0.01267  Uiso   1.00
O21    O     0.63190   0.23870   0.76360   0.01267  Uiso   1.00
O22    O     0.89610   0.82140   0.72810   0.01267  Uiso   1.00
O23    O     0.86810   0.26360   0.73870   0.01267  Uiso   1.00
O24    O     0.20380   0.18620   0.22340   0.01267  Uiso   1.00
O25    O     0.26270   0.13270   0.78880   0.01267  Uiso   1.00
O26    O     0.34340   0.77420   0.10780   0.01267  Uiso   1.00
O27    O     0.16770   0.32610   0.40400   0.01267  Uiso   1.00
O28    O     0.15660   0.60780   0.27420   0.01267  Uiso   1.00
O29    O     0.26990   0.59740   0.24330   0.01267  Uiso   1.00
O30    O     0.86290   0.97600   0.28550   0.01267  Uiso   1.00
O31    O     0.63710   0.21450   0.52400   0.01267  Uiso   1.00
O32    O     0.44860   0.89480   0.82330   0.01267  Uiso   1.00
O33    O     0.36810   0.76360   0.76130   0.01267  Uiso   1.00
O34    O     0.79620   0.77660   0.18620   0.01267  Uiso   1.00
O35    O     0.29620   0.72340   0.68620   0.01267  Uiso   1.00
O36    O     0.84340   0.72580   0.60780   0.01267  Uiso   1.00
O37    O     0.26600   0.69900   0.47470   0.01267  Uiso   1.00
O38    O     0.67100   0.19370   0.62650   0.01267  Uiso   1.00
O39    O     0.13190   0.73870   0.73640   0.01267  Uiso   1.00
O40    O     0.65660   0.10780   0.22580   0.01267  Uiso   1.00
O41    O     0.86810   0.73640   0.26130   0.01267  Uiso   1.00
O42    O     0.26600   0.30100   0.52530   0.01267  Uiso   1.00
O43    O     0.55140   0.82330   0.10520   0.01267  Uiso   1.00
O44    O     0.97050   0.73900   0.71560   0.01267  Uiso   1.00
O45    O     0.76270   0.36730   0.28880   0.01267  Uiso   1.00
O46    O     0.23730   0.71120   0.36730   0.01267  Uiso   1.00
O47    O     0.83230   0.40400   0.67390   0.01267  Uiso   1.00
O48    O     0.17100   0.69370   0.87350   0.01267  Uiso   1.00
O49    O     0.47050   0.23900   0.78440   0.01267  Uiso   1.00
O50    O     0.60390   0.77190   0.67860   0.01267  Uiso   1.00
O51    O     0.73400   0.52530   0.69900   0.01267  Uiso   1.00
O52    O     0.02950   0.28440   0.73900   0.01267  Uiso   1.00
O53    O     0.05140   0.67670   0.60520   0.01267  Uiso   1.00
O54    O     0.33230   0.90400   0.82610   0.01267  Uiso   1.00
O55    O     0.76270   0.63270   0.71120   0.01267  Uiso   1.00
O56    O     0.67100   0.80630   0.37350   0.01267  Uiso   1.00
O57    O     0.23730   0.28880   0.63270   0.01267  Uiso   1.00
O58    O     0.16770   0.67390   0.59600   0.01267  Uiso   1.00
O59    O     0.17100   0.30630   0.12650   0.01267  Uiso   1.00
O60    O     0.79620   0.22340   0.81380   0.01267  Uiso   1.00
O61    O     0.23400   0.97470   0.19900   0.01267  Uiso   1.00
O62    O     0.23010   0.25670   0.90260   0.01267  Uiso   1.00
O63    O     0.02950   0.71560   0.26100   0.01267  Uiso   1.00
O64    O     0.73010   0.24330   0.40260   0.01267  Uiso   1.00
O65    O     0.63710   0.78550   0.47600   0.01267  Uiso   1.00
O66    O     0.52950   0.78440   0.76100   0.01267  Uiso   1.00
O67    O     0.23400   0.02530   0.80100   0.01267  Uiso   1.00
O68    O     0.52950   0.21560   0.23900   0.01267  Uiso   1.00
O69    O     0.36810   0.23640   0.23870   0.01267  Uiso   1.00
O70    O     0.39610   0.67860   0.22810   0.01267  Uiso   1.00
O71    O     0.75000   0.77370   0.72630   0.01267  Uiso   1.00
O72    O     0.83230   0.59600   0.32610   0.01267  Uiso   1.00
O73    O     0.84340   0.27420   0.39220   0.01267  Uiso   1.00
O74    O     0.26990   0.40260   0.75670   0.01267  Uiso   1.00
O75    O     0.26270   0.86730   0.21120   0.01267  Uiso   1.00
O76    O     0.76990   0.90260   0.74330   0.01267  Uiso   1.00
O77    O     0.36290   0.47600   0.21450   0.01267  Uiso   1.00
O78    O     0.15660   0.39220   0.72580   0.01267  Uiso   1.00
O79    O     0.65660   0.89220   0.77420   0.01267  Uiso   1.00
O80    O     0.34340   0.22580   0.89220   0.01267  Uiso   1.00
O81    O     0.44860   0.10520   0.17670   0.01267  Uiso   1.00
O82    O     0.66770   0.82610   0.09600   0.01267  Uiso   1.00
O83    O     0.82900   0.87350   0.30630   0.01267  Uiso   1.00
O84    O     0.47050   0.76100   0.21560   0.01267  Uiso   1.00
O85    O     0.55140   0.17670   0.89480   0.01267  Uiso   1.00
O86    O     0.36290   0.52400   0.78550   0.01267  Uiso   1.00
O87    O     0.13190   0.26130   0.26360   0.01267  Uiso   1.00
O88    O     0.86290   0.02400   0.71450   0.01267  Uiso   1.00
O89    O     0.32900   0.37350   0.19370   0.01267  Uiso   1.00
O90    O     0.75000   0.22630   0.27370   0.01267  Uiso   1.00
O91    O     0.10390   0.72810   0.17860   0.01267  Uiso   1.00
O92    O     0.29620   0.27660   0.31380   0.01267  Uiso   1.00
O93    O     0.13710   0.28550   0.02400   0.01267  Uiso   1.00
O94    O     0.05140   0.32330   0.39480   0.01267  Uiso   1.00
O95    O     0.94860   0.60520   0.32330   0.01267  Uiso   1.00
O96    O     0.23010   0.74330   0.09740   0.01267  Uiso   1.00
O97    O     0.73730   0.21120   0.13270   0.01267  Uiso   1.00
O98    O     0.97050   0.26100   0.28440   0.01267  Uiso   1.00
O99    O     0.76990   0.09740   0.25670   0.01267  Uiso   1.00
O100   O     0.13710   0.71450   0.97600   0.01267  Uiso   1.00
