data_cg4012185_si_002_clean
_audit_creation_date              2015-08-19
_audit_creation_method            'Materials Studio'
_symmetry_space_group_name_H-M    'P1'
_symmetry_Int_Tables_number       1
_symmetry_cell_setting            triclinic
loop_
_symmetry_equiv_pos_as_xyz
  x,y,z
_cell_length_a                    13.0832
_cell_length_b                    13.0832
_cell_length_c                    16.1383
_cell_angle_alpha                 92.3915
_cell_angle_beta                  92.3915
_cell_angle_gamma                 97.3506
loop_
_atom_site_label
_atom_site_type_symbol
_atom_site_fract_x
_atom_site_fract_y
_atom_site_fract_z
_atom_site_U_iso_or_equiv
_atom_site_adp_type
_atom_site_occupancy
Zn1    Zn    0.67920   0.67920   0.87164   0.01267  Uiso   1.00
Zn2    Zn    0.64390   0.64390   0.69080   0.01267  Uiso   1.00
H1     H     0.69660   0.19080   0.94360   0.01267  Uiso   1.00
H2     H     0.57870   0.54930   0.14250   0.01267  Uiso   1.00
H3     H     0.69140   0.01180   0.88190   0.01267  Uiso   1.00
H4     H     0.13220   0.63160   0.61790   0.01267  Uiso   1.00
H5     H     0.76370   0.68290   0.27990   0.01267  Uiso   1.00
H6     H     0.31140   0.63560   0.67970   0.01267  Uiso   1.00
H7     H     0.64280   0.56200   0.28400   0.01267  Uiso   1.00
H8     H     0.19080   0.69660   0.94360   0.01267  Uiso   1.00
H9     H     0.78200   0.71700   0.55820   0.01267  Uiso   1.00
H10    H     0.55110   0.63170   0.28520   0.01267  Uiso   1.00
H11    H     0.84570   0.71570   0.15830   0.01267  Uiso   1.00
H12    H     0.68290   0.76370   0.27990   0.01267  Uiso   1.00
H13    H     0.54930   0.57870   0.14250   0.01267  Uiso   1.00
H14    H     0.70440   0.50400   0.55240   0.01267  Uiso   1.00
H15    H     0.71700   0.78200   0.55820   0.01267  Uiso   1.00
H16    H     0.63160   0.13220   0.61790   0.01267  Uiso   1.00
H17    H     0.56050   0.76050   0.55200   0.01267  Uiso   1.00
H18    H     0.81190   0.78090   0.16520   0.01267  Uiso   1.00
H19    H     0.49400   0.55880   0.54660   0.01267  Uiso   1.00
H20    H     0.69970   0.49770   0.40700   0.01267  Uiso   1.00
H21    H     0.63560   0.31140   0.67970   0.01267  Uiso   1.00
H22    H     0.78020   0.71460   0.41310   0.01267  Uiso   1.00
H23    H     0.83920   0.71040   0.01300   0.01267  Uiso   1.00
H24    H     0.55880   0.49400   0.54660   0.01267  Uiso   1.00
H25    H     0.65550   0.52710   0.00990   0.01267  Uiso   1.00
H26    H     0.36290   0.68450   0.92750   0.01267  Uiso   1.00
H27    H     0.71570   0.84570   0.15830   0.01267  Uiso   1.00
H28    H     0.01180   0.69140   0.88190   0.01267  Uiso   1.00
H29    H     0.64070   0.95950   0.63520   0.01267  Uiso   1.00
H30    H     0.55640   0.49220   0.40150   0.01267  Uiso   1.00
H31    H     0.53360   0.66080   0.15510   0.01267  Uiso   1.00
H32    H     0.55290   0.58290   0.99780   0.01267  Uiso   1.00
H33    H     0.50400   0.70440   0.55240   0.01267  Uiso   1.00
H34    H     0.66640   0.74640   0.27660   0.01267  Uiso   1.00
H35    H     0.63170   0.55110   0.28520   0.01267  Uiso   1.00
H36    H     0.71040   0.83920   0.01300   0.01267  Uiso   1.00
H37    H     0.49220   0.55640   0.40150   0.01267  Uiso   1.00
H38    H     0.78500   0.81560   0.02050   0.01267  Uiso   1.00
H39    H     0.71460   0.78020   0.41310   0.01267  Uiso   1.00
H40    H     0.58290   0.55290   0.99780   0.01267  Uiso   1.00
H41    H     0.55580   0.75420   0.40690   0.01267  Uiso   1.00
H42    H     0.49770   0.69970   0.40700   0.01267  Uiso   1.00
H43    H     0.68450   0.36290   0.92750   0.01267  Uiso   1.00
H44    H     0.76050   0.56050   0.55200   0.01267  Uiso   1.00
H45    H     0.52710   0.65550   0.00990   0.01267  Uiso   1.00
H46    H     0.74640   0.66640   0.27660   0.01267  Uiso   1.00
H47    H     0.66080   0.53360   0.15510   0.01267  Uiso   1.00
H48    H     0.95950   0.64070   0.63520   0.01267  Uiso   1.00
H49    H     0.56200   0.64280   0.28400   0.01267  Uiso   1.00
H50    H     0.75420   0.55580   0.40690   0.01267  Uiso   1.00
H51    H     0.78090   0.81190   0.16520   0.01267  Uiso   1.00
H52    H     0.81560   0.78500   0.02050   0.01267  Uiso   1.00
C1     C     0.70390   0.78110   0.12810   0.01267  Uiso   1.00
C2     C     0.67520   0.67520   0.25800   0.01267  Uiso   1.00
C3     C     0.77720   0.70040   0.04180   0.01267  Uiso   1.00
C4     C     0.55210   0.59050   0.51950   0.01267  Uiso   1.00
C5     C     0.55100   0.58920   0.43330   0.01267  Uiso   1.00
C6     C     0.67130   0.55090   0.43660   0.01267  Uiso   1.00
C7     C     0.10870   0.64290   0.67200   0.01267  Uiso   1.00
C8     C     0.75920   0.74080   0.13120   0.01267  Uiso   1.00
C9     C     0.66590   0.96970   0.76090   0.01267  Uiso   1.00
C10    C     0.14300   0.67220   0.82090   0.01267  Uiso   1.00
C11    C     0.68310   0.72210   0.44020   0.01267  Uiso   1.00
C12    C     0.63570   0.63570   0.39360   0.01267  Uiso   1.00
C13    C     0.64290   0.10870   0.67200   0.01267  Uiso   1.00
C14    C     0.65830   0.35270   0.80070   0.01267  Uiso   1.00
C15    C     0.00640   0.64860   0.68230   0.01267  Uiso   1.00
C16    C     0.96970   0.66590   0.76090   0.01267  Uiso   1.00
C17    C     0.59050   0.55210   0.51950   0.01267  Uiso   1.00
C18    C     0.67680   0.31620   0.88030   0.01267  Uiso   1.00
C19    C     0.74080   0.75920   0.13120   0.01267  Uiso   1.00
C20    C     0.67423   0.55477   0.52280   0.01267  Uiso   1.00
C21    C     0.66780   0.59180   0.04000   0.01267  Uiso   1.00
C22    C     0.70320   0.58580   0.43630   0.01267  Uiso   1.00
C23    C     0.65360   0.17960   0.74120   0.01267  Uiso   1.00
C24    C     0.76140   0.74320   0.04530   0.01267  Uiso   1.00
C25    C     0.60540   0.62320   0.03180   0.01267  Uiso   1.00
C26    C     0.55090   0.67130   0.43660   0.01267  Uiso   1.00
C27    C     0.72320   0.68440   0.52640   0.01267  Uiso   1.00
C28    C     0.63310   0.63310   0.30250   0.01267  Uiso   1.00
C29    C     0.67830   0.03690   0.82860   0.01267  Uiso   1.00
C30    C     0.62320   0.60540   0.03180   0.01267  Uiso   1.00
C31    C     0.59560   0.67120   0.12630   0.01267  Uiso   1.00
C32    C     0.78110   0.70390   0.12810   0.01267  Uiso   1.00
C33    C     0.55477   0.67423   0.52280   0.01267  Uiso   1.00
C34    C     0.60320   0.62080   0.11770   0.01267  Uiso   1.00
C35    C     0.70040   0.77720   0.04180   0.01267  Uiso   1.00
C36    C     0.62080   0.60320   0.11770   0.01267  Uiso   1.00
C37    C     0.68370   0.21430   0.88970   0.01267  Uiso   1.00
C38    C     0.66900   0.85720   0.77120   0.01267  Uiso   1.00
C39    C     0.35270   0.65830   0.80070   0.01267  Uiso   1.00
C40    C     0.58580   0.70320   0.43630   0.01267  Uiso   1.00
C41    C     0.69260   0.69260   0.26150   0.01267  Uiso   1.00
C42    C     0.67990   0.67990   0.16740   0.01267  Uiso   1.00
C43    C     0.65401   0.46599   0.79080   0.01267  Uiso   1.00
C44    C     0.68440   0.72320   0.52640   0.01267  Uiso   1.00
C45    C     0.03690   0.67830   0.82860   0.01267  Uiso   1.00
C46    C     0.67120   0.59560   0.12630   0.01267  Uiso   1.00
C47    C     0.64750   0.28610   0.73310   0.01267  Uiso   1.00
C48    C     0.31620   0.67680   0.88030   0.01267  Uiso   1.00
C49    C     0.17960   0.65360   0.74120   0.01267  Uiso   1.00
C50    C     0.70711   0.58869   0.52260   0.01267  Uiso   1.00
C51    C     0.58920   0.55100   0.43330   0.01267  Uiso   1.00
C52    C     0.28610   0.64750   0.73310   0.01267  Uiso   1.00
C53    C     0.74320   0.76140   0.04530   0.01267  Uiso   1.00
C54    C     0.85720   0.66900   0.77120   0.01267  Uiso   1.00
C55    C     0.21430   0.68370   0.88970   0.01267  Uiso   1.00
C56    C     0.46599   0.65401   0.79080   0.01267  Uiso   1.00
C57    C     0.64860   0.00640   0.68230   0.01267  Uiso   1.00
C58    C     0.67220   0.14300   0.82090   0.01267  Uiso   1.00
C59    C     0.62300   0.62300   0.30210   0.01267  Uiso   1.00
C60    C     0.68980   0.68980   0.17040   0.01267  Uiso   1.00
C61    C     0.59180   0.66780   0.04000   0.01267  Uiso   1.00
C62    C     0.58869   0.70711   0.52260   0.01267  Uiso   1.00
C63    C     0.72210   0.68310   0.44020   0.01267  Uiso   1.00
C64    C     0.62610   0.62610   0.39330   0.01267  Uiso   1.00
N1     N     0.63820   0.63820   0.56600   0.01267  Uiso   1.00
N2     N     0.68250   0.68250   0.99780   0.01267  Uiso   1.00
N3     N     0.63290   0.63290   0.56590   0.01267  Uiso   1.00
N4     N     0.68440   0.68440   0.99550   0.01267  Uiso   1.00
O1     O     0.49467   0.63893   0.71940   0.01267  Uiso   1.00
O2     O     0.66586   0.52274   0.85487   0.01267  Uiso   1.00
O3     O     0.79960   0.65560   0.70680   0.01267  Uiso   1.00
O4     O     0.63893   0.49467   0.71940   0.01267  Uiso   1.00
O5     O     0.82791   0.68369   0.84218   0.01267  Uiso   1.00
O6     O     0.52274   0.66586   0.85487   0.01267  Uiso   1.00
O7     O     0.68369   0.82791   0.84218   0.01267  Uiso   1.00
O8     O     0.65560   0.79960   0.70680   0.01267  Uiso   1.00
Zn3    Zn    0.32080   0.32080   0.12836   0.01267  Uiso   1.00
Zn4    Zn    0.35610   0.35610   0.30920   0.01267  Uiso   1.00
H53    H     0.21910   0.18810   0.83480   0.01267  Uiso   1.00
H54    H     0.98820   0.30860   0.11810   0.01267  Uiso   1.00
H55    H     0.44120   0.50600   0.45340   0.01267  Uiso   1.00
H56    H     0.21980   0.28540   0.58690   0.01267  Uiso   1.00
H57    H     0.33920   0.46640   0.84490   0.01267  Uiso   1.00
H58    H     0.28960   0.16080   0.98700   0.01267  Uiso   1.00
H59    H     0.86780   0.36840   0.38210   0.01267  Uiso   1.00
H60    H     0.43800   0.35720   0.71600   0.01267  Uiso   1.00
H61    H     0.15430   0.28430   0.84170   0.01267  Uiso   1.00
H62    H     0.28540   0.21980   0.58690   0.01267  Uiso   1.00
H63    H     0.44710   0.41710   0.00220   0.01267  Uiso   1.00
H64    H     0.21800   0.28300   0.44180   0.01267  Uiso   1.00
H65    H     0.47290   0.34450   0.99010   0.01267  Uiso   1.00
H66    H     0.80920   0.30340   0.05640   0.01267  Uiso   1.00
H67    H     0.43950   0.23950   0.44800   0.01267  Uiso   1.00
H68    H     0.31550   0.63710   0.07250   0.01267  Uiso   1.00
H69    H     0.28430   0.15430   0.84170   0.01267  Uiso   1.00
H70    H     0.44890   0.36830   0.71480   0.01267  Uiso   1.00
H71    H     0.30860   0.98820   0.11810   0.01267  Uiso   1.00
H72    H     0.49600   0.29560   0.44760   0.01267  Uiso   1.00
H73    H     0.63710   0.31550   0.07250   0.01267  Uiso   1.00
H74    H     0.23950   0.43950   0.44800   0.01267  Uiso   1.00
H75    H     0.36840   0.86780   0.38210   0.01267  Uiso   1.00
H76    H     0.16080   0.28960   0.98700   0.01267  Uiso   1.00
H77    H     0.44420   0.24580   0.59310   0.01267  Uiso   1.00
H78    H     0.29560   0.49600   0.44760   0.01267  Uiso   1.00
H79    H     0.42130   0.45070   0.85750   0.01267  Uiso   1.00
H80    H     0.68860   0.36440   0.32030   0.01267  Uiso   1.00
H81    H     0.25360   0.33360   0.72340   0.01267  Uiso   1.00
H82    H     0.50780   0.44360   0.59850   0.01267  Uiso   1.00
H83    H     0.31710   0.23630   0.72010   0.01267  Uiso   1.00
H84    H     0.45070   0.42130   0.85750   0.01267  Uiso   1.00
H85    H     0.34450   0.47290   0.99010   0.01267  Uiso   1.00
H86    H     0.36440   0.68860   0.32030   0.01267  Uiso   1.00
H87    H     0.23630   0.31710   0.72010   0.01267  Uiso   1.00
H88    H     0.41710   0.44710   0.00220   0.01267  Uiso   1.00
H89    H     0.04050   0.35930   0.36480   0.01267  Uiso   1.00
H90    H     0.18810   0.21910   0.83480   0.01267  Uiso   1.00
H91    H     0.30340   0.80920   0.05640   0.01267  Uiso   1.00
H92    H     0.44360   0.50780   0.59850   0.01267  Uiso   1.00
H93    H     0.36830   0.44890   0.71480   0.01267  Uiso   1.00
H94    H     0.18440   0.21500   0.97950   0.01267  Uiso   1.00
H95    H     0.28300   0.21800   0.44180   0.01267  Uiso   1.00
H96    H     0.35930   0.04050   0.36480   0.01267  Uiso   1.00
H97    H     0.46640   0.33920   0.84490   0.01267  Uiso   1.00
H98    H     0.35720   0.43800   0.71600   0.01267  Uiso   1.00
H99    H     0.50600   0.44120   0.45340   0.01267  Uiso   1.00
H100   H     0.24580   0.44420   0.59310   0.01267  Uiso   1.00
H101   H     0.50230   0.30030   0.59300   0.01267  Uiso   1.00
H102   H     0.21500   0.18440   0.97950   0.01267  Uiso   1.00
H103   H     0.33360   0.25360   0.72340   0.01267  Uiso   1.00
H104   H     0.30030   0.50230   0.59300   0.01267  Uiso   1.00
C65    C     0.40440   0.32880   0.87370   0.01267  Uiso   1.00
C66    C     0.31630   0.78570   0.11030   0.01267  Uiso   1.00
C67    C     0.41080   0.44900   0.56670   0.01267  Uiso   1.00
C68    C     0.27680   0.31560   0.47360   0.01267  Uiso   1.00
C69    C     0.82040   0.34640   0.25880   0.01267  Uiso   1.00
C70    C     0.53401   0.34599   0.20920   0.01267  Uiso   1.00
C71    C     0.41420   0.29680   0.56370   0.01267  Uiso   1.00
C72    C     0.03030   0.33410   0.23910   0.01267  Uiso   1.00
C73    C     0.85700   0.32780   0.17910   0.01267  Uiso   1.00
C74    C     0.34640   0.82040   0.25880   0.01267  Uiso   1.00
C75    C     0.29680   0.41420   0.56370   0.01267  Uiso   1.00
C76    C     0.27790   0.31690   0.55980   0.01267  Uiso   1.00
C77    C     0.44900   0.41080   0.56670   0.01267  Uiso   1.00
C78    C     0.25920   0.24080   0.86880   0.01267  Uiso   1.00
C79    C     0.29610   0.21890   0.87190   0.01267  Uiso   1.00
C80    C     0.40950   0.44790   0.48050   0.01267  Uiso   1.00
C81    C     0.40820   0.33220   0.96000   0.01267  Uiso   1.00
C82    C     0.37920   0.39680   0.88230   0.01267  Uiso   1.00
C83    C     0.32480   0.32480   0.74200   0.01267  Uiso   1.00
C84    C     0.32880   0.40440   0.87370   0.01267  Uiso   1.00
C85    C     0.33100   0.14280   0.22880   0.01267  Uiso   1.00
C86    C     0.14280   0.33100   0.22880   0.01267  Uiso   1.00
C87    C     0.71390   0.35250   0.26690   0.01267  Uiso   1.00
C88    C     0.89130   0.35710   0.32800   0.01267  Uiso   1.00
C89    C     0.23860   0.25680   0.95470   0.01267  Uiso   1.00
C90    C     0.68380   0.32320   0.11970   0.01267  Uiso   1.00
C91    C     0.37680   0.39460   0.96820   0.01267  Uiso   1.00
C92    C     0.35710   0.89130   0.32800   0.01267  Uiso   1.00
C93    C     0.64730   0.34170   0.19930   0.01267  Uiso   1.00
C94    C     0.33410   0.03030   0.23910   0.01267  Uiso   1.00
C95    C     0.39680   0.37920   0.88230   0.01267  Uiso   1.00
C96    C     0.32870   0.44910   0.56340   0.01267  Uiso   1.00
C97    C     0.44790   0.40950   0.48050   0.01267  Uiso   1.00
C98    C     0.35140   0.99360   0.31770   0.01267  Uiso   1.00
C99    C     0.32577   0.44523   0.47720   0.01267  Uiso   1.00
C100   C     0.99360   0.35140   0.31770   0.01267  Uiso   1.00
C101   C     0.96310   0.32170   0.17140   0.01267  Uiso   1.00
C102   C     0.78570   0.31630   0.11030   0.01267  Uiso   1.00
C103   C     0.36690   0.36690   0.69750   0.01267  Uiso   1.00
C104   C     0.22280   0.29960   0.95820   0.01267  Uiso   1.00
C105   C     0.37390   0.37390   0.60670   0.01267  Uiso   1.00
C106   C     0.44910   0.32870   0.56340   0.01267  Uiso   1.00
C107   C     0.32780   0.85700   0.17910   0.01267  Uiso   1.00
C108   C     0.44523   0.32577   0.47720   0.01267  Uiso   1.00
C109   C     0.41131   0.29289   0.47740   0.01267  Uiso   1.00
C110   C     0.31560   0.27680   0.47360   0.01267  Uiso   1.00
C111   C     0.34170   0.64730   0.19930   0.01267  Uiso   1.00
C112   C     0.32010   0.32010   0.83260   0.01267  Uiso   1.00
C113   C     0.30740   0.30740   0.73850   0.01267  Uiso   1.00
C114   C     0.29289   0.41131   0.47740   0.01267  Uiso   1.00
C115   C     0.31690   0.27790   0.55980   0.01267  Uiso   1.00
C116   C     0.25680   0.23860   0.95470   0.01267  Uiso   1.00
C117   C     0.32170   0.96310   0.17140   0.01267  Uiso   1.00
C118   C     0.36430   0.36430   0.60640   0.01267  Uiso   1.00
C119   C     0.32320   0.68380   0.11970   0.01267  Uiso   1.00
C120   C     0.37700   0.37700   0.69790   0.01267  Uiso   1.00
C121   C     0.31020   0.31020   0.82960   0.01267  Uiso   1.00
C122   C     0.39460   0.37680   0.96820   0.01267  Uiso   1.00
C123   C     0.24080   0.25920   0.86880   0.01267  Uiso   1.00
C124   C     0.33220   0.40820   0.96000   0.01267  Uiso   1.00
C125   C     0.21890   0.29610   0.87190   0.01267  Uiso   1.00
C126   C     0.29960   0.22280   0.95820   0.01267  Uiso   1.00
C127   C     0.34599   0.53401   0.20920   0.01267  Uiso   1.00
C128   C     0.35250   0.71390   0.26690   0.01267  Uiso   1.00
N5     N     0.36180   0.36180   0.43400   0.01267  Uiso   1.00
N6     N     0.31560   0.31560   0.00450   0.01267  Uiso   1.00
N7     N     0.36710   0.36710   0.43410   0.01267  Uiso   1.00
N8     N     0.31750   0.31750   0.00220   0.01267  Uiso   1.00
O9     O     0.50533   0.36107   0.28060   0.01267  Uiso   1.00
O10    O     0.17209   0.31631   0.15782   0.01267  Uiso   1.00
O11    O     0.31631   0.17209   0.15782   0.01267  Uiso   1.00
O12    O     0.20040   0.34440   0.29320   0.01267  Uiso   1.00
O13    O     0.47726   0.33414   0.14513   0.01267  Uiso   1.00
O14    O     0.33414   0.47726   0.14513   0.01267  Uiso   1.00
O15    O     0.34440   0.20040   0.29320   0.01267  Uiso   1.00
O16    O     0.36107   0.50533   0.28060   0.01267  Uiso   1.00
