data_cg501141m_si_003_clean
_audit_creation_date              2015-08-19
_audit_creation_method            'Materials Studio'
_symmetry_space_group_name_H-M    'P1'
_symmetry_Int_Tables_number       1
_symmetry_cell_setting            triclinic
loop_
_symmetry_equiv_pos_as_xyz
  x,y,z
_cell_length_a                    12.9022
_cell_length_b                    20.0587
_cell_length_c                    20.0587
_cell_angle_alpha                 101.7080
_cell_angle_beta                  107.8490
_cell_angle_gamma                 72.1510
loop_
_atom_site_label
_atom_site_type_symbol
_atom_site_fract_x
_atom_site_fract_y
_atom_site_fract_z
_atom_site_U_iso_or_equiv
_atom_site_adp_type
_atom_site_occupancy
Co1    Co    0.67120   0.70851   0.29149   0.01267  Uiso   1.00
Co2    Co    0.92700   0.72608   0.27392   0.01267  Uiso   1.00
Co3    Co    0.43563   0.30914   0.18268   0.01267  Uiso   1.00
Co4    Co    0.07300   0.27392   0.72608   0.01267  Uiso   1.00
Co5    Co    0.00000   0.00000   0.00000   0.01267  Uiso   1.00
Co6    Co    0.56437   0.69086   0.81732   0.01267  Uiso   1.00
Co7    Co    0.32880   0.29149   0.70851   0.01267  Uiso   1.00
Co8    Co    0.56437   0.18268   0.30914   0.01267  Uiso   1.00
Co9    Co    0.43563   0.81732   0.69086   0.01267  Uiso   1.00
H1     H     0.97280   0.84870   0.97250   0.01267  Uiso   1.00
H2     H     0.54470   0.51410   0.33690   0.01267  Uiso   1.00
H3     H     0.33570   0.83060   0.53340   0.01267  Uiso   1.00
H4     H     0.77870   0.06350   0.32270   0.01267  Uiso   1.00
H5     H     0.57350   0.65430   0.37410   0.01267  Uiso   1.00
H6     H     0.22130   0.93650   0.67730   0.01267  Uiso   1.00
H7     H     0.56820   0.82320   0.39820   0.01267  Uiso   1.00
H8     H     0.19950   0.56290   0.19930   0.01267  Uiso   1.00
H9     H     0.53380   0.67620   0.05920   0.01267  Uiso   1.00
H10    H     0.23160   0.75520   0.65800   0.01267  Uiso   1.00
H11    H     0.22770   0.79160   0.20840   0.01267  Uiso   1.00
H12    H     0.76960   0.11510   0.98550   0.01267  Uiso   1.00
H13    H     0.76960   0.01450   0.88490   0.01267  Uiso   1.00
H14    H     0.77230   0.20840   0.79160   0.01267  Uiso   1.00
H15    H     0.16170   0.05780   0.68540   0.01267  Uiso   1.00
H16    H     0.35610   0.81980   0.95160   0.01267  Uiso   1.00
H17    H     0.15230   0.16870   0.83130   0.01267  Uiso   1.00
H18    H     0.46620   0.05920   0.67620   0.01267  Uiso   1.00
H19    H     0.66430   0.16940   0.46660   0.01267  Uiso   1.00
H20    H     0.02720   0.97250   0.84870   0.01267  Uiso   1.00
H21    H     0.45530   0.48590   0.66310   0.01267  Uiso   1.00
H22    H     0.90960   0.27420   0.43380   0.01267  Uiso   1.00
H23    H     0.51910   0.32870   0.06190   0.01267  Uiso   1.00
H24    H     0.64390   0.18020   0.04840   0.01267  Uiso   1.00
H25    H     0.16170   0.31460   0.94220   0.01267  Uiso   1.00
H26    H     0.97280   0.02750   0.15130   0.01267  Uiso   1.00
H27    H     0.84950   0.26240   0.73760   0.01267  Uiso   1.00
H28    H     0.48090   0.06190   0.32870   0.01267  Uiso   1.00
H29    H     0.80050   0.43710   0.80070   0.01267  Uiso   1.00
H30    H     0.19950   0.80070   0.43710   0.01267  Uiso   1.00
H31    H     0.64390   0.95160   0.81980   0.01267  Uiso   1.00
H32    H     0.20530   0.34980   0.55980   0.01267  Uiso   1.00
H33    H     0.23860   0.54830   0.65790   0.01267  Uiso   1.00
H34    H     0.43180   0.39820   0.82320   0.01267  Uiso   1.00
H35    H     0.76140   0.65790   0.54830   0.01267  Uiso   1.00
H36    H     0.15080   0.91130   0.78150   0.01267  Uiso   1.00
H37    H     0.70900   0.80880   0.54960   0.01267  Uiso   1.00
H38    H     0.33570   0.46660   0.16940   0.01267  Uiso   1.00
H39    H     0.48310   0.50070   0.83330   0.01267  Uiso   1.00
H40    H     0.15050   0.73760   0.26240   0.01267  Uiso   1.00
H41    H     0.29100   0.54960   0.80880   0.01267  Uiso   1.00
H42    H     0.48090   0.67130   0.93810   0.01267  Uiso   1.00
H43    H     0.20530   0.44020   0.65020   0.01267  Uiso   1.00
H44    H     0.66430   0.53340   0.83060   0.01267  Uiso   1.00
H45    H     0.48310   0.16670   0.49930   0.01267  Uiso   1.00
H46    H     0.54470   0.66310   0.48590   0.01267  Uiso   1.00
H47    H     0.22130   0.32270   0.06350   0.01267  Uiso   1.00
H48    H     0.42650   0.37410   0.65430   0.01267  Uiso   1.00
H49    H     0.51910   0.93810   0.67130   0.01267  Uiso   1.00
H50    H     0.84920   0.08870   0.21850   0.01267  Uiso   1.00
H51    H     0.09040   0.72580   0.56620   0.01267  Uiso   1.00
H52    H     0.08650   0.10920   0.89080   0.01267  Uiso   1.00
H53    H     0.57350   0.62590   0.34570   0.01267  Uiso   1.00
H54    H     0.25780   0.44470   0.79350   0.01267  Uiso   1.00
H55    H     0.51690   0.49930   0.16670   0.01267  Uiso   1.00
H56    H     0.56820   0.60180   0.17680   0.01267  Uiso   1.00
H57    H     0.15080   0.21850   0.08870   0.01267  Uiso   1.00
H58    H     0.23860   0.34210   0.45170   0.01267  Uiso   1.00
H59    H     0.77870   0.67730   0.93650   0.01267  Uiso   1.00
H60    H     0.45530   0.33690   0.51410   0.01267  Uiso   1.00
H61    H     0.46620   0.32380   0.94080   0.01267  Uiso   1.00
H62    H     0.29100   0.19120   0.45040   0.01267  Uiso   1.00
H63    H     0.79470   0.55980   0.34980   0.01267  Uiso   1.00
H64    H     0.79470   0.65020   0.44020   0.01267  Uiso   1.00
H65    H     0.74220   0.79350   0.44470   0.01267  Uiso   1.00
H66    H     0.25780   0.20650   0.55530   0.01267  Uiso   1.00
H67    H     0.35610   0.04840   0.18020   0.01267  Uiso   1.00
H68    H     0.76840   0.24480   0.34200   0.01267  Uiso   1.00
H69    H     0.76140   0.45170   0.34210   0.01267  Uiso   1.00
H70    H     0.23040   0.98550   0.11510   0.01267  Uiso   1.00
H71    H     0.83830   0.68540   0.05780   0.01267  Uiso   1.00
H72    H     0.84920   0.78150   0.91130   0.01267  Uiso   1.00
H73    H     0.42650   0.34570   0.62590   0.01267  Uiso   1.00
H74    H     0.23040   0.88490   0.01450   0.01267  Uiso   1.00
H75    H     0.53380   0.94080   0.32380   0.01267  Uiso   1.00
H76    H     0.70900   0.45040   0.19120   0.01267  Uiso   1.00
H77    H     0.09040   0.43380   0.27420   0.01267  Uiso   1.00
H78    H     0.43180   0.17680   0.60180   0.01267  Uiso   1.00
H79    H     0.74220   0.55530   0.20650   0.01267  Uiso   1.00
H80    H     0.76840   0.65800   0.75520   0.01267  Uiso   1.00
H81    H     0.51690   0.83330   0.50070   0.01267  Uiso   1.00
H82    H     0.91350   0.89080   0.10920   0.01267  Uiso   1.00
H83    H     0.84770   0.83130   0.16870   0.01267  Uiso   1.00
H84    H     0.23160   0.34200   0.24480   0.01267  Uiso   1.00
H85    H     0.83830   0.94220   0.31460   0.01267  Uiso   1.00
H86    H     0.80050   0.19930   0.56290   0.01267  Uiso   1.00
H87    H     0.90960   0.56620   0.72580   0.01267  Uiso   1.00
H88    H     0.02720   0.15130   0.02750   0.01267  Uiso   1.00
C1     C     0.78580   0.10940   0.03280   0.01267  Uiso   1.00
C2     C     0.72670   0.69570   0.15270   0.01267  Uiso   1.00
C3     C     0.42950   0.48830   0.79350   0.01267  Uiso   1.00
C4     C     0.79580   0.48160   0.79120   0.01267  Uiso   1.00
C5     C     0.71330   0.53950   0.80810   0.01267  Uiso   1.00
C6     C     0.55360   0.67440   0.96260   0.01267  Uiso   1.00
C7     C     0.44640   0.32560   0.03740   0.01267  Uiso   1.00
C8     C     0.27190   0.96150   0.67830   0.01267  Uiso   1.00
C9     C     0.30100   0.45120   0.76660   0.01267  Uiso   1.00
C10    C     0.90490   0.05770   0.13010   0.01267  Uiso   1.00
C11    C     0.72810   0.03850   0.32170   0.01267  Uiso   1.00
C12    C     0.57050   0.51170   0.20650   0.01267  Uiso   1.00
C13    C     0.41600   0.30820   0.52220   0.01267  Uiso   1.00
C14    C     0.96340   0.42910   0.74010   0.01267  Uiso   1.00
C15    C     0.27190   0.32170   0.03850   0.01267  Uiso   1.00
C16    C     0.40300   0.42490   0.78550   0.01267  Uiso   1.00
C17    C     0.09510   0.94230   0.86990   0.01267  Uiso   1.00
C18    C     0.73200   0.68410   0.45030   0.01267  Uiso   1.00
C19    C     0.58400   0.52220   0.30820   0.01267  Uiso   1.00
C20    C     0.70950   0.92970   0.85130   0.01267  Uiso   1.00
C21    C     0.39700   0.31500   0.58900   0.01267  Uiso   1.00
C22    C     0.92510   0.82350   0.17650   0.01267  Uiso   1.00
C23    C     0.41600   0.47780   0.69180   0.01267  Uiso   1.00
C24    C     0.71330   0.19190   0.46050   0.01267  Uiso   1.00
C25    C     0.71400   0.68920   0.51640   0.01267  Uiso   1.00
C26    C     0.64600   0.18210   0.18210   0.01267  Uiso   1.00
C27    C     0.92190   0.15130   0.84870   0.01267  Uiso   1.00
C28    C     0.22540   0.76420   0.61300   0.01267  Uiso   1.00
C29    C     0.28670   0.80810   0.53950   0.01267  Uiso   1.00
C30    C     0.40300   0.21450   0.57510   0.01267  Uiso   1.00
C31    C     0.26800   0.31590   0.54970   0.01267  Uiso   1.00
C32    C     0.40610   0.60010   0.74490   0.01267  Uiso   1.00
C33    C     0.03660   0.74010   0.42910   0.01267  Uiso   1.00
C34    C     0.69120   0.92760   0.31500   0.01267  Uiso   1.00
C35    C     0.72810   0.67830   0.96150   0.01267  Uiso   1.00
C36    C     0.72670   0.84730   0.30430   0.01267  Uiso   1.00
C37    C     0.07810   0.84870   0.15130   0.01267  Uiso   1.00
C38    C     0.35400   0.18210   0.18210   0.01267  Uiso   1.00
C39    C     0.30880   0.31500   0.92760   0.01267  Uiso   1.00
C40    C     0.32000   0.51560   0.77540   0.01267  Uiso   1.00
C41    C     0.29050   0.85130   0.92970   0.01267  Uiso   1.00
C42    C     0.40610   0.25510   0.39990   0.01267  Uiso   1.00
C43    C     0.86000   0.55790   0.74650   0.01267  Uiso   1.00
C44    C     0.35400   0.81790   0.81790   0.01267  Uiso   1.00
C45    C     0.14000   0.74650   0.55790   0.01267  Uiso   1.00
C46    C     0.83110   0.09490   0.17110   0.01267  Uiso   1.00
C47    C     0.10200   0.76900   0.23100   0.01267  Uiso   1.00
C48    C     0.64600   0.81790   0.81790   0.01267  Uiso   1.00
C49    C     0.59700   0.57510   0.21450   0.01267  Uiso   1.00
C50    C     0.27330   0.15270   0.69570   0.01267  Uiso   1.00
C51    C     0.58420   0.96460   0.32180   0.01267  Uiso   1.00
C52    C     0.03570   0.14030   0.85970   0.01267  Uiso   1.00
C53    C     0.32000   0.22460   0.48440   0.01267  Uiso   1.00
C54    C     0.21420   0.89060   0.96720   0.01267  Uiso   1.00
C55    C     0.68000   0.48440   0.22460   0.01267  Uiso   1.00
C56    C     0.69900   0.76660   0.45120   0.01267  Uiso   1.00
C57    C     0.12630   0.88590   0.11410   0.01267  Uiso   1.00
C58    C     0.23530   0.31670   0.96530   0.01267  Uiso   1.00
C59    C     0.96340   0.25990   0.57090   0.01267  Uiso   1.00
C60    C     0.26900   0.85890   0.85870   0.01267  Uiso   1.00
C61    C     0.73100   0.85870   0.85890   0.01267  Uiso   1.00
C62    C     0.69120   0.68500   0.07240   0.01267  Uiso   1.00
C63    C     0.26900   0.14130   0.14110   0.01267  Uiso   1.00
C64    C     0.73100   0.14110   0.14130   0.01267  Uiso   1.00
C65    C     0.85000   0.19890   0.80110   0.01267  Uiso   1.00
C66    C     0.28600   0.31080   0.48360   0.01267  Uiso   1.00
C67    C     0.87370   0.11410   0.88590   0.01267  Uiso   1.00
C68    C     0.12770   0.50910   0.24050   0.01267  Uiso   1.00
C69    C     0.68000   0.77540   0.51560   0.01267  Uiso   1.00
C70    C     0.37530   0.25870   0.46630   0.01267  Uiso   1.00
C71    C     0.60300   0.58900   0.31500   0.01267  Uiso   1.00
C72    C     0.09510   0.13010   0.05770   0.01267  Uiso   1.00
C73    C     0.59700   0.78550   0.42490   0.01267  Uiso   1.00
C74    C     0.07490   0.17650   0.82350   0.01267  Uiso   1.00
C75    C     0.14000   0.44210   0.25350   0.01267  Uiso   1.00
C76    C     0.58400   0.69180   0.47780   0.01267  Uiso   1.00
C77    C     0.30100   0.23340   0.54880   0.01267  Uiso   1.00
C78    C     0.78580   0.96720   0.89060   0.01267  Uiso   1.00
C79    C     0.96430   0.85970   0.14030   0.01267  Uiso   1.00
C80    C     0.22540   0.38700   0.23580   0.01267  Uiso   1.00
C81    C     0.20420   0.79120   0.48160   0.01267  Uiso   1.00
C82    C     0.03660   0.57090   0.25990   0.01267  Uiso   1.00
C83    C     0.62470   0.74130   0.53370   0.01267  Uiso   1.00
C84    C     0.20420   0.51840   0.20880   0.01267  Uiso   1.00
C85    C     0.60300   0.68500   0.41100   0.01267  Uiso   1.00
C86    C     0.44640   0.96260   0.67440   0.01267  Uiso   1.00
C87    C     0.41580   0.03540   0.67820   0.01267  Uiso   1.00
C88    C     0.70950   0.14870   0.07030   0.01267  Uiso   1.00
C89    C     0.86000   0.25350   0.44210   0.01267  Uiso   1.00
C90    C     0.73200   0.54970   0.31590   0.01267  Uiso   1.00
C91    C     0.12770   0.75950   0.49090   0.01267  Uiso   1.00
C92    C     0.23530   0.03470   0.68330   0.01267  Uiso   1.00
C93    C     0.76470   0.68330   0.03470   0.01267  Uiso   1.00
C94    C     0.59390   0.74490   0.60010   0.01267  Uiso   1.00
C95    C     0.16890   0.17110   0.09490   0.01267  Uiso   1.00
C96    C     0.21420   0.03280   0.10940   0.01267  Uiso   1.00
C97    C     0.77460   0.61300   0.76420   0.01267  Uiso   1.00
C98    C     0.62470   0.46630   0.25870   0.01267  Uiso   1.00
C99    C     0.37530   0.53370   0.74130   0.01267  Uiso   1.00
C100   C     0.87230   0.24050   0.50910   0.01267  Uiso   1.00
C101   C     0.41580   0.32180   0.96460   0.01267  Uiso   1.00
C102   C     0.39700   0.41100   0.68500   0.01267  Uiso   1.00
C103   C     0.26800   0.45030   0.68410   0.01267  Uiso   1.00
C104   C     0.77460   0.23580   0.38700   0.01267  Uiso   1.00
C105   C     0.87230   0.49090   0.75950   0.01267  Uiso   1.00
C106   C     0.57050   0.79350   0.48830   0.01267  Uiso   1.00
C107   C     0.42950   0.20650   0.51170   0.01267  Uiso   1.00
C108   C     0.58420   0.67820   0.03540   0.01267  Uiso   1.00
C109   C     0.71400   0.48360   0.31080   0.01267  Uiso   1.00
C110   C     0.27330   0.30430   0.84730   0.01267  Uiso   1.00
C111   C     0.59390   0.39990   0.25510   0.01267  Uiso   1.00
C112   C     0.30880   0.07240   0.68500   0.01267  Uiso   1.00
C113   C     0.55360   0.03740   0.32560   0.01267  Uiso   1.00
C114   C     0.29050   0.07030   0.14870   0.01267  Uiso   1.00
C115   C     0.89800   0.23100   0.76900   0.01267  Uiso   1.00
C116   C     0.28670   0.46050   0.19190   0.01267  Uiso   1.00
C117   C     0.69900   0.54880   0.23340   0.01267  Uiso   1.00
C118   C     0.28600   0.51640   0.68920   0.01267  Uiso   1.00
C119   C     0.83110   0.82890   0.90510   0.01267  Uiso   1.00
C120   C     0.79580   0.20880   0.51840   0.01267  Uiso   1.00
C121   C     0.15000   0.80110   0.19890   0.01267  Uiso   1.00
C122   C     0.90490   0.86990   0.94230   0.01267  Uiso   1.00
C123   C     0.16890   0.90510   0.82890   0.01267  Uiso   1.00
C124   C     0.76470   0.96530   0.31670   0.01267  Uiso   1.00
N1     N     0.33590   0.40030   0.72530   0.01267  Uiso   1.00
N2     N     0.88210   0.93900   0.93620   0.01267  Uiso   1.00
N3     N     0.29960   0.39520   0.20660   0.01267  Uiso   1.00
N4     N     0.70040   0.20660   0.39520   0.01267  Uiso   1.00
N5     N     0.29960   0.79340   0.60480   0.01267  Uiso   1.00
N6     N     0.88210   0.06380   0.06100   0.01267  Uiso   1.00
N7     N     0.66410   0.59970   0.27470   0.01267  Uiso   1.00
N8     N     0.66410   0.72530   0.40030   0.01267  Uiso   1.00
N9     N     0.37550   0.92590   0.67510   0.01267  Uiso   1.00
N10    N     0.11790   0.06100   0.06380   0.01267  Uiso   1.00
N11    N     0.62450   0.07410   0.32490   0.01267  Uiso   1.00
N12    N     0.37550   0.32490   0.07410   0.01267  Uiso   1.00
N13    N     0.00570   0.22150   0.77850   0.01267  Uiso   1.00
N14    N     0.11790   0.93620   0.93900   0.01267  Uiso   1.00
N15    N     0.33590   0.27470   0.59970   0.01267  Uiso   1.00
N16    N     0.62450   0.67510   0.92590   0.01267  Uiso   1.00
N17    N     0.70040   0.60480   0.79340   0.01267  Uiso   1.00
N18    N     0.99430   0.77850   0.22150   0.01267  Uiso   1.00
O1     O     0.59900   0.67690   0.61470   0.01267  Uiso   1.00
O2     O     0.77110   0.12630   0.87370   0.01267  Uiso   1.00
O3     O     0.22890   0.87370   0.12630   0.01267  Uiso   1.00
O4     O     0.56510   0.84660   0.77300   0.01267  Uiso   1.00
O5     O     0.95750   0.36880   0.74460   0.01267  Uiso   1.00
O6     O     0.65730   0.69680   0.18400   0.01267  Uiso   1.00
O7     O     0.15430   0.32400   0.67600   0.01267  Uiso   1.00
O8     O     0.33090   0.24370   0.16510   0.01267  Uiso   1.00
O9     O     0.04250   0.74460   0.36880   0.01267  Uiso   1.00
O10    O     0.50000   0.70930   0.70930   0.01267  Uiso   1.00
O11    O     0.96490   0.55770   0.28290   0.01267  Uiso   1.00
O12    O     0.82270   0.70430   0.17830   0.01267  Uiso   1.00
O13    O     0.66910   0.16510   0.24370   0.01267  Uiso   1.00
O14    O     0.64300   0.69530   0.63630   0.01267  Uiso   1.00
O15    O     0.46710   0.19920   0.38020   0.01267  Uiso   1.00
O16    O     0.34270   0.30320   0.81600   0.01267  Uiso   1.00
O17    O     0.17730   0.17830   0.70430   0.01267  Uiso   1.00
O18    O     0.50000   0.29070   0.29070   0.01267  Uiso   1.00
O19    O     0.34270   0.18400   0.69680   0.01267  Uiso   1.00
O20    O     0.35700   0.30470   0.36370   0.01267  Uiso   1.00
O21    O     0.43490   0.77300   0.84660   0.01267  Uiso   1.00
O22    O     0.03510   0.28290   0.55770   0.01267  Uiso   1.00
O23    O     0.65730   0.81600   0.30320   0.01267  Uiso   1.00
O24    O     0.03510   0.44230   0.71710   0.01267  Uiso   1.00
O25    O     0.84570   0.67600   0.32400   0.01267  Uiso   1.00
O26    O     0.40100   0.61470   0.67690   0.01267  Uiso   1.00
O27    O     0.64300   0.36370   0.30470   0.01267  Uiso   1.00
O28    O     0.53290   0.38020   0.19920   0.01267  Uiso   1.00
O29    O     0.40100   0.32310   0.38530   0.01267  Uiso   1.00
O30    O     0.66910   0.75630   0.83490   0.01267  Uiso   1.00
O31    O     0.35700   0.63630   0.69530   0.01267  Uiso   1.00
O32    O     0.05340   0.92750   0.07250   0.01267  Uiso   1.00
O33    O     0.46710   0.61980   0.80080   0.01267  Uiso   1.00
O34    O     0.53290   0.80080   0.61980   0.01267  Uiso   1.00
O35    O     0.33090   0.83490   0.75630   0.01267  Uiso   1.00
O36    O     0.43490   0.15340   0.22700   0.01267  Uiso   1.00
O37    O     0.17730   0.29570   0.82170   0.01267  Uiso   1.00
O38    O     0.56510   0.22700   0.15340   0.01267  Uiso   1.00
O39    O     0.59900   0.38530   0.32310   0.01267  Uiso   1.00
O40    O     0.04250   0.63120   0.25540   0.01267  Uiso   1.00
O41    O     0.94660   0.07250   0.92750   0.01267  Uiso   1.00
O42    O     0.96490   0.71710   0.44230   0.01267  Uiso   1.00
O43    O     0.82270   0.82170   0.29570   0.01267  Uiso   1.00
O44    O     0.95750   0.25540   0.63120   0.01267  Uiso   1.00
