data_cg801267m_si_004_clean
_audit_creation_date              2015-08-19
_audit_creation_method            'Materials Studio'
_symmetry_space_group_name_H-M    'P1'
_symmetry_Int_Tables_number       1
_symmetry_cell_setting            triclinic
loop_
_symmetry_equiv_pos_as_xyz
  x,y,z
_cell_length_a                    16.6366
_cell_length_b                    16.6366
_cell_length_c                    17.0848
_cell_angle_alpha                 119.1360
_cell_angle_beta                  119.1360
_cell_angle_gamma                 90.0005
loop_
_atom_site_label
_atom_site_type_symbol
_atom_site_fract_x
_atom_site_fract_y
_atom_site_fract_z
_atom_site_U_iso_or_equiv
_atom_site_adp_type
_atom_site_occupancy
Fe1    Fe    0.00000   0.00000   0.00000   0.01267  Uiso   1.00
Co1    Co    0.55231   0.55231   0.10462   0.01267  Uiso   1.00
Co2    Co    0.44769   0.44769   0.89538   0.01267  Uiso   1.00
H1     H     0.23590   0.60170   0.83760   0.01267  Uiso   1.00
H2     H     0.69780   0.84950   0.47180   0.01267  Uiso   1.00
H3     H     0.61320   0.75600   0.28700   0.01267  Uiso   1.00
H4     H     0.77400   0.62230   0.47180   0.01267  Uiso   1.00
H5     H     0.29770   0.07480  -0.00000   0.01267  Uiso   1.00
H6     H     0.61320   0.53100   0.28700   0.01267  Uiso   1.00
H7     H     0.46900   0.38680   0.71300   0.01267  Uiso   1.00
H8     H     0.30220   0.15050   0.52820   0.01267  Uiso   1.00
H9     H     0.86250   0.29990   0.16240   0.01267  Uiso   1.00
H10    H     0.70010   0.13750   0.83760   0.01267  Uiso   1.00
H11    H     0.70010   0.70010   0.83760   0.01267  Uiso   1.00
H12    H     0.39830   0.76410   0.16240   0.01267  Uiso   1.00
H13    H     0.09680   0.09680   0.36400   0.01267  Uiso   1.00
H14    H     0.84950   0.77400   0.47180   0.01267  Uiso   1.00
H15    H     0.29990   0.29990   0.16240   0.01267  Uiso   1.00
H16    H     0.07480   0.70230  -0.00000   0.01267  Uiso   1.00
H17    H     0.75600   0.61320   0.28700   0.01267  Uiso   1.00
H18    H     0.75600   0.67380   0.28700   0.01267  Uiso   1.00
H19    H     0.29990   0.86250   0.16240   0.01267  Uiso   1.00
H20    H     0.69780   0.62230   0.47180   0.01267  Uiso   1.00
H21    H     0.15050   0.30220   0.52820   0.01267  Uiso   1.00
H22    H     0.60170   0.60170   0.83760   0.01267  Uiso   1.00
H23    H     0.82620   0.82620   0.81980   0.01267  Uiso   1.00
H24    H     0.82620   0.99360   0.81980   0.01267  Uiso   1.00
H25    H     0.22600   0.37770   0.52820   0.01267  Uiso   1.00
H26    H     0.07480   0.29770  -0.00000   0.01267  Uiso   1.00
H27    H     0.92520   0.70230  -0.00000   0.01267  Uiso   1.00
H28    H     0.38680   0.24400   0.71300   0.01267  Uiso   1.00
H29    H     0.53100   0.67380   0.28700   0.01267  Uiso   1.00
H30    H     0.17380   0.17380   0.18020   0.01267  Uiso   1.00
H31    H     0.37770   0.30220   0.52820   0.01267  Uiso   1.00
H32    H     0.24400   0.38680   0.71300   0.01267  Uiso   1.00
H33    H     0.99360   0.82620   0.81980   0.01267  Uiso   1.00
H34    H     0.67380   0.53100   0.28700   0.01267  Uiso   1.00
H35    H     0.22600   0.15050   0.52820   0.01267  Uiso   1.00
H36    H     0.70230   0.07480  -0.00000   0.01267  Uiso   1.00
H37    H     0.23590   0.23590   0.83760   0.01267  Uiso   1.00
H38    H     0.17380   0.00640   0.18020   0.01267  Uiso   1.00
H39    H     0.60170   0.23590   0.83760   0.01267  Uiso   1.00
H40    H     0.67380   0.75600   0.28700   0.01267  Uiso   1.00
H41    H     0.38680   0.46900   0.71300   0.01267  Uiso   1.00
H42    H     0.53100   0.61320   0.28700   0.01267  Uiso   1.00
H43    H     0.00640   0.00640   0.18020   0.01267  Uiso   1.00
H44    H     0.73280   0.73280   0.63600   0.01267  Uiso   1.00
H45    H     0.26720   0.09680   0.36400   0.01267  Uiso   1.00
H46    H     0.13750   0.13750   0.83760   0.01267  Uiso   1.00
H47    H     0.13750   0.70010   0.83760   0.01267  Uiso   1.00
H48    H     0.86250   0.86250   0.16240   0.01267  Uiso   1.00
H49    H     0.76410   0.76410   0.16240   0.01267  Uiso   1.00
H50    H     0.62230   0.69780   0.47180   0.01267  Uiso   1.00
H51    H     0.37770   0.22600   0.52820   0.01267  Uiso   1.00
H52    H     0.73280   0.90320   0.63600   0.01267  Uiso   1.00
H53    H     0.62230   0.77400   0.47180   0.01267  Uiso   1.00
H54    H     0.99360   0.99360   0.81980   0.01267  Uiso   1.00
H55    H     0.76410   0.39830   0.16240   0.01267  Uiso   1.00
H56    H     0.00640   0.17380   0.18020   0.01267  Uiso   1.00
H57    H     0.84950   0.69780   0.47180   0.01267  Uiso   1.00
H58    H     0.90320   0.73280   0.63600   0.01267  Uiso   1.00
H59    H     0.92520   0.29770  -0.00000   0.01267  Uiso   1.00
H60    H     0.39830   0.39830   0.16240   0.01267  Uiso   1.00
H61    H     0.09680   0.26720   0.36400   0.01267  Uiso   1.00
H62    H     0.70230   0.92520  -0.00000   0.01267  Uiso   1.00
H63    H     0.30220   0.37770   0.52820   0.01267  Uiso   1.00
H64    H     0.15050   0.22600   0.52820   0.01267  Uiso   1.00
H65    H     0.77400   0.84950   0.47180   0.01267  Uiso   1.00
H66    H     0.46900   0.32620   0.71300   0.01267  Uiso   1.00
H67    H     0.32620   0.46900   0.71300   0.01267  Uiso   1.00
H68    H     0.29770   0.92520  -0.00000   0.01267  Uiso   1.00
H69    H     0.90320   0.90320   0.63600   0.01267  Uiso   1.00
H70    H     0.32620   0.24400   0.71300   0.01267  Uiso   1.00
H71    H     0.24400   0.32620   0.71300   0.01267  Uiso   1.00
H72    H     0.26720   0.26720   0.36400   0.01267  Uiso   1.00
C1     C     0.20870   0.20870  -0.00000   0.01267  Uiso   1.00
C2     C     0.67318   0.32682  -0.00000   0.01267  Uiso   1.00
C3     C     0.24919   0.24919   0.90422   0.01267  Uiso   1.00
C4     C     0.75081   0.75081   0.09578   0.01267  Uiso   1.00
C5     C     0.78400   0.73910   0.43560   0.01267  Uiso   1.00
C6     C     0.79130   0.20870  -0.00000   0.01267  Uiso   1.00
C7     C     0.74820   0.95920  -0.00000   0.01267  Uiso   1.00
C8     C     0.25320   0.25320   0.50640   0.01267  Uiso   1.00
C9     C     0.80922   0.80922   0.09582   0.01267  Uiso   1.00
C10    C     0.60960   0.60960  -0.00000   0.01267  Uiso   1.00
C11    C     0.06560   0.16962  -0.00000   0.01267  Uiso   1.00
C12    C     0.59810   0.64420   0.32520   0.01267  Uiso   1.00
C13    C     0.65503   0.24919   0.90422   0.01267  Uiso   1.00
C14    C     0.14567   0.85433  -0.00000   0.01267  Uiso   1.00
C15    C     0.83038   0.06560   0.00000   0.01267  Uiso   1.00
C16    C     0.04080   0.25180  -0.00000   0.01267  Uiso   1.00
C17    C     0.78400   0.69650   0.43560   0.01267  Uiso   1.00
C18    C     0.72710   0.68100   0.32520   0.01267  Uiso   1.00
C19    C     0.30350   0.34840   0.56440   0.01267  Uiso   1.00
C20    C     0.34840   0.26090   0.56440   0.01267  Uiso   1.00
C21    C     0.39040   0.39040  -0.00000   0.01267  Uiso   1.00
C22    C     0.71340   0.19078   0.90418   0.01267  Uiso   1.00
C23    C     0.19078   0.71340   0.90418   0.01267  Uiso   1.00
C24    C     0.75081   0.34497   0.09578   0.01267  Uiso   1.00
C25    C     0.06560   0.83038  -0.00000   0.01267  Uiso   1.00
C26    C     0.21600   0.30350   0.56440   0.01267  Uiso   1.00
C27    C     0.64420   0.59810   0.32520   0.01267  Uiso   1.00
C28    C     0.06050   0.15790   0.21840   0.01267  Uiso   1.00
C29    C     0.25180   0.95920  -0.00000   0.01267  Uiso   1.00
C30    C     0.67318   0.67318  -0.00000   0.01267  Uiso   1.00
C31    C     0.11410   0.21350   0.32760   0.01267  Uiso   1.00
C32    C     0.16962   0.93440  -0.00000   0.01267  Uiso   1.00
C33    C     0.32682   0.67318  -0.00000   0.01267  Uiso   1.00
C34    C     0.59810   0.68100   0.32520   0.01267  Uiso   1.00
C35    C     0.69650   0.65160   0.43560   0.01267  Uiso   1.00
C36    C     0.04080   0.74820  -0.00000   0.01267  Uiso   1.00
C37    C     0.14567   0.14567  -0.00000   0.01267  Uiso   1.00
C38    C     0.88590   0.88590   0.67240   0.01267  Uiso   1.00
C39    C     0.26090   0.34840   0.56440   0.01267  Uiso   1.00
C40    C     0.80922   0.28660   0.09582   0.01267  Uiso   1.00
C41    C     0.78650   0.78650   0.67240   0.01267  Uiso   1.00
C42    C     0.85433   0.14567   0.00000   0.01267  Uiso   1.00
C43    C     0.65160   0.69650   0.43560   0.01267  Uiso   1.00
C44    C     0.93950   0.93950   0.78160   0.01267  Uiso   1.00
C45    C     0.28660   0.80922   0.09582   0.01267  Uiso   1.00
C46    C     0.27290   0.35580   0.67480   0.01267  Uiso   1.00
C47    C     0.21350   0.21350   0.32760   0.01267  Uiso   1.00
C48    C     0.27290   0.31900   0.67480   0.01267  Uiso   1.00
C49    C     0.83038   0.93440  -0.00000   0.01267  Uiso   1.00
C50    C     0.35580   0.27290   0.67480   0.01267  Uiso   1.00
C51    C     0.84210   0.93950   0.78160   0.01267  Uiso   1.00
C52    C     0.39040   0.60960  -0.00000   0.01267  Uiso   1.00
C53    C     0.74820   0.04080  -0.00000   0.01267  Uiso   1.00
C54    C     0.40190   0.31900   0.67480   0.01267  Uiso   1.00
C55    C     0.31900   0.40190   0.67480   0.01267  Uiso   1.00
C56    C     0.20870   0.79130  -0.00000   0.01267  Uiso   1.00
C57    C     0.95920   0.25180  -0.00000   0.01267  Uiso   1.00
C58    C     0.68100   0.72710   0.32520   0.01267  Uiso   1.00
C59    C     0.19078   0.19078   0.90418   0.01267  Uiso   1.00
C60    C     0.93440   0.83038  -0.00000   0.01267  Uiso   1.00
C61    C     0.60960   0.39040  -0.00000   0.01267  Uiso   1.00
C62    C     0.40190   0.35580   0.67480   0.01267  Uiso   1.00
C63    C     0.15790   0.06050   0.21840   0.01267  Uiso   1.00
C64    C     0.65503   0.65503   0.90422   0.01267  Uiso   1.00
C65    C     0.25180   0.04080   0.00000   0.01267  Uiso   1.00
C66    C     0.78650   0.88590   0.67240   0.01267  Uiso   1.00
C67    C     0.34497   0.34497   0.09578   0.01267  Uiso   1.00
C68    C     0.34497   0.75081   0.09578   0.01267  Uiso   1.00
C69    C     0.69650   0.78400   0.43560   0.01267  Uiso   1.00
C70    C     0.31900   0.27290   0.67480   0.01267  Uiso   1.00
C71    C     0.85433   0.85433  -0.00000   0.01267  Uiso   1.00
C72    C     0.72710   0.64420   0.32520   0.01267  Uiso   1.00
C73    C     0.11410   0.11410   0.32760   0.01267  Uiso   1.00
C74    C     0.35580   0.40190   0.67480   0.01267  Uiso   1.00
C75    C     0.84210   0.84210   0.78160   0.01267  Uiso   1.00
C76    C     0.68100   0.59810   0.32520   0.01267  Uiso   1.00
C77    C     0.21350   0.11410   0.32760   0.01267  Uiso   1.00
C78    C     0.32682   0.32682  -0.00000   0.01267  Uiso   1.00
C79    C     0.64420   0.72710   0.32520   0.01267  Uiso   1.00
C80    C     0.71340   0.71340   0.90418   0.01267  Uiso   1.00
C81    C     0.26090   0.21600   0.56440   0.01267  Uiso   1.00
C82    C     0.65160   0.73910   0.43560   0.01267  Uiso   1.00
C83    C     0.93950   0.84210   0.78160   0.01267  Uiso   1.00
C84    C     0.34840   0.30350   0.56440   0.01267  Uiso   1.00
C85    C     0.28660   0.28660   0.09582   0.01267  Uiso   1.00
C86    C     0.80650   0.80650   0.61300   0.01267  Uiso   1.00
C87    C     0.06050   0.06050   0.21840   0.01267  Uiso   1.00
C88    C     0.24919   0.65503   0.90422   0.01267  Uiso   1.00
C89    C     0.74680   0.74680   0.49360   0.01267  Uiso   1.00
C90    C     0.95920   0.74820  -0.00000   0.01267  Uiso   1.00
C91    C     0.19350   0.19350   0.38700   0.01267  Uiso   1.00
C92    C     0.88590   0.78650   0.67240   0.01267  Uiso   1.00
C93    C     0.73910   0.78400   0.43560   0.01267  Uiso   1.00
C94    C     0.21600   0.26090   0.56440   0.01267  Uiso   1.00
C95    C     0.30350   0.21600   0.56440   0.01267  Uiso   1.00
C96    C     0.15790   0.15790   0.21840   0.01267  Uiso   1.00
C97    C     0.73910   0.65160   0.43560   0.01267  Uiso   1.00
C98    C     0.16962   0.06560   0.00000   0.01267  Uiso   1.00
C99    C     0.93440   0.16962  -0.00000   0.01267  Uiso   1.00
C100   C     0.79130   0.79130  -0.00000   0.01267  Uiso   1.00
N1     N     0.91890   0.91890   0.83780   0.01267  Uiso   1.00
N2     N     0.08110   0.08110   0.16220   0.01267  Uiso   1.00
N3     N     0.11930   0.00000   0.00000   0.01267  Uiso   1.00
N4     N     0.00000   0.11930  -0.00000   0.01267  Uiso   1.00
N5     N     0.88070   0.00000  -0.00000   0.01267  Uiso   1.00
N6     N     0.63500   0.63500   0.27000   0.01267  Uiso   1.00
N7     N     0.36500   0.36500   0.73000   0.01267  Uiso   1.00
N8     N     0.00000   0.88070  -0.00000   0.01267  Uiso   1.00
O1     O     0.37000   0.53994   0.90994   0.01267  Uiso   1.00
O2     O     0.37000   0.37000   0.90994   0.01267  Uiso   1.00
O3     O     0.53994   0.53994   0.90994   0.01267  Uiso   1.00
O4     O     0.46006   0.63000   0.09006   0.01267  Uiso   1.00
O5     O     0.46006   0.46006   0.09006   0.01267  Uiso   1.00
O6     O     0.53994   0.37000   0.90994   0.01267  Uiso   1.00
O7     O     0.63000   0.63000   0.09006   0.01267  Uiso   1.00
O8     O     0.63000   0.46006   0.09006   0.01267  Uiso   1.00
