data_cg801267m_si_002_clean
_audit_creation_date              2015-08-19
_audit_creation_method            'Materials Studio'
_symmetry_space_group_name_H-M    'P1'
_symmetry_Int_Tables_number       1
_symmetry_cell_setting            triclinic
loop_
_symmetry_equiv_pos_as_xyz
  x,y,z
_cell_length_a                    16.6906
_cell_length_b                    16.6906
_cell_length_c                    17.3614
_cell_angle_alpha                 61.2697
_cell_angle_beta                  61.2697
_cell_angle_gamma                 89.9995
loop_
_atom_site_label
_atom_site_type_symbol
_atom_site_fract_x
_atom_site_fract_y
_atom_site_fract_z
_atom_site_U_iso_or_equiv
_atom_site_adp_type
_atom_site_occupancy
Mn1    Mn    0.00000   0.00000   0.00000   0.01267  Uiso   1.00
Co1    Co    0.55141   0.55141   0.89718   0.01267  Uiso   1.00
Co2    Co    0.44859   0.44859   0.10282   0.01267  Uiso   1.00
H1     H     0.21440   0.07290   0.80160   0.01267  Uiso   1.00
H2     H     0.78990   0.83660   0.53720   0.01267  Uiso   1.00
H3     H     0.21010   0.16340   0.46280   0.01267  Uiso   1.00
H4     H     0.78520   0.69240   0.38000   0.01267  Uiso   1.00
H5     H     0.74720   0.69190   0.72100   0.01267  Uiso   1.00
H6     H     0.12550   0.98400   0.80160   0.01267  Uiso   1.00
H7     H     0.60370   0.24010   0.15620   0.01267  Uiso   1.00
H8     H     0.87450   0.01600   0.19840   0.01267  Uiso   1.00
H9     H     0.21480   0.07240   0.62000   0.01267  Uiso   1.00
H10    H     0.16520   0.30760   0.62000   0.01267  Uiso   1.00
H11    H     0.32710   0.16340   0.46280   0.01267  Uiso   1.00
H12    H     0.85880   0.29740   0.84380   0.01267  Uiso   1.00
H13    H     0.92710   0.78560   0.19840   0.01267  Uiso   1.00
H14    H     0.58710   0.74720   0.72100   0.01267  Uiso   1.00
H15    H     0.07290   0.98400   0.80160   0.01267  Uiso   1.00
H16    H     0.74720   0.58710   0.72100   0.01267  Uiso   1.00
H17    H     0.16520   0.07240   0.62000   0.01267  Uiso   1.00
H18    H     0.39630   0.39630   0.84380   0.01267  Uiso   1.00
H19    H     0.16340   0.21010   0.46280   0.01267  Uiso   1.00
H20    H     0.70260   0.70260   0.15620   0.01267  Uiso   1.00
H21    H     0.07290   0.21440   0.80160   0.01267  Uiso   1.00
H22    H     0.29740   0.29740   0.84380   0.01267  Uiso   1.00
H23    H     0.92760   0.78520   0.38000   0.01267  Uiso   1.00
H24    H     0.62620   0.78990   0.53720   0.01267  Uiso   1.00
H25    H     0.21010   0.37380   0.46280   0.01267  Uiso   1.00
H26    H     0.83660   0.78990   0.53720   0.01267  Uiso   1.00
H27    H     0.21480   0.30760   0.62000   0.01267  Uiso   1.00
H28    H     0.39630   0.75990   0.84380   0.01267  Uiso   1.00
H29    H     0.85880   0.85880   0.84380   0.01267  Uiso   1.00
H30    H     0.70260   0.14120   0.15620   0.01267  Uiso   1.00
H31    H     0.78560   0.87450   0.19840   0.01267  Uiso   1.00
H32    H     0.24010   0.24010   0.15620   0.01267  Uiso   1.00
H33    H     0.69240   0.78520   0.38000   0.01267  Uiso   1.00
H34    H     0.12550   0.21440   0.80160   0.01267  Uiso   1.00
H35    H     0.69190   0.74720   0.72100   0.01267  Uiso   1.00
H36    H     0.07400   0.29880   0.00000   0.01267  Uiso   1.00
H37    H     0.78990   0.62620   0.53720   0.01267  Uiso   1.00
H38    H     0.30760   0.21480   0.62000   0.01267  Uiso   1.00
H39    H     0.25280   0.30810   0.27900   0.01267  Uiso   1.00
H40    H     0.87450   0.78560   0.19840   0.01267  Uiso   1.00
H41    H     0.53180   0.69190   0.72100   0.01267  Uiso   1.00
H42    H     0.70120   0.92600  -0.00000   0.01267  Uiso   1.00
H43    H     0.70120   0.07400  -0.00000   0.01267  Uiso   1.00
H44    H     0.07240   0.21480   0.62000   0.01267  Uiso   1.00
H45    H     0.46820   0.41290   0.27900   0.01267  Uiso   1.00
H46    H     0.29740   0.85880   0.84380   0.01267  Uiso   1.00
H47    H     0.07400   0.70120  -0.00000   0.01267  Uiso   1.00
H48    H     0.78520   0.92760   0.38000   0.01267  Uiso   1.00
H49    H     0.46820   0.30810   0.27900   0.01267  Uiso   1.00
H50    H     0.98400   0.12550   0.80160   0.01267  Uiso   1.00
H51    H     0.16340   0.32710   0.46280   0.01267  Uiso   1.00
H52    H     0.92710   0.01600   0.19840   0.01267  Uiso   1.00
H53    H     0.75990   0.75990   0.84380   0.01267  Uiso   1.00
H54    H     0.69190   0.53180   0.72100   0.01267  Uiso   1.00
H55    H     0.62620   0.67290   0.53720   0.01267  Uiso   1.00
H56    H     0.53180   0.58710   0.72100   0.01267  Uiso   1.00
H57    H     0.29880   0.07400  -0.00000   0.01267  Uiso   1.00
H58    H     0.83660   0.67290   0.53720   0.01267  Uiso   1.00
H59    H     0.78560   0.92710   0.19840   0.01267  Uiso   1.00
H60    H     0.01600   0.92710   0.19840   0.01267  Uiso   1.00
H61    H     0.24010   0.60370   0.15620   0.01267  Uiso   1.00
H62    H     0.58710   0.53180   0.72100   0.01267  Uiso   1.00
H63    H     0.67290   0.83660   0.53720   0.01267  Uiso   1.00
H64    H     0.75990   0.39630   0.84380   0.01267  Uiso   1.00
H65    H     0.92760   0.83480   0.38000   0.01267  Uiso   1.00
H66    H     0.07240   0.16520   0.62000   0.01267  Uiso   1.00
H67    H     0.29880   0.92600  -0.00000   0.01267  Uiso   1.00
H68    H     0.30760   0.16520   0.62000   0.01267  Uiso   1.00
H69    H     0.30810   0.25280   0.27900   0.01267  Uiso   1.00
H70    H     0.30810   0.46820   0.27900   0.01267  Uiso   1.00
H71    H     0.67290   0.62620   0.53720   0.01267  Uiso   1.00
H72    H     0.92600   0.70120  -0.00000   0.01267  Uiso   1.00
H73    H     0.25280   0.41290   0.27900   0.01267  Uiso   1.00
H74    H     0.60370   0.60370   0.15620   0.01267  Uiso   1.00
H75    H     0.01600   0.87450   0.19840   0.01267  Uiso   1.00
H76    H     0.14120   0.14120   0.15620   0.01267  Uiso   1.00
H77    H     0.14120   0.70260   0.15620   0.01267  Uiso   1.00
H78    H     0.37380   0.21010   0.46280   0.01267  Uiso   1.00
H79    H     0.83480   0.92760   0.38000   0.01267  Uiso   1.00
H80    H     0.41290   0.25280   0.27900   0.01267  Uiso   1.00
H81    H     0.83480   0.69240   0.38000   0.01267  Uiso   1.00
H82    H     0.92600   0.29880  -0.00000   0.01267  Uiso   1.00
H83    H     0.21440   0.12550   0.80160   0.01267  Uiso   1.00
H84    H     0.37380   0.32710   0.46280   0.01267  Uiso   1.00
H85    H     0.32710   0.37380   0.46280   0.01267  Uiso   1.00
H86    H     0.69240   0.83480   0.38000   0.01267  Uiso   1.00
H87    H     0.98400   0.07290   0.80160   0.01267  Uiso   1.00
H88    H     0.41290   0.46820   0.27900   0.01267  Uiso   1.00
C1     C     0.81300   0.75920   0.34460   0.01267  Uiso   1.00
C2     C     0.59520   0.62680   0.68300   0.01267  Uiso   1.00
C3     C     0.25300   0.22450   0.42700   0.01267  Uiso   1.00
C4     C     0.81460   0.86690   0.23600   0.01267  Uiso   1.00
C5     C     0.10380   0.15760   0.65540   0.01267  Uiso   1.00
C6     C     0.10290   0.05060   0.76400   0.01267  Uiso   1.00
C7     C     0.65150   0.74700   0.57300   0.01267  Uiso   1.00
C8     C     0.20940   0.20940  -0.00000   0.01267  Uiso   1.00
C9     C     0.30980   0.40480   0.31700   0.01267  Uiso   1.00
C10    C     0.18700   0.10380   0.65540   0.01267  Uiso   1.00
C11    C     0.62680   0.59520   0.68300   0.01267  Uiso   1.00
C12    C     0.18540   0.13310   0.76400   0.01267  Uiso   1.00
C13    C     0.69020   0.72180   0.68300   0.01267  Uiso   1.00
C14    C     0.17000   0.06510  -0.00000   0.01267  Uiso   1.00
C15    C     0.81300   0.89620   0.34460   0.01267  Uiso   1.00
C16    C     0.27820   0.30980   0.31700   0.01267  Uiso   1.00
C17    C     0.22450   0.32000   0.42700   0.01267  Uiso   1.00
C18    C     0.39130   0.60870   0.00000   0.01267  Uiso   1.00
C19    C     0.79060   0.79060  -0.00000   0.01267  Uiso   1.00
C20    C     0.74750   0.74750   0.90860   0.01267  Uiso   1.00
C21    C     0.94940   0.89710   0.23600   0.01267  Uiso   1.00
C22    C     0.13310   0.05060   0.76400   0.01267  Uiso   1.00
C23    C     0.32000   0.22450   0.42700   0.01267  Uiso   1.00
C24    C     0.69020   0.59520   0.68300   0.01267  Uiso   1.00
C25    C     0.74300   0.74300   0.51400   0.01267  Uiso   1.00
C26    C     0.25250   0.65610   0.09140   0.01267  Uiso   1.00
C27    C     0.19360   0.71520   0.09120   0.01267  Uiso   1.00
C28    C     0.68000   0.77550   0.57300   0.01267  Uiso   1.00
C29    C     0.84240   0.75920   0.34460   0.01267  Uiso   1.00
C30    C     0.74750   0.34390   0.90860   0.01267  Uiso   1.00
C31    C     0.80640   0.80640   0.90880   0.01267  Uiso   1.00
C32    C     0.14600   0.14600  -0.00000   0.01267  Uiso   1.00
C33    C     0.04010   0.74690   0.00000   0.01267  Uiso   1.00
C34    C     0.65610   0.25250   0.09140   0.01267  Uiso   1.00
C35    C     0.77550   0.74700   0.57300   0.01267  Uiso   1.00
C36    C     0.77550   0.68000   0.57300   0.01267  Uiso   1.00
C37    C     0.25700   0.25700   0.48600   0.01267  Uiso   1.00
C38    C     0.04010   0.25310   0.00000   0.01267  Uiso   1.00
C39    C     0.89710   0.94940   0.23600   0.01267  Uiso   1.00
C40    C     0.25310   0.95990   0.00000   0.01267  Uiso   1.00
C41    C     0.95990   0.74690   0.00000   0.01267  Uiso   1.00
C42    C     0.86690   0.81460   0.23600   0.01267  Uiso   1.00
C43    C     0.89710   0.81460   0.23600   0.01267  Uiso   1.00
C44    C     0.15760   0.10380   0.65540   0.01267  Uiso   1.00
C45    C     0.25300   0.34850   0.42700   0.01267  Uiso   1.00
C46    C     0.80640   0.28480   0.90880   0.01267  Uiso   1.00
C47    C     0.85400   0.14600   0.00000   0.01267  Uiso   1.00
C48    C     0.34390   0.34390   0.90860   0.01267  Uiso   1.00
C49    C     0.59520   0.69020   0.68300   0.01267  Uiso   1.00
C50    C     0.60870   0.39130  -0.00000   0.01267  Uiso   1.00
C51    C     0.18700   0.24080   0.65540   0.01267  Uiso   1.00
C52    C     0.28480   0.80640   0.90880   0.01267  Uiso   1.00
C53    C     0.40480   0.37320   0.31700   0.01267  Uiso   1.00
C54    C     0.86690   0.94940   0.23600   0.01267  Uiso   1.00
C55    C     0.84240   0.89620   0.34460   0.01267  Uiso   1.00
C56    C     0.20940   0.79060  -0.00000   0.01267  Uiso   1.00
C57    C     0.32710   0.67290  -0.00000   0.01267  Uiso   1.00
C58    C     0.89620   0.81300   0.34460   0.01267  Uiso   1.00
C59    C     0.30980   0.27820   0.31700   0.01267  Uiso   1.00
C60    C     0.79060   0.20940  -0.00000   0.01267  Uiso   1.00
C61    C     0.65610   0.65610   0.09140   0.01267  Uiso   1.00
C62    C     0.13310   0.18540   0.76400   0.01267  Uiso   1.00
C63    C     0.20180   0.20180   0.59640   0.01267  Uiso   1.00
C64    C     0.25250   0.25250   0.09140   0.01267  Uiso   1.00
C65    C     0.14600   0.85400   0.00000   0.01267  Uiso   1.00
C66    C     0.79820   0.79820   0.40360   0.01267  Uiso   1.00
C67    C     0.81460   0.89710   0.23600   0.01267  Uiso   1.00
C68    C     0.75920   0.84240   0.34460   0.01267  Uiso   1.00
C69    C     0.25310   0.04010  -0.00000   0.01267  Uiso   1.00
C70    C     0.18540   0.10290   0.76400   0.01267  Uiso   1.00
C71    C     0.15760   0.24080   0.65540   0.01267  Uiso   1.00
C72    C     0.06510   0.17000  -0.00000   0.01267  Uiso   1.00
C73    C     0.37320   0.27820   0.31700   0.01267  Uiso   1.00
C74    C     0.24080   0.15760   0.65540   0.01267  Uiso   1.00
C75    C     0.83000   0.93490  -0.00000   0.01267  Uiso   1.00
C76    C     0.71520   0.71520   0.09120   0.01267  Uiso   1.00
C77    C     0.34390   0.74750   0.90860   0.01267  Uiso   1.00
C78    C     0.22450   0.25300   0.42700   0.01267  Uiso   1.00
C79    C     0.10290   0.18540   0.76400   0.01267  Uiso   1.00
C80    C     0.93490   0.17000  -0.00000   0.01267  Uiso   1.00
C81    C     0.67290   0.32710  -0.00000   0.01267  Uiso   1.00
C82    C     0.71520   0.19360   0.09120   0.01267  Uiso   1.00
C83    C     0.62680   0.72180   0.68300   0.01267  Uiso   1.00
C84    C     0.65150   0.68000   0.57300   0.01267  Uiso   1.00
C85    C     0.95990   0.25310  -0.00000   0.01267  Uiso   1.00
C86    C     0.83000   0.06510   0.00000   0.01267  Uiso   1.00
C87    C     0.68000   0.65150   0.57300   0.01267  Uiso   1.00
C88    C     0.34850   0.25300   0.42700   0.01267  Uiso   1.00
C89    C     0.75920   0.81300   0.34460   0.01267  Uiso   1.00
C90    C     0.74690   0.95990  -0.00000   0.01267  Uiso   1.00
C91    C     0.27820   0.37320   0.31700   0.01267  Uiso   1.00
C92    C     0.85400   0.85400  -0.00000   0.01267  Uiso   1.00
C93    C     0.34850   0.32000   0.42700   0.01267  Uiso   1.00
C94    C     0.67290   0.67290  -0.00000   0.01267  Uiso   1.00
C95    C     0.05060   0.13310   0.76400   0.01267  Uiso   1.00
C96    C     0.74700   0.65150   0.57300   0.01267  Uiso   1.00
C97    C     0.60870   0.60870   0.00000   0.01267  Uiso   1.00
C98    C     0.24080   0.18700   0.65540   0.01267  Uiso   1.00
C99    C     0.40480   0.30980   0.31700   0.01267  Uiso   1.00
C100   C     0.93490   0.83000  -0.00000   0.01267  Uiso   1.00
C101   C     0.39130   0.39130   0.00000   0.01267  Uiso   1.00
C102   C     0.94940   0.86690   0.23600   0.01267  Uiso   1.00
C103   C     0.05060   0.10290   0.76400   0.01267  Uiso   1.00
C104   C     0.19360   0.19360   0.09120   0.01267  Uiso   1.00
C105   C     0.06510   0.83000  -0.00000   0.01267  Uiso   1.00
C106   C     0.37320   0.40480   0.31700   0.01267  Uiso   1.00
C107   C     0.28480   0.28480   0.90880   0.01267  Uiso   1.00
C108   C     0.32000   0.34850   0.42700   0.01267  Uiso   1.00
C109   C     0.89620   0.84240   0.34460   0.01267  Uiso   1.00
C110   C     0.10380   0.18700   0.65540   0.01267  Uiso   1.00
C111   C     0.17000   0.93490  -0.00000   0.01267  Uiso   1.00
C112   C     0.72180   0.62680   0.68300   0.01267  Uiso   1.00
C113   C     0.74690   0.04010  -0.00000   0.01267  Uiso   1.00
C114   C     0.72180   0.69020   0.68300   0.01267  Uiso   1.00
C115   C     0.74700   0.77550   0.57300   0.01267  Uiso   1.00
C116   C     0.32710   0.32710   0.00000   0.01267  Uiso   1.00
N1     N     0.00000   0.12050   0.00000   0.01267  Uiso   1.00
N2     N     0.90820   0.90820   0.18360   0.01267  Uiso   1.00
N3     N     0.63330   0.63330   0.73340   0.01267  Uiso   1.00
N4     N     0.87950   0.00000  -0.00000   0.01267  Uiso   1.00
N5     N     0.12050   0.00000  -0.00000   0.01267  Uiso   1.00
N6     N     0.09180   0.09180   0.81640   0.01267  Uiso   1.00
N7     N     0.00000   0.87950  -0.00000   0.01267  Uiso   1.00
N8     N     0.36670   0.36670   0.26660   0.01267  Uiso   1.00
O1     O     0.37136   0.37136   0.08710   0.01267  Uiso   1.00
O2     O     0.45846   0.62864   0.91290   0.01267  Uiso   1.00
O3     O     0.54154   0.54154   0.08710   0.01267  Uiso   1.00
O4     O     0.62864   0.45846   0.91290   0.01267  Uiso   1.00
O5     O     0.45846   0.45846   0.91290   0.01267  Uiso   1.00
O6     O     0.54154   0.37136   0.08710   0.01267  Uiso   1.00
O7     O     0.37136   0.54154   0.08710   0.01267  Uiso   1.00
O8     O     0.62864   0.62864   0.91290   0.01267  Uiso   1.00
