data_cg801267m_si_001_clean
_audit_creation_date              2015-08-19
_audit_creation_method            'Materials Studio'
_symmetry_space_group_name_H-M    'P1'
_symmetry_Int_Tables_number       1
_symmetry_cell_setting            triclinic
loop_
_symmetry_equiv_pos_as_xyz
  x,y,z
_cell_length_a                    16.6608
_cell_length_b                    16.6608
_cell_length_c                    17.4287
_cell_angle_alpha                 118.5530
_cell_angle_beta                  118.5530
_cell_angle_gamma                 90.0001
loop_
_atom_site_label
_atom_site_type_symbol
_atom_site_fract_x
_atom_site_fract_y
_atom_site_fract_z
_atom_site_U_iso_or_equiv
_atom_site_adp_type
_atom_site_occupancy
Mn1    Mn    0.00000   0.00000   0.00000   0.01267  Uiso   1.00
Zn1    Zn    0.55633   0.55633   0.11266   0.01267  Uiso   1.00
Zn2    Zn    0.44367   0.44367   0.88734   0.01267  Uiso   1.00
H1     H     0.92200   0.76420   0.61900   0.01267  Uiso   1.00
H2     H     0.69700   0.76420   0.61900   0.01267  Uiso   1.00
H3     H     0.53770   0.59190   0.28740   0.01267  Uiso   1.00
H4     H     0.23580   0.07800   0.38100   0.01267  Uiso   1.00
H5     H     0.14520   0.07800   0.38100   0.01267  Uiso   1.00
H6     H     0.70130   0.07390  -0.00000   0.01267  Uiso   1.00
H7     H     0.20800   0.05200   0.19920   0.01267  Uiso   1.00
H8     H     0.21520   0.37630   0.53500   0.01267  Uiso   1.00
H9     H     0.00880   0.85280   0.80080   0.01267  Uiso   1.00
H10    H     0.29590   0.85850   0.15440   0.01267  Uiso   1.00
H11    H     0.69700   0.85480   0.61900   0.01267  Uiso   1.00
H12    H     0.40810   0.25030   0.71260   0.01267  Uiso   1.00
H13    H     0.62370   0.68020   0.46500   0.01267  Uiso   1.00
H14    H     0.70410   0.70410   0.84560   0.01267  Uiso   1.00
H15    H     0.37630   0.21520   0.53500   0.01267  Uiso   1.00
H16    H     0.46230   0.40810   0.71260   0.01267  Uiso   1.00
H17    H     0.76420   0.69700   0.61900   0.01267  Uiso   1.00
H18    H     0.70410   0.14150   0.84560   0.01267  Uiso   1.00
H19    H     0.39540   0.76120   0.15660   0.01267  Uiso   1.00
H20    H     0.68020   0.84130   0.46500   0.01267  Uiso   1.00
H21    H     0.30450   0.46230   0.71260   0.01267  Uiso   1.00
H22    H     0.85280   0.79200   0.80080   0.01267  Uiso   1.00
H23    H     0.79200   0.94800   0.80080   0.01267  Uiso   1.00
H24    H     0.23880   0.23880   0.84340   0.01267  Uiso   1.00
H25    H     0.23880   0.60460   0.84340   0.01267  Uiso   1.00
H26    H     0.25030   0.40810   0.71260   0.01267  Uiso   1.00
H27    H     0.31980   0.37630   0.53500   0.01267  Uiso   1.00
H28    H     0.30300   0.14520   0.38100   0.01267  Uiso   1.00
H29    H     0.85850   0.85850   0.15440   0.01267  Uiso   1.00
H30    H     0.74970   0.59190   0.28740   0.01267  Uiso   1.00
H31    H     0.85280   0.00880   0.80080   0.01267  Uiso   1.00
H32    H     0.00880   0.94800   0.80080   0.01267  Uiso   1.00
H33    H     0.92610   0.29870   0.00000   0.01267  Uiso   1.00
H34    H     0.25030   0.30450   0.71260   0.01267  Uiso   1.00
H35    H     0.69550   0.53770   0.28740   0.01267  Uiso   1.00
H36    H     0.84130   0.78480   0.46500   0.01267  Uiso   1.00
H37    H     0.78480   0.84130   0.46500   0.01267  Uiso   1.00
H38    H     0.07390   0.29870   0.00000   0.01267  Uiso   1.00
H39    H     0.99120   0.14720   0.19920   0.01267  Uiso   1.00
H40    H     0.23580   0.30300   0.38100   0.01267  Uiso   1.00
H41    H     0.79200   0.85280   0.80080   0.01267  Uiso   1.00
H42    H     0.60460   0.60460   0.84340   0.01267  Uiso   1.00
H43    H     0.76120   0.76120   0.15660   0.01267  Uiso   1.00
H44    H     0.39540   0.39540   0.15660   0.01267  Uiso   1.00
H45    H     0.78480   0.62370   0.46500   0.01267  Uiso   1.00
H46    H     0.59190   0.53770   0.28740   0.01267  Uiso   1.00
H47    H     0.14150   0.70410   0.84560   0.01267  Uiso   1.00
H48    H     0.62370   0.78480   0.46500   0.01267  Uiso   1.00
H49    H     0.68020   0.62370   0.46500   0.01267  Uiso   1.00
H50    H     0.76420   0.92200   0.61900   0.01267  Uiso   1.00
H51    H     0.07390   0.70130  -0.00000   0.01267  Uiso   1.00
H52    H     0.31980   0.15870   0.53500   0.01267  Uiso   1.00
H53    H     0.53770   0.69550   0.28740   0.01267  Uiso   1.00
H54    H     0.70130   0.92610  -0.00000   0.01267  Uiso   1.00
H55    H     0.92610   0.70130  -0.00000   0.01267  Uiso   1.00
H56    H     0.21520   0.15870   0.53500   0.01267  Uiso   1.00
H57    H     0.37630   0.31980   0.53500   0.01267  Uiso   1.00
H58    H     0.14520   0.30300   0.38100   0.01267  Uiso   1.00
H59    H     0.30450   0.25030   0.71260   0.01267  Uiso   1.00
H60    H     0.15870   0.21520   0.53500   0.01267  Uiso   1.00
H61    H     0.05200   0.99120   0.19920   0.01267  Uiso   1.00
H62    H     0.94800   0.79200   0.80080   0.01267  Uiso   1.00
H63    H     0.29590   0.29590   0.15440   0.01267  Uiso   1.00
H64    H     0.15870   0.31980   0.53500   0.01267  Uiso   1.00
H65    H     0.84130   0.68020   0.46500   0.01267  Uiso   1.00
H66    H     0.69550   0.74970   0.28740   0.01267  Uiso   1.00
H67    H     0.92200   0.85480   0.61900   0.01267  Uiso   1.00
H68    H     0.07800   0.14520   0.38100   0.01267  Uiso   1.00
H69    H     0.14150   0.14150   0.84560   0.01267  Uiso   1.00
H70    H     0.99120   0.05200   0.19920   0.01267  Uiso   1.00
H71    H     0.40810   0.46230   0.71260   0.01267  Uiso   1.00
H72    H     0.07800   0.23580   0.38100   0.01267  Uiso   1.00
H73    H     0.85480   0.92200   0.61900   0.01267  Uiso   1.00
H74    H     0.59190   0.74970   0.28740   0.01267  Uiso   1.00
H75    H     0.85480   0.69700   0.61900   0.01267  Uiso   1.00
H76    H     0.14720   0.99120   0.19920   0.01267  Uiso   1.00
H77    H     0.74970   0.69550   0.28740   0.01267  Uiso   1.00
H78    H     0.76120   0.39540   0.15660   0.01267  Uiso   1.00
H79    H     0.60460   0.23880   0.84340   0.01267  Uiso   1.00
H80    H     0.05200   0.20800   0.19920   0.01267  Uiso   1.00
H81    H     0.29870   0.92610   0.00000   0.01267  Uiso   1.00
H82    H     0.94800   0.00880   0.80080   0.01267  Uiso   1.00
H83    H     0.29870   0.07390   0.00000   0.01267  Uiso   1.00
H84    H     0.85850   0.29590   0.15440   0.01267  Uiso   1.00
H85    H     0.14720   0.20800   0.19920   0.01267  Uiso   1.00
H86    H     0.30300   0.23580   0.38100   0.01267  Uiso   1.00
H87    H     0.46230   0.30450   0.71260   0.01267  Uiso   1.00
H88    H     0.20800   0.14720   0.19920   0.01267  Uiso   1.00
C1     C     0.85500   0.76150   0.65560   0.01267  Uiso   1.00
C2     C     0.31580   0.34870   0.57020   0.01267  Uiso   1.00
C3     C     0.34870   0.25440   0.57020   0.01267  Uiso   1.00
C4     C     0.63220   0.60050   0.32440   0.01267  Uiso   1.00
C5     C     0.89410   0.85500   0.65560   0.01267  Uiso   1.00
C6     C     0.10590   0.19940   0.34440   0.01267  Uiso   1.00
C7     C     0.76150   0.80060   0.65560   0.01267  Uiso   1.00
C8     C     0.90900   0.94520   0.76340   0.01267  Uiso   1.00
C9     C     0.14650   0.85350   0.00000   0.01267  Uiso   1.00
C10    C     0.74560   0.65130   0.42980   0.01267  Uiso   1.00
C11    C     0.93410   0.17080  -0.00000   0.01267  Uiso   1.00
C12    C     0.06590   0.82920   0.00000   0.01267  Uiso   1.00
C13    C     0.65130   0.74560   0.42980   0.01267  Uiso   1.00
C14    C     0.18180   0.14560   0.23660   0.01267  Uiso   1.00
C15    C     0.71610   0.19370   0.90980   0.01267  Uiso   1.00
C16    C     0.32780   0.67220   0.00000   0.01267  Uiso   1.00
C17    C     0.22150   0.31580   0.57020   0.01267  Uiso   1.00
C18    C     0.23850   0.14500   0.34440   0.01267  Uiso   1.00
C19    C     0.19800   0.19800   0.39600   0.01267  Uiso   1.00
C20    C     0.81820   0.90900   0.76340   0.01267  Uiso   1.00
C21    C     0.79080   0.79080  -0.00000   0.01267  Uiso   1.00
C22    C     0.30780   0.39950   0.67560   0.01267  Uiso   1.00
C23    C     0.22150   0.25440   0.57020   0.01267  Uiso   1.00
C24    C     0.10590   0.14500   0.34440   0.01267  Uiso   1.00
C25    C     0.80200   0.80200   0.60400   0.01267  Uiso   1.00
C26    C     0.85350   0.85350   0.00000   0.01267  Uiso   1.00
C27    C     0.79080   0.20920   0.00000   0.01267  Uiso   1.00
C28    C     0.39950   0.36780   0.67560   0.01267  Uiso   1.00
C29    C     0.25680   0.25680   0.51360   0.01267  Uiso   1.00
C30    C     0.28390   0.28390   0.09020   0.01267  Uiso   1.00
C31    C     0.69220   0.72390   0.32440   0.01267  Uiso   1.00
C32    C     0.74730   0.95980   0.00000   0.01267  Uiso   1.00
C33    C     0.80060   0.76150   0.65560   0.01267  Uiso   1.00
C34    C     0.85440   0.81820   0.76340   0.01267  Uiso   1.00
C35    C     0.76150   0.85500   0.65560   0.01267  Uiso   1.00
C36    C     0.31580   0.22150   0.57020   0.01267  Uiso   1.00
C37    C     0.17080   0.06590  -0.00000   0.01267  Uiso   1.00
C38    C     0.74840   0.34340   0.09180   0.01267  Uiso   1.00
C39    C     0.05480   0.09100   0.23660   0.01267  Uiso   1.00
C40    C     0.20920   0.79080   0.00000   0.01267  Uiso   1.00
C41    C     0.80630   0.28390   0.09020   0.01267  Uiso   1.00
C42    C     0.19940   0.10590   0.34440   0.01267  Uiso   1.00
C43    C     0.94520   0.85440   0.76340   0.01267  Uiso   1.00
C44    C     0.94520   0.90900   0.76340   0.01267  Uiso   1.00
C45    C     0.39950   0.30780   0.67560   0.01267  Uiso   1.00
C46    C     0.72390   0.63220   0.32440   0.01267  Uiso   1.00
C47    C     0.19370   0.71610   0.90980   0.01267  Uiso   1.00
C48    C     0.60870   0.39130   0.00000   0.01267  Uiso   1.00
C49    C     0.19370   0.19370   0.90980   0.01267  Uiso   1.00
C50    C     0.34340   0.34340   0.09180   0.01267  Uiso   1.00
C51    C     0.14500   0.23850   0.34440   0.01267  Uiso   1.00
C52    C     0.67220   0.32780   0.00000   0.01267  Uiso   1.00
C53    C     0.25440   0.34870   0.57020   0.01267  Uiso   1.00
C54    C     0.74560   0.77850   0.42980   0.01267  Uiso   1.00
C55    C     0.69220   0.60050   0.32440   0.01267  Uiso   1.00
C56    C     0.39130   0.60870   0.00000   0.01267  Uiso   1.00
C57    C     0.95980   0.25270   0.00000   0.01267  Uiso   1.00
C58    C     0.95980   0.74730   0.00000   0.01267  Uiso   1.00
C59    C     0.09100   0.05480   0.23660   0.01267  Uiso   1.00
C60    C     0.67220   0.67220   0.00000   0.01267  Uiso   1.00
C61    C     0.14560   0.18180   0.23660   0.01267  Uiso   1.00
C62    C     0.36780   0.27610   0.67560   0.01267  Uiso   1.00
C63    C     0.93410   0.82920  -0.00000   0.01267  Uiso   1.00
C64    C     0.81820   0.85440   0.76340   0.01267  Uiso   1.00
C65    C     0.19940   0.23850   0.34440   0.01267  Uiso   1.00
C66    C     0.18180   0.09100   0.23660   0.01267  Uiso   1.00
C67    C     0.80630   0.80630   0.09020   0.01267  Uiso   1.00
C68    C     0.77850   0.68420   0.42980   0.01267  Uiso   1.00
C69    C     0.82920   0.06590   0.00000   0.01267  Uiso   1.00
C70    C     0.80060   0.89410   0.65560   0.01267  Uiso   1.00
C71    C     0.74320   0.74320   0.48640   0.01267  Uiso   1.00
C72    C     0.25440   0.22150   0.57020   0.01267  Uiso   1.00
C73    C     0.14560   0.05480   0.23660   0.01267  Uiso   1.00
C74    C     0.34870   0.31580   0.57020   0.01267  Uiso   1.00
C75    C     0.25270   0.95980   0.00000   0.01267  Uiso   1.00
C76    C     0.89410   0.80060   0.65560   0.01267  Uiso   1.00
C77    C     0.20920   0.20920  -0.00000   0.01267  Uiso   1.00
C78    C     0.17080   0.93410   0.00000   0.01267  Uiso   1.00
C79    C     0.85440   0.94520   0.76340   0.01267  Uiso   1.00
C80    C     0.04020   0.74730   0.00000   0.01267  Uiso   1.00
C81    C     0.90900   0.81820   0.76340   0.01267  Uiso   1.00
C82    C     0.05480   0.14560   0.23660   0.01267  Uiso   1.00
C83    C     0.60050   0.69220   0.32440   0.01267  Uiso   1.00
C84    C     0.04020   0.25270   0.00000   0.01267  Uiso   1.00
C85    C     0.85350   0.14650   0.00000   0.01267  Uiso   1.00
C86    C     0.14500   0.10590   0.34440   0.01267  Uiso   1.00
C87    C     0.71610   0.71610   0.90980   0.01267  Uiso   1.00
C88    C     0.74840   0.74840   0.09180   0.01267  Uiso   1.00
C89    C     0.25160   0.25160   0.90820   0.01267  Uiso   1.00
C90    C     0.65130   0.68420   0.42980   0.01267  Uiso   1.00
C91    C     0.74730   0.04020   0.00000   0.01267  Uiso   1.00
C92    C     0.25160   0.65660   0.90820   0.01267  Uiso   1.00
C93    C     0.60050   0.63220   0.32440   0.01267  Uiso   1.00
C94    C     0.27610   0.30780   0.67560   0.01267  Uiso   1.00
C95    C     0.65660   0.65660   0.90820   0.01267  Uiso   1.00
C96    C     0.68420   0.65130   0.42980   0.01267  Uiso   1.00
C97    C     0.63220   0.72390   0.32440   0.01267  Uiso   1.00
C98    C     0.28390   0.80630   0.09020   0.01267  Uiso   1.00
C99    C     0.30780   0.27610   0.67560   0.01267  Uiso   1.00
C100   C     0.60870   0.60870   0.00000   0.01267  Uiso   1.00
C101   C     0.14650   0.14650  -0.00000   0.01267  Uiso   1.00
C102   C     0.36780   0.39950   0.67560   0.01267  Uiso   1.00
C103   C     0.39130   0.39130  -0.00000   0.01267  Uiso   1.00
C104   C     0.09100   0.18180   0.23660   0.01267  Uiso   1.00
C105   C     0.72390   0.69220   0.32440   0.01267  Uiso   1.00
C106   C     0.77850   0.74560   0.42980   0.01267  Uiso   1.00
C107   C     0.06590   0.17080  -0.00000   0.01267  Uiso   1.00
C108   C     0.68420   0.77850   0.42980   0.01267  Uiso   1.00
C109   C     0.82920   0.93410   0.00000   0.01267  Uiso   1.00
C110   C     0.32780   0.32780  -0.00000   0.01267  Uiso   1.00
C111   C     0.34340   0.74840   0.09180   0.01267  Uiso   1.00
C112   C     0.23850   0.19940   0.34440   0.01267  Uiso   1.00
C113   C     0.25270   0.04020   0.00000   0.01267  Uiso   1.00
C114   C     0.27610   0.36780   0.67560   0.01267  Uiso   1.00
C115   C     0.65660   0.25160   0.90820   0.01267  Uiso   1.00
C116   C     0.85500   0.89410   0.65560   0.01267  Uiso   1.00
N1     N     0.90870   0.90870   0.81740   0.01267  Uiso   1.00
N2     N     0.36500   0.36500   0.73000   0.01267  Uiso   1.00
N3     N     0.00000   0.87920   0.00000   0.01267  Uiso   1.00
N4     N     0.63500   0.63500   0.27000   0.01267  Uiso   1.00
N5     N     0.09130   0.09130   0.18260   0.01267  Uiso   1.00
N6     N     0.12080   0.00000   0.00000   0.01267  Uiso   1.00
N7     N     0.00000   0.12080   0.00000   0.01267  Uiso   1.00
N8     N     0.87920   0.00000  -0.00000   0.01267  Uiso   1.00
O1     O     0.62676   0.62676   0.08466   0.01267  Uiso   1.00
O2     O     0.37324   0.54210   0.91534   0.01267  Uiso   1.00
O3     O     0.45790   0.45790   0.08466   0.01267  Uiso   1.00
O4     O     0.45790   0.62676   0.08466   0.01267  Uiso   1.00
O5     O     0.54210   0.54210   0.91534   0.01267  Uiso   1.00
O6     O     0.54210   0.37324   0.91534   0.01267  Uiso   1.00
O7     O     0.37324   0.37324   0.91534   0.01267  Uiso   1.00
O8     O     0.62676   0.45790   0.08466   0.01267  Uiso   1.00
