data_image0
_cell_length_a       23.065
_cell_length_b       19.498
_cell_length_c       9.529
_cell_angle_alpha    90
_cell_angle_beta     94.91
_cell_angle_gamma    90

_symmetry_space_group_name_H-M    "P 1"
_symmetry_int_tables_number       1

loop_
  _symmetry_equiv_pos_as_xyz
  'x, y, z'

loop_
  _atom_site_label
  _atom_site_occupancy
  _atom_site_fract_x
  _atom_site_fract_y
  _atom_site_fract_z
  _atom_site_thermal_displace_type
  _atom_site_B_iso_or_equiv
  _atom_site_type_symbol
  Cu1      1.0000 0.49700  0.22219  0.60839  Biso   1.000  Cu
  O1       1.0000 0.56010  0.29000  0.64800  Biso   1.000  O
  O2       1.0000 0.56110  0.29620  0.87860  Biso   1.000  O
  O3       1.0000 0.93350  0.65430  0.62530  Biso   1.000  O
  O4       1.0000 0.94500  0.64940  0.85690  Biso   1.000  O
  C1       1.0000 0.57830  0.31030  0.76550  Biso   1.000  C
  C2       1.0000 0.92160  0.63460  0.73870  Biso   1.000  C
  C3       1.0000 0.63040  0.36120  0.77470  Biso   1.000  C
  C4       1.0000 0.62410  0.42220  0.69910  Biso   1.000  C
  F1       1.0000 0.57260  0.43830  0.63120  Biso   1.000  F
  C5       1.0000 0.67120  0.46630  0.69410  Biso   1.000  C
  F2       1.0000 0.66510  0.52510  0.62130  Biso   1.000  F
  C6       1.0000 0.72450  0.44960  0.76460  Biso   1.000  C
  C7       1.0000 0.73080  0.38870  0.84010  Biso   1.000  C
  F3       1.0000 0.78230  0.37250  0.90810  Biso   1.000  F
  C8       1.0000 0.68370  0.34450  0.84520  Biso   1.000  C
  F4       1.0000 0.68980  0.28580  0.91800  Biso   1.000  F
  C9       1.0000 0.86930  0.58600  0.73980  Biso   1.000  C
  C10      1.0000 0.87000  0.52170  0.67690  Biso   1.000  C
  F5       1.0000 0.91540  0.50270  0.60720  Biso   1.000  F
  C11      1.0000 0.82340  0.47710  0.68620  Biso   1.000  C
  F6       1.0000 0.82400  0.41510  0.62550  Biso   1.000  F
  C12      1.0000 0.77630  0.49680  0.75840  Biso   1.000  C
  C13      1.0000 0.77560  0.56110  0.82140  Biso   1.000  C
  F7       1.0000 0.73020  0.58010  0.89100  Biso   1.000  F
  C14      1.0000 0.82220  0.60570  0.81200  Biso   1.000  C
  F8       1.0000 0.82160  0.66760  0.87270  Biso   1.000  F
  N1       1.0000 0.49960  0.22230  0.38670  Biso   1.000  N
  C15      1.0000 0.52470  0.28640  0.33500  Biso   1.000  C
  C16      1.0000 0.49440  0.15180  0.32860  Biso   1.000  C
  C17      1.0000 0.51580  0.29080  0.17200  Biso   1.000  C
  C18      1.0000 0.45120  0.26260  0.31500  Biso   1.000  C
  C19      1.0000 0.44310  0.24620  0.15600  Biso   1.000  C
  C20      1.0000 0.44210  0.20460  0.15700  Biso   1.000  C
  C21      1.0000 0.45760  0.17260  0.32100  Biso   1.000  C
  C22      1.0000 0.44010  0.21570  0.31600  Biso   1.000  C
  C23      1.0000 0.53450  0.16470  0.33700  Biso   1.000  C
  C24      1.0000 0.62880  0.36210  0.76330  Biso   1.000  C
  C25      1.0000 0.62810  0.41420  0.66370  Biso   1.000  C
  F9       1.0000 0.58200  0.42190  0.56970  Biso   1.000  F
  C26      1.0000 0.67540  0.45840  0.66160  Biso   1.000  C
  F10      1.0000 0.67470  0.50860  0.56550  Biso   1.000  F
  C27      1.0000 0.72330  0.45040  0.75910  Biso   1.000  C
  C28      1.0000 0.72390  0.39830  0.85870  Biso   1.000  C
  F11      1.0000 0.77010  0.39060  0.95280  Biso   1.000  F
  C29      1.0000 0.67670  0.35410  0.86090  Biso   1.000  C
  F12      1.0000 0.67740  0.30390  0.95690  Biso   1.000  F
  C30      1.0000 0.86940  0.58540  0.74250  Biso   1.000  C
  C31      1.0000 0.87530  0.51590  0.71510  Biso   1.000  C
  F13      1.0000 0.92660  0.49100  0.68230  Biso   1.000  F
  C32      1.0000 0.82810  0.47210  0.72170  Biso   1.000  C
  F14      1.0000 0.83380  0.40500  0.69530  Biso   1.000  F
  C33      1.0000 0.77490  0.49780  0.75580  Biso   1.000  C
  C34      1.0000 0.76890  0.56740  0.78320  Biso   1.000  C
  F15      1.0000 0.71760  0.59220  0.81600  Biso   1.000  F
  C35      1.0000 0.81610  0.61120  0.77660  Biso   1.000  C
  F16      1.0000 0.81040  0.67820  0.80300  Biso   1.000  F
  H1       1.0000 0.51510  0.12160  0.35290  Biso   1.000  H
  H2       1.0000 0.57240  0.16380  0.39010  Biso   1.000  H
  H3       1.0000 0.58170  0.18810  0.16750  Biso   1.000  H
  H4       1.0000 0.53700  0.12850  0.13290  Biso   1.000  H
  H5       1.0000 0.41810  0.25690  0.33250  Biso   1.000  H
  H6       1.0000 0.42050  0.17720  0.35640  Biso   1.000  H
  H7       1.0000 0.43340  0.15700  0.13370  Biso   1.000  H
  H8       1.0000 0.41290  0.23300  0.10590  Biso   1.000  H
  H9       1.0000 0.56590  0.28810  0.36420  Biso   1.000  H
  H10      1.0000 0.50620  0.32550  0.37520  Biso   1.000  H
  H11      1.0000 0.48500  0.32320  0.14430  Biso   1.000  H
  H12      1.0000 0.55130  0.30690  0.13500  Biso   1.000  H
  H13      1.0000 0.45580  0.13410  0.33950  Biso   1.000  H
  H14      1.0000 0.52240  0.12210  0.38030  Biso   1.000  H
  H15      1.0000 0.45920  0.31110  0.32820  Biso   1.000  H
  H16      1.0000 0.41550  0.25220  0.35790  Biso   1.000  H
  H17      1.0000 0.41390  0.21070  0.13840  Biso   1.000  H
  H18      1.0000 0.43050  0.28680  0.10360  Biso   1.000  H
  Cu2      1.0000 0.99700  0.72219  0.60839  Biso   1.000  Cu
  O5       1.0000 0.06010  0.79000  0.64800  Biso   1.000  O
  O6       1.0000 0.06110  0.79620  0.87860  Biso   1.000  O
  O7       1.0000 0.43350  0.15430  0.62530  Biso   1.000  O
  O8       1.0000 0.44500  0.14940  0.85690  Biso   1.000  O
  C36      1.0000 0.07830  0.81030  0.76550  Biso   1.000  C
  C37      1.0000 0.42160  0.13460  0.73870  Biso   1.000  C
  C38      1.0000 0.13040  0.86120  0.77470  Biso   1.000  C
  C39      1.0000 0.12410  0.92220  0.69910  Biso   1.000  C
  F17      1.0000 0.07260  0.93830  0.63120  Biso   1.000  F
  C40      1.0000 0.17120  0.96630  0.69410  Biso   1.000  C
  F18      1.0000 0.16510  0.02510  0.62130  Biso   1.000  F
  C41      1.0000 0.22450  0.94960  0.76460  Biso   1.000  C
  C42      1.0000 0.23080  0.88870  0.84010  Biso   1.000  C
  F19      1.0000 0.28230  0.87250  0.90810  Biso   1.000  F
  C43      1.0000 0.18370  0.84450  0.84520  Biso   1.000  C
  F20      1.0000 0.18980  0.78580  0.91800  Biso   1.000  F
  C44      1.0000 0.36930  0.08600  0.73980  Biso   1.000  C
  C45      1.0000 0.37000  0.02170  0.67690  Biso   1.000  C
  F21      1.0000 0.41540  0.00270  0.60720  Biso   1.000  F
  C46      1.0000 0.32340  0.97710  0.68620  Biso   1.000  C
  F22      1.0000 0.32400  0.91510  0.62550  Biso   1.000  F
  C47      1.0000 0.27630  0.99680  0.75840  Biso   1.000  C
  C48      1.0000 0.27560  0.06110  0.82140  Biso   1.000  C
  F23      1.0000 0.23020  0.08010  0.89100  Biso   1.000  F
  C49      1.0000 0.32220  0.10570  0.81200  Biso   1.000  C
  F24      1.0000 0.32160  0.16760  0.87270  Biso   1.000  F
  N2       1.0000 0.99960  0.72230  0.38670  Biso   1.000  N
  C50      1.0000 0.02470  0.78640  0.33500  Biso   1.000  C
  C51      1.0000 0.99440  0.65180  0.32860  Biso   1.000  C
  C52      1.0000 0.01580  0.79080  0.17200  Biso   1.000  C
  C53      1.0000 0.95120  0.76260  0.31500  Biso   1.000  C
  C54      1.0000 0.94310  0.74620  0.15600  Biso   1.000  C
  C55      1.0000 0.94210  0.70460  0.15700  Biso   1.000  C
  C56      1.0000 0.95760  0.67260  0.32100  Biso   1.000  C
  C57      1.0000 0.94010  0.71570  0.31600  Biso   1.000  C
  C58      1.0000 0.03450  0.66470  0.33700  Biso   1.000  C
  C59      1.0000 0.12880  0.86210  0.76330  Biso   1.000  C
  C60      1.0000 0.12810  0.91420  0.66370  Biso   1.000  C
  F25      1.0000 0.08200  0.92190  0.56970  Biso   1.000  F
  C61      1.0000 0.17540  0.95840  0.66160  Biso   1.000  C
  F26      1.0000 0.17470  0.00860  0.56550  Biso   1.000  F
  C62      1.0000 0.22330  0.95040  0.75910  Biso   1.000  C
  C63      1.0000 0.22390  0.89830  0.85870  Biso   1.000  C
  F27      1.0000 0.27010  0.89060  0.95280  Biso   1.000  F
  C64      1.0000 0.17670  0.85410  0.86090  Biso   1.000  C
  F28      1.0000 0.17740  0.80390  0.95690  Biso   1.000  F
  C65      1.0000 0.36940  0.08540  0.74250  Biso   1.000  C
  C66      1.0000 0.37530  0.01590  0.71510  Biso   1.000  C
  F29      1.0000 0.42660  0.99100  0.68230  Biso   1.000  F
  C67      1.0000 0.32810  0.97210  0.72170  Biso   1.000  C
  F30      1.0000 0.33380  0.90500  0.69530  Biso   1.000  F
  C68      1.0000 0.27490  0.99780  0.75580  Biso   1.000  C
  C69      1.0000 0.26890  0.06740  0.78320  Biso   1.000  C
  F31      1.0000 0.21760  0.09220  0.81600  Biso   1.000  F
  C70      1.0000 0.31610  0.11120  0.77660  Biso   1.000  C
  F32      1.0000 0.31040  0.17820  0.80300  Biso   1.000  F
  H19      1.0000 0.01510  0.62160  0.35290  Biso   1.000  H
  H20      1.0000 0.07240  0.66380  0.39010  Biso   1.000  H
  H21      1.0000 0.08170  0.68810  0.16750  Biso   1.000  H
  H22      1.0000 0.03700  0.62850  0.13290  Biso   1.000  H
  H23      1.0000 0.91810  0.75690  0.33250  Biso   1.000  H
  H24      1.0000 0.92050  0.67720  0.35640  Biso   1.000  H
  H25      1.0000 0.93340  0.65700  0.13370  Biso   1.000  H
  H26      1.0000 0.91290  0.73300  0.10590  Biso   1.000  H
  H27      1.0000 0.06590  0.78810  0.36420  Biso   1.000  H
  H28      1.0000 0.00620  0.82550  0.37520  Biso   1.000  H
  H29      1.0000 0.98500  0.82320  0.14430  Biso   1.000  H
  H30      1.0000 0.05130  0.80690  0.13500  Biso   1.000  H
  H31      1.0000 0.95580  0.63410  0.33950  Biso   1.000  H
  H32      1.0000 0.02240  0.62210  0.38030  Biso   1.000  H
  H33      1.0000 0.95920  0.81110  0.32820  Biso   1.000  H
  H34      1.0000 0.91550  0.75220  0.35790  Biso   1.000  H
  H35      1.0000 0.91390  0.71070  0.13840  Biso   1.000  H
  H36      1.0000 0.93050  0.78680  0.10360  Biso   1.000  H
  Cu3      1.0000 0.50300  0.22219  0.89161  Biso   1.000  Cu
  O9       1.0000 0.43990  0.29000  0.85200  Biso   1.000  O
  O10      1.0000 0.43890  0.29620  0.62140  Biso   1.000  O
  O11      1.0000 0.06650  0.65430  0.87470  Biso   1.000  O
  O12      1.0000 0.05500  0.64940  0.64310  Biso   1.000  O
  C71      1.0000 0.42170  0.31030  0.73450  Biso   1.000  C
  C72      1.0000 0.07840  0.63460  0.76130  Biso   1.000  C
  C73      1.0000 0.36960  0.36120  0.72530  Biso   1.000  C
  C74      1.0000 0.37590  0.42220  0.80090  Biso   1.000  C
  F33      1.0000 0.42740  0.43830  0.86880  Biso   1.000  F
  C75      1.0000 0.32880  0.46630  0.80590  Biso   1.000  C
  F34      1.0000 0.33490  0.52510  0.87870  Biso   1.000  F
  C76      1.0000 0.27550  0.44960  0.73540  Biso   1.000  C
  C77      1.0000 0.26920  0.38870  0.65990  Biso   1.000  C
  F35      1.0000 0.21770  0.37250  0.59190  Biso   1.000  F
  C78      1.0000 0.31630  0.34450  0.65480  Biso   1.000  C
  F36      1.0000 0.31020  0.28580  0.58200  Biso   1.000  F
  C79      1.0000 0.13070  0.58600  0.76020  Biso   1.000  C
  C80      1.0000 0.13000  0.52170  0.82310  Biso   1.000  C
  F37      1.0000 0.08460  0.50270  0.89280  Biso   1.000  F
  C81      1.0000 0.17660  0.47710  0.81380  Biso   1.000  C
  F38      1.0000 0.17600  0.41510  0.87450  Biso   1.000  F
  C82      1.0000 0.22370  0.49680  0.74160  Biso   1.000  C
  C83      1.0000 0.22440  0.56110  0.67860  Biso   1.000  C
  F39      1.0000 0.26980  0.58010  0.60900  Biso   1.000  F
  C84      1.0000 0.17780  0.60570  0.68800  Biso   1.000  C
  F40      1.0000 0.17840  0.66760  0.62730  Biso   1.000  F
  N3       1.0000 0.50040  0.22230  0.11330  Biso   1.000  N
  C85      1.0000 0.47530  0.28640  0.16500  Biso   1.000  C
  C86      1.0000 0.50560  0.15180  0.17140  Biso   1.000  C
  C87      1.0000 0.48420  0.29080  0.32800  Biso   1.000  C
  C88      1.0000 0.54880  0.26260  0.18500  Biso   1.000  C
  C89      1.0000 0.55690  0.24620  0.34400  Biso   1.000  C
  C90      1.0000 0.55790  0.20460  0.34300  Biso   1.000  C
  C91      1.0000 0.54240  0.17260  0.17900  Biso   1.000  C
  C92      1.0000 0.55990  0.21570  0.18400  Biso   1.000  C
  C93      1.0000 0.46550  0.16470  0.16300  Biso   1.000  C
  C94      1.0000 0.37120  0.36210  0.73670  Biso   1.000  C
  C95      1.0000 0.37190  0.41420  0.83630  Biso   1.000  C
  F41      1.0000 0.41800  0.42190  0.93030  Biso   1.000  F
  C96      1.0000 0.32460  0.45840  0.83840  Biso   1.000  C
  F42      1.0000 0.32530  0.50860  0.93450  Biso   1.000  F
  C97      1.0000 0.27670  0.45040  0.74090  Biso   1.000  C
  C98      1.0000 0.27610  0.39830  0.64130  Biso   1.000  C
  F43      1.0000 0.22990  0.39060  0.54720  Biso   1.000  F
  C99      1.0000 0.32330  0.35410  0.63910  Biso   1.000  C
  F44      1.0000 0.32260  0.30390  0.54310  Biso   1.000  F
  C100     1.0000 0.13060  0.58540  0.75750  Biso   1.000  C
  C101     1.0000 0.12470  0.51590  0.78490  Biso   1.000  C
  F45      1.0000 0.07340  0.49100  0.81770  Biso   1.000  F
  C102     1.0000 0.17190  0.47210  0.77830  Biso   1.000  C
  F46      1.0000 0.16620  0.40500  0.80470  Biso   1.000  F
  C103     1.0000 0.22510  0.49780  0.74420  Biso   1.000  C
  C104     1.0000 0.23110  0.56740  0.71680  Biso   1.000  C
  F47      1.0000 0.28240  0.59220  0.68400  Biso   1.000  F
  C105     1.0000 0.18390  0.61120  0.72340  Biso   1.000  C
  F48      1.0000 0.18960  0.67820  0.69700  Biso   1.000  F
  H37      1.0000 0.48490  0.12160  0.14710  Biso   1.000  H
  H38      1.0000 0.42760  0.16380  0.10990  Biso   1.000  H
  H39      1.0000 0.41830  0.18810  0.33250  Biso   1.000  H
  H40      1.0000 0.46300  0.12850  0.36710  Biso   1.000  H
  H41      1.0000 0.58190  0.25690  0.16750  Biso   1.000  H
  H42      1.0000 0.57950  0.17720  0.14360  Biso   1.000  H
  H43      1.0000 0.56660  0.15700  0.36630  Biso   1.000  H
  H44      1.0000 0.58710  0.23300  0.39410  Biso   1.000  H
  H45      1.0000 0.43410  0.28810  0.13580  Biso   1.000  H
  H46      1.0000 0.49380  0.32550  0.12480  Biso   1.000  H
  H47      1.0000 0.51500  0.32320  0.35570  Biso   1.000  H
  H48      1.0000 0.44870  0.30690  0.36500  Biso   1.000  H
  H49      1.0000 0.54420  0.13410  0.16050  Biso   1.000  H
  H50      1.0000 0.47760  0.12210  0.11970  Biso   1.000  H
  H51      1.0000 0.54080  0.31110  0.17180  Biso   1.000  H
  H52      1.0000 0.58450  0.25220  0.14210  Biso   1.000  H
  H53      1.0000 0.58610  0.21070  0.36160  Biso   1.000  H
  H54      1.0000 0.56950  0.28680  0.39640  Biso   1.000  H
  Cu4      1.0000 0.00300  0.72219  0.89161  Biso   1.000  Cu
  O13      1.0000 0.93990  0.79000  0.85200  Biso   1.000  O
  O14      1.0000 0.93890  0.79620  0.62140  Biso   1.000  O
  O15      1.0000 0.56650  0.15430  0.87470  Biso   1.000  O
  O16      1.0000 0.55500  0.14940  0.64310  Biso   1.000  O
  C106     1.0000 0.92170  0.81030  0.73450  Biso   1.000  C
  C107     1.0000 0.57840  0.13460  0.76130  Biso   1.000  C
  C108     1.0000 0.86960  0.86120  0.72530  Biso   1.000  C
  C109     1.0000 0.87590  0.92220  0.80090  Biso   1.000  C
  F49      1.0000 0.92740  0.93830  0.86880  Biso   1.000  F
  C110     1.0000 0.82880  0.96630  0.80590  Biso   1.000  C
  F50      1.0000 0.83490  0.02510  0.87870  Biso   1.000  F
  C111     1.0000 0.77550  0.94960  0.73540  Biso   1.000  C
  C112     1.0000 0.76920  0.88870  0.65990  Biso   1.000  C
  F51      1.0000 0.71770  0.87250  0.59190  Biso   1.000  F
  C113     1.0000 0.81630  0.84450  0.65480  Biso   1.000  C
  F52      1.0000 0.81020  0.78580  0.58200  Biso   1.000  F
  C114     1.0000 0.63070  0.08600  0.76020  Biso   1.000  C
  C115     1.0000 0.63000  0.02170  0.82310  Biso   1.000  C
  F53      1.0000 0.58460  0.00270  0.89280  Biso   1.000  F
  C116     1.0000 0.67660  0.97710  0.81380  Biso   1.000  C
  F54      1.0000 0.67600  0.91510  0.87450  Biso   1.000  F
  C117     1.0000 0.72370  0.99680  0.74160  Biso   1.000  C
  C118     1.0000 0.72440  0.06110  0.67860  Biso   1.000  C
  F55      1.0000 0.76980  0.08010  0.60900  Biso   1.000  F
  C119     1.0000 0.67780  0.10570  0.68800  Biso   1.000  C
  F56      1.0000 0.67840  0.16760  0.62730  Biso   1.000  F
  N4       1.0000 0.00040  0.72230  0.11330  Biso   1.000  N
  C120     1.0000 0.97530  0.78640  0.16500  Biso   1.000  C
  C121     1.0000 0.00560  0.65180  0.17140  Biso   1.000  C
  C122     1.0000 0.98420  0.79080  0.32800  Biso   1.000  C
  C123     1.0000 0.04880  0.76260  0.18500  Biso   1.000  C
  C124     1.0000 0.05690  0.74620  0.34400  Biso   1.000  C
  C125     1.0000 0.05790  0.70460  0.34300  Biso   1.000  C
  C126     1.0000 0.04240  0.67260  0.17900  Biso   1.000  C
  C127     1.0000 0.05990  0.71570  0.18400  Biso   1.000  C
  C128     1.0000 0.96550  0.66470  0.16300  Biso   1.000  C
  C129     1.0000 0.87120  0.86210  0.73670  Biso   1.000  C
  C130     1.0000 0.87190  0.91420  0.83630  Biso   1.000  C
  F57      1.0000 0.91800  0.92190  0.93030  Biso   1.000  F
  C131     1.0000 0.82460  0.95840  0.83840  Biso   1.000  C
  F58      1.0000 0.82530  0.00860  0.93450  Biso   1.000  F
  C132     1.0000 0.77670  0.95040  0.74090  Biso   1.000  C
  C133     1.0000 0.77610  0.89830  0.64130  Biso   1.000  C
  F59      1.0000 0.72990  0.89060  0.54720  Biso   1.000  F
  C134     1.0000 0.82330  0.85410  0.63910  Biso   1.000  C
  F60      1.0000 0.82260  0.80390  0.54310  Biso   1.000  F
  C135     1.0000 0.63060  0.08540  0.75750  Biso   1.000  C
  C136     1.0000 0.62470  0.01590  0.78490  Biso   1.000  C
  F61      1.0000 0.57340  0.99100  0.81770  Biso   1.000  F
  C137     1.0000 0.67190  0.97210  0.77830  Biso   1.000  C
  F62      1.0000 0.66620  0.90500  0.80470  Biso   1.000  F
  C138     1.0000 0.72510  0.99780  0.74420  Biso   1.000  C
  C139     1.0000 0.73110  0.06740  0.71680  Biso   1.000  C
  F63      1.0000 0.78240  0.09220  0.68400  Biso   1.000  F
  C140     1.0000 0.68390  0.11120  0.72340  Biso   1.000  C
  F64      1.0000 0.68960  0.17820  0.69700  Biso   1.000  F
  H55      1.0000 0.98490  0.62160  0.14710  Biso   1.000  H
  H56      1.0000 0.92760  0.66380  0.10990  Biso   1.000  H
  H57      1.0000 0.91830  0.68810  0.33250  Biso   1.000  H
  H58      1.0000 0.96300  0.62850  0.36710  Biso   1.000  H
  H59      1.0000 0.08190  0.75690  0.16750  Biso   1.000  H
  H60      1.0000 0.07950  0.67720  0.14360  Biso   1.000  H
  H61      1.0000 0.06660  0.65700  0.36630  Biso   1.000  H
  H62      1.0000 0.08710  0.73300  0.39410  Biso   1.000  H
  H63      1.0000 0.93410  0.78810  0.13580  Biso   1.000  H
  H64      1.0000 0.99380  0.82550  0.12480  Biso   1.000  H
  H65      1.0000 0.01500  0.82320  0.35570  Biso   1.000  H
  H66      1.0000 0.94870  0.80690  0.36500  Biso   1.000  H
  H67      1.0000 0.04420  0.63410  0.16050  Biso   1.000  H
  H68      1.0000 0.97760  0.62210  0.11970  Biso   1.000  H
  H69      1.0000 0.04080  0.81110  0.17180  Biso   1.000  H
  H70      1.0000 0.08450  0.75220  0.14210  Biso   1.000  H
  H71      1.0000 0.08610  0.71070  0.36160  Biso   1.000  H
  H72      1.0000 0.06950  0.78680  0.39640  Biso   1.000  H
  C141     1.0000 0.50000  0.22320  0.75000  Biso   1.000  C
  C142     1.0000 0.00000  0.72320  0.75000  Biso   1.000  C
  Cu5      1.0000 0.50300  0.77781  0.39161  Biso   1.000  Cu
  O17      1.0000 0.43990  0.71000  0.35200  Biso   1.000  O
  O18      1.0000 0.43890  0.70380  0.12140  Biso   1.000  O
  O19      1.0000 0.06650  0.34570  0.37470  Biso   1.000  O
  O20      1.0000 0.05500  0.35060  0.14310  Biso   1.000  O
  C143     1.0000 0.42170  0.68970  0.23450  Biso   1.000  C
  C144     1.0000 0.07840  0.36540  0.26130  Biso   1.000  C
  C145     1.0000 0.36960  0.63880  0.22530  Biso   1.000  C
  C146     1.0000 0.37590  0.57780  0.30090  Biso   1.000  C
  F65      1.0000 0.42740  0.56170  0.36880  Biso   1.000  F
  C147     1.0000 0.32880  0.53370  0.30590  Biso   1.000  C
  F66      1.0000 0.33490  0.47490  0.37870  Biso   1.000  F
  C148     1.0000 0.27550  0.55040  0.23540  Biso   1.000  C
  C149     1.0000 0.26920  0.61130  0.15990  Biso   1.000  C
  F67      1.0000 0.21770  0.62750  0.09190  Biso   1.000  F
  C150     1.0000 0.31630  0.65550  0.15480  Biso   1.000  C
  F68      1.0000 0.31020  0.71420  0.08200  Biso   1.000  F
  C151     1.0000 0.13070  0.41400  0.26020  Biso   1.000  C
  C152     1.0000 0.13000  0.47830  0.32310  Biso   1.000  C
  F69      1.0000 0.08460  0.49730  0.39280  Biso   1.000  F
  C153     1.0000 0.17660  0.52290  0.31380  Biso   1.000  C
  F70      1.0000 0.17600  0.58490  0.37450  Biso   1.000  F
  C154     1.0000 0.22370  0.50320  0.24160  Biso   1.000  C
  C155     1.0000 0.22440  0.43890  0.17860  Biso   1.000  C
  F71      1.0000 0.26980  0.41990  0.10900  Biso   1.000  F
  C156     1.0000 0.17780  0.39430  0.18800  Biso   1.000  C
  F72      1.0000 0.17840  0.33240  0.12730  Biso   1.000  F
  N5       1.0000 0.50040  0.77770  0.61330  Biso   1.000  N
  C157     1.0000 0.47530  0.71360  0.66500  Biso   1.000  C
  C158     1.0000 0.50560  0.84820  0.67140  Biso   1.000  C
  C159     1.0000 0.48420  0.70920  0.82800  Biso   1.000  C
  C160     1.0000 0.54880  0.73740  0.68500  Biso   1.000  C
  C161     1.0000 0.55690  0.75380  0.84400  Biso   1.000  C
  C162     1.0000 0.55790  0.79540  0.84300  Biso   1.000  C
  C163     1.0000 0.54240  0.82740  0.67900  Biso   1.000  C
  C164     1.0000 0.55990  0.78430  0.68400  Biso   1.000  C
  C165     1.0000 0.46550  0.83530  0.66300  Biso   1.000  C
  C166     1.0000 0.37120  0.63790  0.23670  Biso   1.000  C
  C167     1.0000 0.37190  0.58580  0.33630  Biso   1.000  C
  F73      1.0000 0.41800  0.57810  0.43030  Biso   1.000  F
  C168     1.0000 0.32460  0.54160  0.33840  Biso   1.000  C
  F74      1.0000 0.32530  0.49140  0.43450  Biso   1.000  F
  C169     1.0000 0.27670  0.54960  0.24090  Biso   1.000  C
  C170     1.0000 0.27610  0.60170  0.14130  Biso   1.000  C
  F75      1.0000 0.22990  0.60940  0.04720  Biso   1.000  F
  C171     1.0000 0.32330  0.64590  0.13910  Biso   1.000  C
  F76      1.0000 0.32260  0.69610  0.04310  Biso   1.000  F
  C172     1.0000 0.13060  0.41460  0.25750  Biso   1.000  C
  C173     1.0000 0.12470  0.48410  0.28490  Biso   1.000  C
  F77      1.0000 0.07340  0.50900  0.31770  Biso   1.000  F
  C174     1.0000 0.17190  0.52790  0.27830  Biso   1.000  C
  F78      1.0000 0.16620  0.59500  0.30470  Biso   1.000  F
  C175     1.0000 0.22510  0.50220  0.24420  Biso   1.000  C
  C176     1.0000 0.23110  0.43260  0.21680  Biso   1.000  C
  F79      1.0000 0.28240  0.40780  0.18400  Biso   1.000  F
  C177     1.0000 0.18390  0.38880  0.22340  Biso   1.000  C
  F80      1.0000 0.18960  0.32180  0.19700  Biso   1.000  F
  H73      1.0000 0.48490  0.87840  0.64710  Biso   1.000  H
  H74      1.0000 0.42760  0.83620  0.60990  Biso   1.000  H
  H75      1.0000 0.41830  0.81190  0.83250  Biso   1.000  H
  H76      1.0000 0.46300  0.87150  0.86710  Biso   1.000  H
  H77      1.0000 0.58190  0.74310  0.66750  Biso   1.000  H
  H78      1.0000 0.57950  0.82280  0.64360  Biso   1.000  H
  H79      1.0000 0.56660  0.84300  0.86630  Biso   1.000  H
  H80      1.0000 0.58710  0.76700  0.89410  Biso   1.000  H
  H81      1.0000 0.43410  0.71190  0.63580  Biso   1.000  H
  H82      1.0000 0.49380  0.67450  0.62480  Biso   1.000  H
  H83      1.0000 0.51500  0.67680  0.85570  Biso   1.000  H
  H84      1.0000 0.44870  0.69310  0.86500  Biso   1.000  H
  H85      1.0000 0.54420  0.86590  0.66050  Biso   1.000  H
  H86      1.0000 0.47760  0.87790  0.61970  Biso   1.000  H
  H87      1.0000 0.54080  0.68890  0.67180  Biso   1.000  H
  H88      1.0000 0.58450  0.74780  0.64210  Biso   1.000  H
  H89      1.0000 0.58610  0.78930  0.86160  Biso   1.000  H
  H90      1.0000 0.56950  0.71320  0.89640  Biso   1.000  H
  Cu6      1.0000 0.00300  0.27781  0.39161  Biso   1.000  Cu
  O21      1.0000 0.93990  0.21000  0.35200  Biso   1.000  O
  O22      1.0000 0.93890  0.20380  0.12140  Biso   1.000  O
  O23      1.0000 0.56650  0.84570  0.37470  Biso   1.000  O
  O24      1.0000 0.55500  0.85060  0.14310  Biso   1.000  O
  C178     1.0000 0.92170  0.18970  0.23450  Biso   1.000  C
  C179     1.0000 0.57840  0.86540  0.26130  Biso   1.000  C
  C180     1.0000 0.86960  0.13880  0.22530  Biso   1.000  C
  C181     1.0000 0.87590  0.07780  0.30090  Biso   1.000  C
  F81      1.0000 0.92740  0.06170  0.36880  Biso   1.000  F
  C182     1.0000 0.82880  0.03370  0.30590  Biso   1.000  C
  F82      1.0000 0.83490  0.97490  0.37870  Biso   1.000  F
  C183     1.0000 0.77550  0.05040  0.23540  Biso   1.000  C
  C184     1.0000 0.76920  0.11130  0.15990  Biso   1.000  C
  F83      1.0000 0.71770  0.12750  0.09190  Biso   1.000  F
  C185     1.0000 0.81630  0.15550  0.15480  Biso   1.000  C
  F84      1.0000 0.81020  0.21420  0.08200  Biso   1.000  F
  C186     1.0000 0.63070  0.91400  0.26020  Biso   1.000  C
  C187     1.0000 0.63000  0.97830  0.32310  Biso   1.000  C
  F85      1.0000 0.58460  0.99730  0.39280  Biso   1.000  F
  C188     1.0000 0.67660  0.02290  0.31380  Biso   1.000  C
  F86      1.0000 0.67600  0.08490  0.37450  Biso   1.000  F
  C189     1.0000 0.72370  0.00320  0.24160  Biso   1.000  C
  C190     1.0000 0.72440  0.93890  0.17860  Biso   1.000  C
  F87      1.0000 0.76980  0.91990  0.10900  Biso   1.000  F
  C191     1.0000 0.67780  0.89430  0.18800  Biso   1.000  C
  F88      1.0000 0.67840  0.83240  0.12730  Biso   1.000  F
  N6       1.0000 0.00040  0.27770  0.61330  Biso   1.000  N
  C192     1.0000 0.97530  0.21360  0.66500  Biso   1.000  C
  C193     1.0000 0.00560  0.34820  0.67140  Biso   1.000  C
  C194     1.0000 0.98420  0.20920  0.82800  Biso   1.000  C
  C195     1.0000 0.04880  0.23740  0.68500  Biso   1.000  C
  C196     1.0000 0.05690  0.25380  0.84400  Biso   1.000  C
  C197     1.0000 0.05790  0.29540  0.84300  Biso   1.000  C
  C198     1.0000 0.04240  0.32740  0.67900  Biso   1.000  C
  C199     1.0000 0.05990  0.28430  0.68400  Biso   1.000  C
  C200     1.0000 0.96550  0.33530  0.66300  Biso   1.000  C
  C201     1.0000 0.87120  0.13790  0.23670  Biso   1.000  C
  C202     1.0000 0.87190  0.08580  0.33630  Biso   1.000  C
  F89      1.0000 0.91800  0.07810  0.43030  Biso   1.000  F
  C203     1.0000 0.82460  0.04160  0.33840  Biso   1.000  C
  F90      1.0000 0.82530  0.99140  0.43450  Biso   1.000  F
  C204     1.0000 0.77670  0.04960  0.24090  Biso   1.000  C
  C205     1.0000 0.77610  0.10170  0.14130  Biso   1.000  C
  F91      1.0000 0.72990  0.10940  0.04720  Biso   1.000  F
  C206     1.0000 0.82330  0.14590  0.13910  Biso   1.000  C
  F92      1.0000 0.82260  0.19610  0.04310  Biso   1.000  F
  C207     1.0000 0.63060  0.91460  0.25750  Biso   1.000  C
  C208     1.0000 0.62470  0.98410  0.28490  Biso   1.000  C
  F93      1.0000 0.57340  0.00900  0.31770  Biso   1.000  F
  C209     1.0000 0.67190  0.02790  0.27830  Biso   1.000  C
  F94      1.0000 0.66620  0.09500  0.30470  Biso   1.000  F
  C210     1.0000 0.72510  0.00220  0.24420  Biso   1.000  C
  C211     1.0000 0.73110  0.93260  0.21680  Biso   1.000  C
  F95      1.0000 0.78240  0.90780  0.18400  Biso   1.000  F
  C212     1.0000 0.68390  0.88880  0.22340  Biso   1.000  C
  F96      1.0000 0.68960  0.82180  0.19700  Biso   1.000  F
  H91      1.0000 0.98490  0.37840  0.64710  Biso   1.000  H
  H92      1.0000 0.92760  0.33620  0.60990  Biso   1.000  H
  H93      1.0000 0.91830  0.31190  0.83250  Biso   1.000  H
  H94      1.0000 0.96300  0.37150  0.86710  Biso   1.000  H
  H95      1.0000 0.08190  0.24310  0.66750  Biso   1.000  H
  H96      1.0000 0.07950  0.32280  0.64360  Biso   1.000  H
  H97      1.0000 0.06660  0.34300  0.86630  Biso   1.000  H
  H98      1.0000 0.08710  0.26700  0.89410  Biso   1.000  H
  H99      1.0000 0.93410  0.21190  0.63580  Biso   1.000  H
  H100     1.0000 0.99380  0.17450  0.62480  Biso   1.000  H
  H101     1.0000 0.01500  0.17680  0.85570  Biso   1.000  H
  H102     1.0000 0.94870  0.19310  0.86500  Biso   1.000  H
  H103     1.0000 0.04420  0.36590  0.66050  Biso   1.000  H
  H104     1.0000 0.97760  0.37790  0.61970  Biso   1.000  H
  H105     1.0000 0.04080  0.18890  0.67180  Biso   1.000  H
  H106     1.0000 0.08450  0.24780  0.64210  Biso   1.000  H
  H107     1.0000 0.08610  0.28930  0.86160  Biso   1.000  H
  H108     1.0000 0.06950  0.21320  0.89640  Biso   1.000  H
  Cu7      1.0000 0.49700  0.77781  0.10839  Biso   1.000  Cu
  O25      1.0000 0.56010  0.71000  0.14800  Biso   1.000  O
  O26      1.0000 0.56110  0.70380  0.37860  Biso   1.000  O
  O27      1.0000 0.93350  0.34570  0.12530  Biso   1.000  O
  O28      1.0000 0.94500  0.35060  0.35690  Biso   1.000  O
  C213     1.0000 0.57830  0.68970  0.26550  Biso   1.000  C
  C214     1.0000 0.92160  0.36540  0.23870  Biso   1.000  C
  C215     1.0000 0.63040  0.63880  0.27470  Biso   1.000  C
  C216     1.0000 0.62410  0.57780  0.19910  Biso   1.000  C
  F97      1.0000 0.57260  0.56170  0.13120  Biso   1.000  F
  C217     1.0000 0.67120  0.53370  0.19410  Biso   1.000  C
  F98      1.0000 0.66510  0.47490  0.12130  Biso   1.000  F
  C218     1.0000 0.72450  0.55040  0.26460  Biso   1.000  C
  C219     1.0000 0.73080  0.61130  0.34010  Biso   1.000  C
  F99      1.0000 0.78230  0.62750  0.40810  Biso   1.000  F
  C220     1.0000 0.68370  0.65550  0.34520  Biso   1.000  C
  F100     1.0000 0.68980  0.71420  0.41800  Biso   1.000  F
  C221     1.0000 0.86930  0.41400  0.23980  Biso   1.000  C
  C222     1.0000 0.87000  0.47830  0.17690  Biso   1.000  C
  F101     1.0000 0.91540  0.49730  0.10720  Biso   1.000  F
  C223     1.0000 0.82340  0.52290  0.18620  Biso   1.000  C
  F102     1.0000 0.82400  0.58490  0.12550  Biso   1.000  F
  C224     1.0000 0.77630  0.50320  0.25840  Biso   1.000  C
  C225     1.0000 0.77560  0.43890  0.32140  Biso   1.000  C
  F103     1.0000 0.73020  0.41990  0.39100  Biso   1.000  F
  C226     1.0000 0.82220  0.39430  0.31200  Biso   1.000  C
  F104     1.0000 0.82160  0.33240  0.37270  Biso   1.000  F
  N7       1.0000 0.49960  0.77770  0.88670  Biso   1.000  N
  C227     1.0000 0.52470  0.71360  0.83500  Biso   1.000  C
  C228     1.0000 0.49440  0.84820  0.82860  Biso   1.000  C
  C229     1.0000 0.51580  0.70920  0.67200  Biso   1.000  C
  C230     1.0000 0.45120  0.73740  0.81500  Biso   1.000  C
  C231     1.0000 0.44310  0.75380  0.65600  Biso   1.000  C
  C232     1.0000 0.44210  0.79540  0.65700  Biso   1.000  C
  C233     1.0000 0.45760  0.82740  0.82100  Biso   1.000  C
  C234     1.0000 0.44010  0.78430  0.81600  Biso   1.000  C
  C235     1.0000 0.53450  0.83530  0.83700  Biso   1.000  C
  C236     1.0000 0.62880  0.63790  0.26330  Biso   1.000  C
  C237     1.0000 0.62810  0.58580  0.16370  Biso   1.000  C
  F105     1.0000 0.58200  0.57810  0.06970  Biso   1.000  F
  C238     1.0000 0.67540  0.54160  0.16160  Biso   1.000  C
  F106     1.0000 0.67470  0.49140  0.06550  Biso   1.000  F
  C239     1.0000 0.72330  0.54960  0.25910  Biso   1.000  C
  C240     1.0000 0.72390  0.60170  0.35870  Biso   1.000  C
  F107     1.0000 0.77010  0.60940  0.45280  Biso   1.000  F
  C241     1.0000 0.67670  0.64590  0.36090  Biso   1.000  C
  F108     1.0000 0.67740  0.69610  0.45690  Biso   1.000  F
  C242     1.0000 0.86940  0.41460  0.24250  Biso   1.000  C
  C243     1.0000 0.87530  0.48410  0.21510  Biso   1.000  C
  F109     1.0000 0.92660  0.50900  0.18230  Biso   1.000  F
  C244     1.0000 0.82810  0.52790  0.22170  Biso   1.000  C
  F110     1.0000 0.83380  0.59500  0.19530  Biso   1.000  F
  C245     1.0000 0.77490  0.50220  0.25580  Biso   1.000  C
  C246     1.0000 0.76890  0.43260  0.28320  Biso   1.000  C
  F111     1.0000 0.71760  0.40780  0.31600  Biso   1.000  F
  C247     1.0000 0.81610  0.38880  0.27660  Biso   1.000  C
  F112     1.0000 0.81040  0.32180  0.30300  Biso   1.000  F
  H109     1.0000 0.51510  0.87840  0.85290  Biso   1.000  H
  H110     1.0000 0.57240  0.83620  0.89010  Biso   1.000  H
  H111     1.0000 0.58170  0.81190  0.66750  Biso   1.000  H
  H112     1.0000 0.53700  0.87150  0.63290  Biso   1.000  H
  H113     1.0000 0.41810  0.74310  0.83250  Biso   1.000  H
  H114     1.0000 0.42050  0.82280  0.85640  Biso   1.000  H
  H115     1.0000 0.43340  0.84300  0.63370  Biso   1.000  H
  H116     1.0000 0.41290  0.76700  0.60590  Biso   1.000  H
  H117     1.0000 0.56590  0.71190  0.86420  Biso   1.000  H
  H118     1.0000 0.50620  0.67450  0.87520  Biso   1.000  H
  H119     1.0000 0.48500  0.67680  0.64430  Biso   1.000  H
  H120     1.0000 0.55130  0.69310  0.63500  Biso   1.000  H
  H121     1.0000 0.45580  0.86590  0.83950  Biso   1.000  H
  H122     1.0000 0.52240  0.87790  0.88030  Biso   1.000  H
  H123     1.0000 0.45920  0.68890  0.82820  Biso   1.000  H
  H124     1.0000 0.41550  0.74780  0.85790  Biso   1.000  H
  H125     1.0000 0.41390  0.78930  0.63840  Biso   1.000  H
  H126     1.0000 0.43050  0.71320  0.60360  Biso   1.000  H
  Cu8      1.0000 0.99700  0.27781  0.10839  Biso   1.000  Cu
  O29      1.0000 0.06010  0.21000  0.14800  Biso   1.000  O
  O30      1.0000 0.06110  0.20380  0.37860  Biso   1.000  O
  O31      1.0000 0.43350  0.84570  0.12530  Biso   1.000  O
  O32      1.0000 0.44500  0.85060  0.35690  Biso   1.000  O
  C248     1.0000 0.07830  0.18970  0.26550  Biso   1.000  C
  C249     1.0000 0.42160  0.86540  0.23870  Biso   1.000  C
  C250     1.0000 0.13040  0.13880  0.27470  Biso   1.000  C
  C251     1.0000 0.12410  0.07780  0.19910  Biso   1.000  C
  F113     1.0000 0.07260  0.06170  0.13120  Biso   1.000  F
  C252     1.0000 0.17120  0.03370  0.19410  Biso   1.000  C
  F114     1.0000 0.16510  0.97490  0.12130  Biso   1.000  F
  C253     1.0000 0.22450  0.05040  0.26460  Biso   1.000  C
  C254     1.0000 0.23080  0.11130  0.34010  Biso   1.000  C
  F115     1.0000 0.28230  0.12750  0.40810  Biso   1.000  F
  C255     1.0000 0.18370  0.15550  0.34520  Biso   1.000  C
  F116     1.0000 0.18980  0.21420  0.41800  Biso   1.000  F
  C256     1.0000 0.36930  0.91400  0.23980  Biso   1.000  C
  C257     1.0000 0.37000  0.97830  0.17690  Biso   1.000  C
  F117     1.0000 0.41540  0.99730  0.10720  Biso   1.000  F
  C258     1.0000 0.32340  0.02290  0.18620  Biso   1.000  C
  F118     1.0000 0.32400  0.08490  0.12550  Biso   1.000  F
  C259     1.0000 0.27630  0.00320  0.25840  Biso   1.000  C
  C260     1.0000 0.27560  0.93890  0.32140  Biso   1.000  C
  F119     1.0000 0.23020  0.91990  0.39100  Biso   1.000  F
  C261     1.0000 0.32220  0.89430  0.31200  Biso   1.000  C
  F120     1.0000 0.32160  0.83240  0.37270  Biso   1.000  F
  N8       1.0000 0.99960  0.27770  0.88670  Biso   1.000  N
  C262     1.0000 0.02470  0.21360  0.83500  Biso   1.000  C
  C263     1.0000 0.99440  0.34820  0.82860  Biso   1.000  C
  C264     1.0000 0.01580  0.20920  0.67200  Biso   1.000  C
  C265     1.0000 0.95120  0.23740  0.81500  Biso   1.000  C
  C266     1.0000 0.94310  0.25380  0.65600  Biso   1.000  C
  C267     1.0000 0.94210  0.29540  0.65700  Biso   1.000  C
  C268     1.0000 0.95760  0.32740  0.82100  Biso   1.000  C
  C269     1.0000 0.94010  0.28430  0.81600  Biso   1.000  C
  C270     1.0000 0.03450  0.33530  0.83700  Biso   1.000  C
  C271     1.0000 0.12880  0.13790  0.26330  Biso   1.000  C
  C272     1.0000 0.12810  0.08580  0.16370  Biso   1.000  C
  F121     1.0000 0.08200  0.07810  0.06970  Biso   1.000  F
  C273     1.0000 0.17540  0.04160  0.16160  Biso   1.000  C
  F122     1.0000 0.17470  0.99140  0.06550  Biso   1.000  F
  C274     1.0000 0.22330  0.04960  0.25910  Biso   1.000  C
  C275     1.0000 0.22390  0.10170  0.35870  Biso   1.000  C
  F123     1.0000 0.27010  0.10940  0.45280  Biso   1.000  F
  C276     1.0000 0.17670  0.14590  0.36090  Biso   1.000  C
  F124     1.0000 0.17740  0.19610  0.45690  Biso   1.000  F
  C277     1.0000 0.36940  0.91460  0.24250  Biso   1.000  C
  C278     1.0000 0.37530  0.98410  0.21510  Biso   1.000  C
  F125     1.0000 0.42660  0.00900  0.18230  Biso   1.000  F
  C279     1.0000 0.32810  0.02790  0.22170  Biso   1.000  C
  F126     1.0000 0.33380  0.09500  0.19530  Biso   1.000  F
  C280     1.0000 0.27490  0.00220  0.25580  Biso   1.000  C
  C281     1.0000 0.26890  0.93260  0.28320  Biso   1.000  C
  F127     1.0000 0.21760  0.90780  0.31600  Biso   1.000  F
  C282     1.0000 0.31610  0.88880  0.27660  Biso   1.000  C
  F128     1.0000 0.31040  0.82180  0.30300  Biso   1.000  F
  H127     1.0000 0.01510  0.37840  0.85290  Biso   1.000  H
  H128     1.0000 0.07240  0.33620  0.89010  Biso   1.000  H
  H129     1.0000 0.08170  0.31190  0.66750  Biso   1.000  H
  H130     1.0000 0.03700  0.37150  0.63290  Biso   1.000  H
  H131     1.0000 0.91810  0.24310  0.83250  Biso   1.000  H
  H132     1.0000 0.92050  0.32280  0.85640  Biso   1.000  H
  H133     1.0000 0.93340  0.34300  0.63370  Biso   1.000  H
  H134     1.0000 0.91290  0.26700  0.60590  Biso   1.000  H
  H135     1.0000 0.06590  0.21190  0.86420  Biso   1.000  H
  H136     1.0000 0.00620  0.17450  0.87520  Biso   1.000  H
  H137     1.0000 0.98500  0.17680  0.64430  Biso   1.000  H
  H138     1.0000 0.05130  0.19310  0.63500  Biso   1.000  H
  H139     1.0000 0.95580  0.36590  0.83950  Biso   1.000  H
  H140     1.0000 0.02240  0.37790  0.88030  Biso   1.000  H
  H141     1.0000 0.95920  0.18890  0.82820  Biso   1.000  H
  H142     1.0000 0.91550  0.24780  0.85790  Biso   1.000  H
  H143     1.0000 0.91390  0.28930  0.63840  Biso   1.000  H
  H144     1.0000 0.93050  0.21320  0.60360  Biso   1.000  H
  C283     1.0000 0.50000  0.77680  0.25000  Biso   1.000  C
  C284     1.0000 0.00000  0.27680  0.25000  Biso   1.000  C
