data_image0
_cell_length_a       17.993
_cell_length_b       7.2497
_cell_length_c       11.5979
_cell_angle_alpha    90
_cell_angle_beta     90
_cell_angle_gamma    90

_symmetry_space_group_name_H-M    "P 1"
_symmetry_int_tables_number       1

loop_
  _symmetry_equiv_pos_as_xyz
  'x, y, z'

loop_
  _atom_site_label
  _atom_site_occupancy
  _atom_site_fract_x
  _atom_site_fract_y
  _atom_site_fract_z
  _atom_site_thermal_displace_type
  _atom_site_B_iso_or_equiv
  _atom_site_type_symbol
  O1       1.0000 0.58268  0.09580  0.39725  Biso   1.000  O
  C1       1.0000 0.71653  0.08700  0.27910  Biso   1.000  C
  N1       1.0000 0.69010  0.91610  0.32310  Biso   1.000  N
  O2       1.0000 0.64610  0.84160  0.25580  Biso   1.000  O
  O3       1.0000 0.71500  0.85070  0.41270  Biso   1.000  O
  H1       1.0000 0.59390  0.65670  0.19280  Biso   1.000  H
  H2       1.0000 0.52720  0.72980  0.15420  Biso   1.000  H
  H3       1.0000 0.69390  0.97290  0.29900  Biso   1.000  H
  O4       1.0000 0.08268  0.59580  0.89725  Biso   1.000  O
  C2       1.0000 0.21653  0.58700  0.77910  Biso   1.000  C
  N2       1.0000 0.19010  0.41610  0.82310  Biso   1.000  N
  O5       1.0000 0.14610  0.34160  0.75580  Biso   1.000  O
  O6       1.0000 0.21500  0.35070  0.91270  Biso   1.000  O
  H4       1.0000 0.09390  0.15670  0.69280  Biso   1.000  H
  H5       1.0000 0.02720  0.22980  0.65420  Biso   1.000  H
  H6       1.0000 0.19390  0.47290  0.79900  Biso   1.000  H
  O7       1.0000 0.41732  0.40420  0.39725  Biso   1.000  O
  C3       1.0000 0.28347  0.41300  0.27910  Biso   1.000  C
  N3       1.0000 0.30990  0.58390  0.32310  Biso   1.000  N
  O8       1.0000 0.35390  0.65840  0.25580  Biso   1.000  O
  O9       1.0000 0.28500  0.64930  0.41270  Biso   1.000  O
  H7       1.0000 0.40610  0.84330  0.19280  Biso   1.000  H
  H8       1.0000 0.47280  0.77020  0.15420  Biso   1.000  H
  H9       1.0000 0.30610  0.52710  0.29900  Biso   1.000  H
  O10      1.0000 0.91732  0.90420  0.89725  Biso   1.000  O
  C4       1.0000 0.78347  0.91300  0.77910  Biso   1.000  C
  N4       1.0000 0.80990  0.08390  0.82310  Biso   1.000  N
  O11      1.0000 0.85390  0.15840  0.75580  Biso   1.000  O
  O12      1.0000 0.78500  0.14930  0.91270  Biso   1.000  O
  H10      1.0000 0.90610  0.34330  0.69280  Biso   1.000  H
  H11      1.0000 0.97280  0.27020  0.65420  Biso   1.000  H
  H12      1.0000 0.80610  0.02710  0.79900  Biso   1.000  H
  O13      1.0000 0.41732  0.59580  0.60275  Biso   1.000  O
  C5       1.0000 0.28347  0.58700  0.72090  Biso   1.000  C
  N5       1.0000 0.30990  0.41610  0.67690  Biso   1.000  N
  O14      1.0000 0.35390  0.34160  0.74420  Biso   1.000  O
  O15      1.0000 0.28500  0.35070  0.58730  Biso   1.000  O
  H13      1.0000 0.40610  0.15670  0.80720  Biso   1.000  H
  H14      1.0000 0.47280  0.22980  0.84580  Biso   1.000  H
  H15      1.0000 0.30610  0.47290  0.70100  Biso   1.000  H
  O16      1.0000 0.91732  0.09580  0.10275  Biso   1.000  O
  C6       1.0000 0.78347  0.08700  0.22090  Biso   1.000  C
  N6       1.0000 0.80990  0.91610  0.17690  Biso   1.000  N
  O17      1.0000 0.85390  0.84160  0.24420  Biso   1.000  O
  O18      1.0000 0.78500  0.85070  0.08730  Biso   1.000  O
  H16      1.0000 0.90610  0.65670  0.30720  Biso   1.000  H
  H17      1.0000 0.97280  0.72980  0.34580  Biso   1.000  H
  H18      1.0000 0.80610  0.97290  0.20100  Biso   1.000  H
  O19      1.0000 0.58268  0.90420  0.60275  Biso   1.000  O
  C7       1.0000 0.71653  0.91300  0.72090  Biso   1.000  C
  N7       1.0000 0.69010  0.08390  0.67690  Biso   1.000  N
  O20      1.0000 0.64610  0.15840  0.74420  Biso   1.000  O
  O21      1.0000 0.71500  0.14930  0.58730  Biso   1.000  O
  H19      1.0000 0.59390  0.34330  0.80720  Biso   1.000  H
  H20      1.0000 0.52720  0.27020  0.84580  Biso   1.000  H
  H21      1.0000 0.69390  0.02710  0.70100  Biso   1.000  H
  O22      1.0000 0.08268  0.40420  0.10275  Biso   1.000  O
  C8       1.0000 0.21653  0.41300  0.22090  Biso   1.000  C
  N8       1.0000 0.19010  0.58390  0.17690  Biso   1.000  N
  O23      1.0000 0.14610  0.65840  0.24420  Biso   1.000  O
  O24      1.0000 0.21500  0.64930  0.08730  Biso   1.000  O
  H22      1.0000 0.09390  0.84330  0.30720  Biso   1.000  H
  H23      1.0000 0.02720  0.77020  0.34580  Biso   1.000  H
  H24      1.0000 0.19390  0.52710  0.20100  Biso   1.000  H
  O25      1.0000 0.41732  0.90420  0.60275  Biso   1.000  O
  C9       1.0000 0.28347  0.91300  0.72090  Biso   1.000  C
  N9       1.0000 0.30990  0.08390  0.67690  Biso   1.000  N
  O26      1.0000 0.35390  0.15840  0.74420  Biso   1.000  O
  O27      1.0000 0.28500  0.14930  0.58730  Biso   1.000  O
  H25      1.0000 0.40610  0.34330  0.80720  Biso   1.000  H
  H26      1.0000 0.47280  0.27020  0.84580  Biso   1.000  H
  H27      1.0000 0.30610  0.02710  0.70100  Biso   1.000  H
  O28      1.0000 0.91732  0.40420  0.10275  Biso   1.000  O
  C10      1.0000 0.78347  0.41300  0.22090  Biso   1.000  C
  N10      1.0000 0.80990  0.58390  0.17690  Biso   1.000  N
  O29      1.0000 0.85390  0.65840  0.24420  Biso   1.000  O
  O30      1.0000 0.78500  0.64930  0.08730  Biso   1.000  O
  H28      1.0000 0.90610  0.84330  0.30720  Biso   1.000  H
  H29      1.0000 0.97280  0.77020  0.34580  Biso   1.000  H
  H30      1.0000 0.80610  0.52710  0.20100  Biso   1.000  H
  O31      1.0000 0.58268  0.59580  0.60275  Biso   1.000  O
  C11      1.0000 0.71653  0.58700  0.72090  Biso   1.000  C
  N11      1.0000 0.69010  0.41610  0.67690  Biso   1.000  N
  O32      1.0000 0.64610  0.34160  0.74420  Biso   1.000  O
  O33      1.0000 0.71500  0.35070  0.58730  Biso   1.000  O
  H31      1.0000 0.59390  0.15670  0.80720  Biso   1.000  H
  H32      1.0000 0.52720  0.22980  0.84580  Biso   1.000  H
  H33      1.0000 0.69390  0.47290  0.70100  Biso   1.000  H
  O34      1.0000 0.08268  0.09580  0.10275  Biso   1.000  O
  C12      1.0000 0.21653  0.08700  0.22090  Biso   1.000  C
  N12      1.0000 0.19010  0.91610  0.17690  Biso   1.000  N
  O35      1.0000 0.14610  0.84160  0.24420  Biso   1.000  O
  O36      1.0000 0.21500  0.85070  0.08730  Biso   1.000  O
  H34      1.0000 0.09390  0.65670  0.30720  Biso   1.000  H
  H35      1.0000 0.02720  0.72980  0.34580  Biso   1.000  H
  H36      1.0000 0.19390  0.97290  0.20100  Biso   1.000  H
  O37      1.0000 0.58268  0.40420  0.39725  Biso   1.000  O
  C13      1.0000 0.71653  0.41300  0.27910  Biso   1.000  C
  N13      1.0000 0.69010  0.58390  0.32310  Biso   1.000  N
  O38      1.0000 0.64610  0.65840  0.25580  Biso   1.000  O
  O39      1.0000 0.71500  0.64930  0.41270  Biso   1.000  O
  H37      1.0000 0.59390  0.84330  0.19280  Biso   1.000  H
  H38      1.0000 0.52720  0.77020  0.15420  Biso   1.000  H
  H39      1.0000 0.69390  0.52710  0.29900  Biso   1.000  H
  O40      1.0000 0.08268  0.90420  0.89725  Biso   1.000  O
  C14      1.0000 0.21653  0.91300  0.77910  Biso   1.000  C
  N14      1.0000 0.19010  0.08390  0.82310  Biso   1.000  N
  O41      1.0000 0.14610  0.15840  0.75580  Biso   1.000  O
  O42      1.0000 0.21500  0.14930  0.91270  Biso   1.000  O
  H40      1.0000 0.09390  0.34330  0.69280  Biso   1.000  H
  H41      1.0000 0.02720  0.27020  0.65420  Biso   1.000  H
  H42      1.0000 0.19390  0.02710  0.79900  Biso   1.000  H
  O43      1.0000 0.41732  0.09580  0.39725  Biso   1.000  O
  C15      1.0000 0.28347  0.08700  0.27910  Biso   1.000  C
  N15      1.0000 0.30990  0.91610  0.32310  Biso   1.000  N
  O44      1.0000 0.35390  0.84160  0.25580  Biso   1.000  O
  O45      1.0000 0.28500  0.85070  0.41270  Biso   1.000  O
  H43      1.0000 0.40610  0.65670  0.19280  Biso   1.000  H
  H44      1.0000 0.47280  0.72980  0.15420  Biso   1.000  H
  H45      1.0000 0.30610  0.97290  0.29900  Biso   1.000  H
  O46      1.0000 0.91732  0.59580  0.89725  Biso   1.000  O
  C16      1.0000 0.78347  0.58700  0.77910  Biso   1.000  C
  N16      1.0000 0.80990  0.41610  0.82310  Biso   1.000  N
  O47      1.0000 0.85390  0.34160  0.75580  Biso   1.000  O
  O48      1.0000 0.78500  0.35070  0.91270  Biso   1.000  O
  H46      1.0000 0.90610  0.15670  0.69280  Biso   1.000  H
  H47      1.0000 0.97280  0.22980  0.65420  Biso   1.000  H
  H48      1.0000 0.80610  0.47290  0.79900  Biso   1.000  H
  Co1      1.0000 0.50000  0.00000  0.50000  Biso   1.000  Co
  Co2      1.0000 0.00000  0.50000  0.00000  Biso   1.000  Co
  Co3      1.0000 0.50000  0.50000  0.50000  Biso   1.000  Co
  Co4      1.0000 0.00000  0.00000  0.00000  Biso   1.000  Co
  C17      1.0000 0.60960  0.25000  0.37370  Biso   1.000  C
  C18      1.0000 0.68190  0.25000  0.30910  Biso   1.000  C
  H49      1.0000 0.54460  0.25000  0.65930  Biso   1.000  H
  C19      1.0000 0.10960  0.75000  0.87370  Biso   1.000  C
  C20      1.0000 0.18190  0.75000  0.80910  Biso   1.000  C
  H50      1.0000 0.04460  0.75000  0.15930  Biso   1.000  H
  C21      1.0000 0.39040  0.25000  0.37370  Biso   1.000  C
  C22      1.0000 0.31810  0.25000  0.30910  Biso   1.000  C
  H51      1.0000 0.45540  0.25000  0.65930  Biso   1.000  H
  C23      1.0000 0.89040  0.75000  0.87370  Biso   1.000  C
  C24      1.0000 0.81810  0.75000  0.80910  Biso   1.000  C
  H52      1.0000 0.95540  0.75000  0.15930  Biso   1.000  H
  C25      1.0000 0.39040  0.75000  0.62630  Biso   1.000  C
  C26      1.0000 0.31810  0.75000  0.69090  Biso   1.000  C
  H53      1.0000 0.45540  0.75000  0.34070  Biso   1.000  H
  C27      1.0000 0.89040  0.25000  0.12630  Biso   1.000  C
  C28      1.0000 0.81810  0.25000  0.19090  Biso   1.000  C
  H54      1.0000 0.95540  0.25000  0.84070  Biso   1.000  H
  C29      1.0000 0.60960  0.75000  0.62630  Biso   1.000  C
  C30      1.0000 0.68190  0.75000  0.69090  Biso   1.000  C
  H55      1.0000 0.54460  0.75000  0.34070  Biso   1.000  H
  C31      1.0000 0.10960  0.25000  0.12630  Biso   1.000  C
  C32      1.0000 0.18190  0.25000  0.19090  Biso   1.000  C
  H56      1.0000 0.04460  0.25000  0.84070  Biso   1.000  H
  O49      1.0000 0.50000  0.25000  0.60920  Biso   1.000  O
  O50      1.0000 0.00000  0.75000  0.10920  Biso   1.000  O
  O51      1.0000 0.50000  0.75000  0.39080  Biso   1.000  O
  O52      1.0000 0.00000  0.25000  0.89080  Biso   1.000  O
  O53      1.0000 0.56620  0.75000  0.19370  Biso   1.000  O
  O54      1.0000 0.06620  0.25000  0.69370  Biso   1.000  O
  O55      1.0000 0.43380  0.75000  0.19370  Biso   1.000  O
  O56      1.0000 0.93380  0.25000  0.69370  Biso   1.000  O
  O57      1.0000 0.43380  0.25000  0.80630  Biso   1.000  O
  O58      1.0000 0.93380  0.75000  0.30630  Biso   1.000  O
  O59      1.0000 0.56620  0.25000  0.80630  Biso   1.000  O
  O60      1.0000 0.06620  0.75000  0.30630  Biso   1.000  O
