data_image0
_cell_length_a       15.387
_cell_length_b       15.387
_cell_length_c       9.5846
_cell_angle_alpha    90
_cell_angle_beta     90
_cell_angle_gamma    90

_symmetry_space_group_name_H-M    "P 1"
_symmetry_int_tables_number       1

loop_
  _symmetry_equiv_pos_as_xyz
  'x, y, z'

loop_
  _atom_site_label
  _atom_site_occupancy
  _atom_site_fract_x
  _atom_site_fract_y
  _atom_site_fract_z
  _atom_site_thermal_displace_type
  _atom_site_B_iso_or_equiv
  _atom_site_type_symbol
  C1       1.0000 0.33310  0.23310  0.57700  Biso   1.000  C
  H1       1.0000 0.36280  0.22740  0.48690  Biso   1.000  H
  H2       1.0000 0.37890  0.22470  0.64670  Biso   1.000  H
  C2       1.0000 0.30100  0.17780  0.58280  Biso   1.000  C
  H3       1.0000 0.31890  0.15190  0.67170  Biso   1.000  H
  H4       1.0000 0.32610  0.14100  0.50990  Biso   1.000  H
  O1       1.0000 0.17190  0.14680  0.88610  Biso   1.000  O
  C3       1.0000 0.00730  0.05450  0.11140  Biso   1.000  C
  H5       1.0000 0.01220  0.09210  0.18830  Biso   1.000  H
  C4       1.0000 0.16690  0.26690  0.57700  Biso   1.000  C
  H6       1.0000 0.13720  0.27260  0.48690  Biso   1.000  H
  H7       1.0000 0.12110  0.27530  0.64670  Biso   1.000  H
  C5       1.0000 0.19900  0.32220  0.58280  Biso   1.000  C
  H8       1.0000 0.18110  0.34810  0.67170  Biso   1.000  H
  H9       1.0000 0.17390  0.35900  0.50990  Biso   1.000  H
  O2       1.0000 0.32810  0.35320  0.88610  Biso   1.000  O
  C6       1.0000 0.49270  0.44550  0.11140  Biso   1.000  C
  H10      1.0000 0.48780  0.40790  0.18830  Biso   1.000  H
  C7       1.0000 0.26690  0.33310  0.57700  Biso   1.000  C
  H11      1.0000 0.27260  0.36280  0.48690  Biso   1.000  H
  H12      1.0000 0.27530  0.37890  0.64670  Biso   1.000  H
  C8       1.0000 0.32220  0.30100  0.58280  Biso   1.000  C
  H13      1.0000 0.34810  0.31890  0.67170  Biso   1.000  H
  H14      1.0000 0.35900  0.32610  0.50990  Biso   1.000  H
  O3       1.0000 0.35320  0.17190  0.88610  Biso   1.000  O
  C9       1.0000 0.44550  0.00730  0.11140  Biso   1.000  C
  H15      1.0000 0.40790  0.01220  0.18830  Biso   1.000  H
  C10      1.0000 0.23310  0.16690  0.57700  Biso   1.000  C
  H16      1.0000 0.22740  0.13720  0.48690  Biso   1.000  H
  H17      1.0000 0.22470  0.12110  0.64670  Biso   1.000  H
  C11      1.0000 0.17780  0.19900  0.58280  Biso   1.000  C
  H18      1.0000 0.15190  0.18110  0.67170  Biso   1.000  H
  H19      1.0000 0.14100  0.17390  0.50990  Biso   1.000  H
  O4       1.0000 0.14680  0.32810  0.88610  Biso   1.000  O
  C12      1.0000 0.05450  0.49270  0.11140  Biso   1.000  C
  H20      1.0000 0.09210  0.48780  0.18830  Biso   1.000  H
  C13      1.0000 0.16690  0.23310  0.42300  Biso   1.000  C
  H21      1.0000 0.13720  0.22740  0.51310  Biso   1.000  H
  H22      1.0000 0.12110  0.22470  0.35330  Biso   1.000  H
  C14      1.0000 0.19900  0.17780  0.41720  Biso   1.000  C
  H23      1.0000 0.18110  0.15190  0.32830  Biso   1.000  H
  H24      1.0000 0.17390  0.14100  0.49010  Biso   1.000  H
  O5       1.0000 0.32810  0.14680  0.11390  Biso   1.000  O
  C15      1.0000 0.49270  0.05450  0.88860  Biso   1.000  C
  H25      1.0000 0.48780  0.09210  0.81170  Biso   1.000  H
  C16      1.0000 0.33310  0.26690  0.42300  Biso   1.000  C
  H26      1.0000 0.36280  0.27260  0.51310  Biso   1.000  H
  H27      1.0000 0.37890  0.27530  0.35330  Biso   1.000  H
  C17      1.0000 0.30100  0.32220  0.41720  Biso   1.000  C
  H28      1.0000 0.31890  0.34810  0.32830  Biso   1.000  H
  H29      1.0000 0.32610  0.35900  0.49010  Biso   1.000  H
  O6       1.0000 0.17190  0.35320  0.11390  Biso   1.000  O
  C18      1.0000 0.00730  0.44550  0.88860  Biso   1.000  C
  H30      1.0000 0.01220  0.40790  0.81170  Biso   1.000  H
  C19      1.0000 0.23310  0.33310  0.42300  Biso   1.000  C
  H31      1.0000 0.22740  0.36280  0.51310  Biso   1.000  H
  H32      1.0000 0.22470  0.37890  0.35330  Biso   1.000  H
  C20      1.0000 0.17780  0.30100  0.41720  Biso   1.000  C
  H33      1.0000 0.15190  0.31890  0.32830  Biso   1.000  H
  H34      1.0000 0.14100  0.32610  0.49010  Biso   1.000  H
  O7       1.0000 0.14680  0.17190  0.11390  Biso   1.000  O
  C21      1.0000 0.05450  0.00730  0.88860  Biso   1.000  C
  H35      1.0000 0.09210  0.01220  0.81170  Biso   1.000  H
  C22      1.0000 0.26690  0.16690  0.42300  Biso   1.000  C
  H36      1.0000 0.27260  0.13720  0.51310  Biso   1.000  H
  H37      1.0000 0.27530  0.12110  0.35330  Biso   1.000  H
  C23      1.0000 0.32220  0.19900  0.41720  Biso   1.000  C
  H38      1.0000 0.34810  0.18110  0.32830  Biso   1.000  H
  H39      1.0000 0.35900  0.17390  0.49010  Biso   1.000  H
  O8       1.0000 0.35320  0.32810  0.11390  Biso   1.000  O
  C24      1.0000 0.44550  0.49270  0.88860  Biso   1.000  C
  H40      1.0000 0.40790  0.48780  0.81170  Biso   1.000  H
  C25      1.0000 0.66690  0.76690  0.42300  Biso   1.000  C
  H41      1.0000 0.63720  0.77260  0.51310  Biso   1.000  H
  H42      1.0000 0.62110  0.77530  0.35330  Biso   1.000  H
  C26      1.0000 0.69900  0.82220  0.41720  Biso   1.000  C
  H43      1.0000 0.68110  0.84810  0.32830  Biso   1.000  H
  H44      1.0000 0.67390  0.85900  0.49010  Biso   1.000  H
  O9       1.0000 0.82810  0.85320  0.11390  Biso   1.000  O
  C27      1.0000 0.99270  0.94550  0.88860  Biso   1.000  C
  H45      1.0000 0.98780  0.90790  0.81170  Biso   1.000  H
  C28      1.0000 0.83310  0.73310  0.42300  Biso   1.000  C
  H46      1.0000 0.86280  0.72740  0.51310  Biso   1.000  H
  H47      1.0000 0.87890  0.72470  0.35330  Biso   1.000  H
  C29      1.0000 0.80100  0.67780  0.41720  Biso   1.000  C
  H48      1.0000 0.81890  0.65190  0.32830  Biso   1.000  H
  H49      1.0000 0.82610  0.64100  0.49010  Biso   1.000  H
  O10      1.0000 0.67190  0.64680  0.11390  Biso   1.000  O
  C30      1.0000 0.50730  0.55450  0.88860  Biso   1.000  C
  H50      1.0000 0.51220  0.59210  0.81170  Biso   1.000  H
  C31      1.0000 0.73310  0.66690  0.42300  Biso   1.000  C
  H51      1.0000 0.72740  0.63720  0.51310  Biso   1.000  H
  H52      1.0000 0.72470  0.62110  0.35330  Biso   1.000  H
  C32      1.0000 0.67780  0.69900  0.41720  Biso   1.000  C
  H53      1.0000 0.65190  0.68110  0.32830  Biso   1.000  H
  H54      1.0000 0.64100  0.67390  0.49010  Biso   1.000  H
  O11      1.0000 0.64680  0.82810  0.11390  Biso   1.000  O
  C33      1.0000 0.55450  0.99270  0.88860  Biso   1.000  C
  H55      1.0000 0.59210  0.98780  0.81170  Biso   1.000  H
  C34      1.0000 0.76690  0.83310  0.42300  Biso   1.000  C
  H56      1.0000 0.77260  0.86280  0.51310  Biso   1.000  H
  H57      1.0000 0.77530  0.87890  0.35330  Biso   1.000  H
  C35      1.0000 0.82220  0.80100  0.41720  Biso   1.000  C
  H58      1.0000 0.84810  0.81890  0.32830  Biso   1.000  H
  H59      1.0000 0.85900  0.82610  0.49010  Biso   1.000  H
  O12      1.0000 0.85320  0.67190  0.11390  Biso   1.000  O
  C36      1.0000 0.94550  0.50730  0.88860  Biso   1.000  C
  H60      1.0000 0.90790  0.51220  0.81170  Biso   1.000  H
  C37      1.0000 0.83310  0.76690  0.57700  Biso   1.000  C
  H61      1.0000 0.86280  0.77260  0.48690  Biso   1.000  H
  H62      1.0000 0.87890  0.77530  0.64670  Biso   1.000  H
  C38      1.0000 0.80100  0.82220  0.58280  Biso   1.000  C
  H63      1.0000 0.81890  0.84810  0.67170  Biso   1.000  H
  H64      1.0000 0.82610  0.85900  0.50990  Biso   1.000  H
  O13      1.0000 0.67190  0.85320  0.88610  Biso   1.000  O
  C39      1.0000 0.50730  0.94550  0.11140  Biso   1.000  C
  H65      1.0000 0.51220  0.90790  0.18830  Biso   1.000  H
  C40      1.0000 0.66690  0.73310  0.57700  Biso   1.000  C
  H66      1.0000 0.63720  0.72740  0.48690  Biso   1.000  H
  H67      1.0000 0.62110  0.72470  0.64670  Biso   1.000  H
  C41      1.0000 0.69900  0.67780  0.58280  Biso   1.000  C
  H68      1.0000 0.68110  0.65190  0.67170  Biso   1.000  H
  H69      1.0000 0.67390  0.64100  0.50990  Biso   1.000  H
  O14      1.0000 0.82810  0.64680  0.88610  Biso   1.000  O
  C42      1.0000 0.99270  0.55450  0.11140  Biso   1.000  C
  H70      1.0000 0.98780  0.59210  0.18830  Biso   1.000  H
  C43      1.0000 0.76690  0.66690  0.57700  Biso   1.000  C
  H71      1.0000 0.77260  0.63720  0.48690  Biso   1.000  H
  H72      1.0000 0.77530  0.62110  0.64670  Biso   1.000  H
  C44      1.0000 0.82220  0.69900  0.58280  Biso   1.000  C
  H73      1.0000 0.84810  0.68110  0.67170  Biso   1.000  H
  H74      1.0000 0.85900  0.67390  0.50990  Biso   1.000  H
  O15      1.0000 0.85320  0.82810  0.88610  Biso   1.000  O
  C45      1.0000 0.94550  0.99270  0.11140  Biso   1.000  C
  H75      1.0000 0.90790  0.98780  0.18830  Biso   1.000  H
  C46      1.0000 0.73310  0.83310  0.57700  Biso   1.000  C
  H76      1.0000 0.72740  0.86280  0.48690  Biso   1.000  H
  H77      1.0000 0.72470  0.87890  0.64670  Biso   1.000  H
  C47      1.0000 0.67780  0.80100  0.58280  Biso   1.000  C
  H78      1.0000 0.65190  0.81890  0.67170  Biso   1.000  H
  H79      1.0000 0.64100  0.82610  0.50990  Biso   1.000  H
  O16      1.0000 0.64680  0.67190  0.88610  Biso   1.000  O
  C48      1.0000 0.55450  0.50730  0.11140  Biso   1.000  C
  H80      1.0000 0.59210  0.51220  0.18830  Biso   1.000  H
  Zn1      1.0000 0.25000  0.25000  0.84938  Biso   1.000  Zn
  N1       1.0000 0.25000  0.25000  0.63370  Biso   1.000  N
  Zn2      1.0000 0.25000  0.25000  0.15062  Biso   1.000  Zn
  N2       1.0000 0.25000  0.25000  0.36630  Biso   1.000  N
  Zn3      1.0000 0.75000  0.75000  0.15062  Biso   1.000  Zn
  N3       1.0000 0.75000  0.75000  0.36630  Biso   1.000  N
  Zn4      1.0000 0.75000  0.75000  0.84938  Biso   1.000  Zn
  N4       1.0000 0.75000  0.75000  0.63370  Biso   1.000  N
  C49      1.0000 0.13310  0.13310  0.00000  Biso   1.000  C
  C50      1.0000 0.06370  0.06370  0.00000  Biso   1.000  C
  C51      1.0000 0.36690  0.36690  0.00000  Biso   1.000  C
  C52      1.0000 0.43630  0.43630  0.00000  Biso   1.000  C
  C53      1.0000 0.36690  0.13310  0.00000  Biso   1.000  C
  C54      1.0000 0.43630  0.06370  0.00000  Biso   1.000  C
  C55      1.0000 0.13310  0.36690  0.00000  Biso   1.000  C
  C56      1.0000 0.06370  0.43630  0.00000  Biso   1.000  C
  C57      1.0000 0.86690  0.86690  0.00000  Biso   1.000  C
  C58      1.0000 0.93630  0.93630  0.00000  Biso   1.000  C
  C59      1.0000 0.63310  0.63310  0.00000  Biso   1.000  C
  C60      1.0000 0.56370  0.56370  0.00000  Biso   1.000  C
  C61      1.0000 0.63310  0.86690  0.00000  Biso   1.000  C
  C62      1.0000 0.56370  0.93630  0.00000  Biso   1.000  C
  C63      1.0000 0.86690  0.63310  0.00000  Biso   1.000  C
  C64      1.0000 0.93630  0.56370  0.00000  Biso   1.000  C
