data_image0
_cell_length_a       15.425
_cell_length_b       12.1842
_cell_length_c       16.059
_cell_angle_alpha    90
_cell_angle_beta     90
_cell_angle_gamma    90

_symmetry_space_group_name_H-M    "P 1"
_symmetry_int_tables_number       1

loop_
  _symmetry_equiv_pos_as_xyz
  'x, y, z'

loop_
  _atom_site_label
  _atom_site_occupancy
  _atom_site_fract_x
  _atom_site_fract_y
  _atom_site_fract_z
  _atom_site_thermal_displace_type
  _atom_site_B_iso_or_equiv
  _atom_site_type_symbol
  Li1      1.0000 0.09035  0.48739  0.41352  Biso   1.000  Li
  O1       1.0000 0.10620  0.38990  0.31810  Biso   1.000  O
  C1       1.0000 0.14550  0.37930  0.17760  Biso   1.000  C
  C2       1.0000 0.14440  0.43020  0.26530  Biso   1.000  C
  C3       1.0000 0.20250  0.36820  0.03830  Biso   1.000  C
  C4       1.0000 0.14660  0.28170  0.02190  Biso   1.000  C
  H1       1.0000 0.14700  0.24950  0.96940  Biso   1.000  H
  C5       1.0000 0.09080  0.29090  0.16090  Biso   1.000  C
  H2       1.0000 0.05450  0.26400  0.20240  Biso   1.000  H
  O2       1.0000 0.18630  0.52270  0.26840  Biso   1.000  O
  C6       1.0000 0.19980  0.41890  0.11640  Biso   1.000  C
  H3       1.0000 0.23490  0.47940  0.12710  Biso   1.000  H
  C7       1.0000 0.03030  0.15070  0.06180  Biso   1.000  C
  O3       1.0000 0.02200  0.12280  0.98670  Biso   1.000  O
  O4       1.0000 0.98850  0.10590  0.12050  Biso   1.000  O
  C8       1.0000 0.26670  0.41130  0.97490  Biso   1.000  C
  O5       1.0000 0.31370  0.48160  0.99010  Biso   1.000  O
  O6       1.0000 0.29090  0.32940  0.92190  Biso   1.000  O
  O7       1.0000 0.24290  0.38950  0.89340  Biso   1.000  O
  C9       1.0000 0.09030  0.24230  0.08180  Biso   1.000  C
  Co1      1.0000 0.09035  0.01261  0.91352  Biso   1.000  Co
  Li2      1.0000 0.40965  0.51261  0.91352  Biso   1.000  Li
  O8       1.0000 0.39380  0.61010  0.81810  Biso   1.000  O
  C10      1.0000 0.35450  0.62070  0.67760  Biso   1.000  C
  C11      1.0000 0.35560  0.56980  0.76530  Biso   1.000  C
  C12      1.0000 0.29750  0.63180  0.53830  Biso   1.000  C
  C13      1.0000 0.35340  0.71830  0.52190  Biso   1.000  C
  H4       1.0000 0.35300  0.75050  0.46940  Biso   1.000  H
  C14      1.0000 0.40920  0.70910  0.66090  Biso   1.000  C
  H5       1.0000 0.44550  0.73600  0.70240  Biso   1.000  H
  O9       1.0000 0.31370  0.47730  0.76840  Biso   1.000  O
  C15      1.0000 0.30020  0.58110  0.61640  Biso   1.000  C
  H6       1.0000 0.26510  0.52060  0.62710  Biso   1.000  H
  C16      1.0000 0.46970  0.84930  0.56180  Biso   1.000  C
  O10      1.0000 0.47800  0.87720  0.48670  Biso   1.000  O
  O11      1.0000 0.51150  0.89410  0.62050  Biso   1.000  O
  C17      1.0000 0.23330  0.58870  0.47490  Biso   1.000  C
  O12      1.0000 0.18630  0.51840  0.49010  Biso   1.000  O
  O13      1.0000 0.20910  0.67060  0.42190  Biso   1.000  O
  O14      1.0000 0.25710  0.61050  0.39340  Biso   1.000  O
  C18      1.0000 0.40970  0.75770  0.58180  Biso   1.000  C
  Co2      1.0000 0.40965  0.98739  0.41352  Biso   1.000  Co
  Li3      1.0000 0.90965  0.98739  0.08648  Biso   1.000  Li
  O15      1.0000 0.89380  0.88990  0.18190  Biso   1.000  O
  C19      1.0000 0.85450  0.87930  0.32240  Biso   1.000  C
  C20      1.0000 0.85560  0.93020  0.23470  Biso   1.000  C
  C21      1.0000 0.79750  0.86820  0.46170  Biso   1.000  C
  C22      1.0000 0.85340  0.78170  0.47810  Biso   1.000  C
  H7       1.0000 0.85300  0.74950  0.53060  Biso   1.000  H
  C23      1.0000 0.90920  0.79090  0.33910  Biso   1.000  C
  H8       1.0000 0.94550  0.76400  0.29760  Biso   1.000  H
  O16      1.0000 0.81370  0.02270  0.23160  Biso   1.000  O
  C24      1.0000 0.80020  0.91890  0.38360  Biso   1.000  C
  H9       1.0000 0.76510  0.97940  0.37290  Biso   1.000  H
  C25      1.0000 0.96970  0.65070  0.43820  Biso   1.000  C
  O17      1.0000 0.97800  0.62280  0.51330  Biso   1.000  O
  O18      1.0000 0.01150  0.60590  0.37950  Biso   1.000  O
  C26      1.0000 0.73330  0.91130  0.52510  Biso   1.000  C
  O19      1.0000 0.68630  0.98160  0.50990  Biso   1.000  O
  O20      1.0000 0.70910  0.82940  0.57810  Biso   1.000  O
  O21      1.0000 0.75710  0.88950  0.60660  Biso   1.000  O
  C27      1.0000 0.90970  0.74230  0.41820  Biso   1.000  C
  Co3      1.0000 0.90965  0.51261  0.58648  Biso   1.000  Co
  Li4      1.0000 0.59035  0.01261  0.58648  Biso   1.000  Li
  O22      1.0000 0.60620  0.11010  0.68190  Biso   1.000  O
  C28      1.0000 0.64550  0.12070  0.82240  Biso   1.000  C
  C29      1.0000 0.64440  0.06980  0.73470  Biso   1.000  C
  C30      1.0000 0.70250  0.13180  0.96170  Biso   1.000  C
  C31      1.0000 0.64660  0.21830  0.97810  Biso   1.000  C
  H10      1.0000 0.64700  0.25050  0.03060  Biso   1.000  H
  C32      1.0000 0.59080  0.20910  0.83910  Biso   1.000  C
  H11      1.0000 0.55450  0.23600  0.79760  Biso   1.000  H
  O23      1.0000 0.68630  0.97730  0.73160  Biso   1.000  O
  C33      1.0000 0.69980  0.08110  0.88360  Biso   1.000  C
  H12      1.0000 0.73490  0.02060  0.87290  Biso   1.000  H
  C34      1.0000 0.53030  0.34930  0.93820  Biso   1.000  C
  O24      1.0000 0.52200  0.37720  0.01330  Biso   1.000  O
  O25      1.0000 0.48850  0.39410  0.87950  Biso   1.000  O
  C35      1.0000 0.76670  0.08870  0.02510  Biso   1.000  C
  O26      1.0000 0.81370  0.01840  0.00990  Biso   1.000  O
  O27      1.0000 0.79090  0.17060  0.07810  Biso   1.000  O
  O28      1.0000 0.74290  0.11050  0.10660  Biso   1.000  O
  C36      1.0000 0.59030  0.25770  0.91820  Biso   1.000  C
  Co4      1.0000 0.59035  0.48739  0.08648  Biso   1.000  Co
  O29      1.0000 0.89380  0.61010  0.68190  Biso   1.000  O
  C37      1.0000 0.85450  0.62070  0.82240  Biso   1.000  C
  C38      1.0000 0.85560  0.56980  0.73470  Biso   1.000  C
  C39      1.0000 0.79750  0.63180  0.96170  Biso   1.000  C
  C40      1.0000 0.85340  0.71830  0.97810  Biso   1.000  C
  H13      1.0000 0.85300  0.75050  0.03060  Biso   1.000  H
  C41      1.0000 0.90920  0.70910  0.83910  Biso   1.000  C
  H14      1.0000 0.94550  0.73600  0.79760  Biso   1.000  H
  O30      1.0000 0.81370  0.47730  0.73160  Biso   1.000  O
  C42      1.0000 0.80020  0.58110  0.88360  Biso   1.000  C
  H15      1.0000 0.76510  0.52060  0.87290  Biso   1.000  H
  C43      1.0000 0.96970  0.84930  0.93820  Biso   1.000  C
  O31      1.0000 0.97800  0.87720  0.01330  Biso   1.000  O
  O32      1.0000 0.01150  0.89410  0.87950  Biso   1.000  O
  C44      1.0000 0.73330  0.58870  0.02510  Biso   1.000  C
  O33      1.0000 0.68630  0.51840  0.00990  Biso   1.000  O
  O34      1.0000 0.70910  0.67060  0.07810  Biso   1.000  O
  O35      1.0000 0.75710  0.61050  0.10660  Biso   1.000  O
  C45      1.0000 0.90970  0.75770  0.91820  Biso   1.000  C
  O36      1.0000 0.60620  0.38990  0.18190  Biso   1.000  O
  C46      1.0000 0.64550  0.37930  0.32240  Biso   1.000  C
  C47      1.0000 0.64440  0.43020  0.23470  Biso   1.000  C
  C48      1.0000 0.70250  0.36820  0.46170  Biso   1.000  C
  C49      1.0000 0.64660  0.28170  0.47810  Biso   1.000  C
  H16      1.0000 0.64700  0.24950  0.53060  Biso   1.000  H
  C50      1.0000 0.59080  0.29090  0.33910  Biso   1.000  C
  H17      1.0000 0.55450  0.26400  0.29760  Biso   1.000  H
  O37      1.0000 0.68630  0.52270  0.23160  Biso   1.000  O
  C51      1.0000 0.69980  0.41890  0.38360  Biso   1.000  C
  H18      1.0000 0.73490  0.47940  0.37290  Biso   1.000  H
  C52      1.0000 0.53030  0.15070  0.43820  Biso   1.000  C
  O38      1.0000 0.52200  0.12280  0.51330  Biso   1.000  O
  O39      1.0000 0.48850  0.10590  0.37950  Biso   1.000  O
  C53      1.0000 0.76670  0.41130  0.52510  Biso   1.000  C
  O40      1.0000 0.81370  0.48160  0.50990  Biso   1.000  O
  O41      1.0000 0.79090  0.32940  0.57810  Biso   1.000  O
  O42      1.0000 0.74290  0.38950  0.60660  Biso   1.000  O
  C54      1.0000 0.59030  0.24230  0.41820  Biso   1.000  C
  O43      1.0000 0.10620  0.11010  0.81810  Biso   1.000  O
  C55      1.0000 0.14550  0.12070  0.67760  Biso   1.000  C
  C56      1.0000 0.14440  0.06980  0.76530  Biso   1.000  C
  C57      1.0000 0.20250  0.13180  0.53830  Biso   1.000  C
  C58      1.0000 0.14660  0.21830  0.52190  Biso   1.000  C
  H19      1.0000 0.14700  0.25050  0.46940  Biso   1.000  H
  C59      1.0000 0.09080  0.20910  0.66090  Biso   1.000  C
  H20      1.0000 0.05450  0.23600  0.70240  Biso   1.000  H
  O44      1.0000 0.18630  0.97730  0.76840  Biso   1.000  O
  C60      1.0000 0.19980  0.08110  0.61640  Biso   1.000  C
  H21      1.0000 0.23490  0.02060  0.62710  Biso   1.000  H
  C61      1.0000 0.03030  0.34930  0.56180  Biso   1.000  C
  O45      1.0000 0.02200  0.37720  0.48670  Biso   1.000  O
  O46      1.0000 0.98850  0.39410  0.62050  Biso   1.000  O
  C62      1.0000 0.26670  0.08870  0.47490  Biso   1.000  C
  O47      1.0000 0.31370  0.01840  0.49010  Biso   1.000  O
  O48      1.0000 0.29090  0.17060  0.42190  Biso   1.000  O
  O49      1.0000 0.24290  0.11050  0.39340  Biso   1.000  O
  C63      1.0000 0.09030  0.25770  0.58180  Biso   1.000  C
  O50      1.0000 0.39380  0.88990  0.31810  Biso   1.000  O
  C64      1.0000 0.35450  0.87930  0.17760  Biso   1.000  C
  C65      1.0000 0.35560  0.93020  0.26530  Biso   1.000  C
  C66      1.0000 0.29750  0.86820  0.03830  Biso   1.000  C
  C67      1.0000 0.35340  0.78170  0.02190  Biso   1.000  C
  H22      1.0000 0.35300  0.74950  0.96940  Biso   1.000  H
  C68      1.0000 0.40920  0.79090  0.16090  Biso   1.000  C
  H23      1.0000 0.44550  0.76400  0.20240  Biso   1.000  H
  O51      1.0000 0.31370  0.02270  0.26840  Biso   1.000  O
  C69      1.0000 0.30020  0.91890  0.11640  Biso   1.000  C
  H24      1.0000 0.26510  0.97940  0.12710  Biso   1.000  H
  C70      1.0000 0.46970  0.65070  0.06180  Biso   1.000  C
  O52      1.0000 0.47800  0.62280  0.98670  Biso   1.000  O
  O53      1.0000 0.51150  0.60590  0.12050  Biso   1.000  O
  C71      1.0000 0.23330  0.91130  0.97490  Biso   1.000  C
  O54      1.0000 0.18630  0.98160  0.99010  Biso   1.000  O
  O55      1.0000 0.20910  0.82940  0.92190  Biso   1.000  O
  O56      1.0000 0.25710  0.88950  0.89340  Biso   1.000  O
  C72      1.0000 0.40970  0.74230  0.08180  Biso   1.000  C
