data_image0
_cell_length_a       4.9693
_cell_length_b       12.0013
_cell_length_c       10.744
_cell_angle_alpha    90
_cell_angle_beta     94.0583
_cell_angle_gamma    90

_symmetry_space_group_name_H-M    "P 1"
_symmetry_int_tables_number       1

loop_
  _symmetry_equiv_pos_as_xyz
  'x, y, z'

loop_
  _atom_site_label
  _atom_site_occupancy
  _atom_site_fract_x
  _atom_site_fract_y
  _atom_site_fract_z
  _atom_site_thermal_displace_type
  _atom_site_B_iso_or_equiv
  _atom_site_type_symbol
  P1       1.0000 0.52090  0.51311  0.18230  Biso   1.000  P
  F1       1.0000 0.04720  0.35120  0.96780  Biso   1.000  F
  O1       1.0000 0.70760  0.45550  0.09660  Biso   1.000  O
  O2       1.0000 0.55540  0.64000  0.18280  Biso   1.000  O
  O3       1.0000 0.23340  0.48130  0.14540  Biso   1.000  O
  C1       1.0000 0.44770  0.52350  0.43770  Biso   1.000  C
  C2       1.0000 0.60570  0.46690  0.34170  Biso   1.000  C
  P2       1.0000 0.47910  0.01311  0.81770  Biso   1.000  P
  F2       1.0000 0.95280  0.85120  0.03220  Biso   1.000  F
  O4       1.0000 0.29240  0.95550  0.90340  Biso   1.000  O
  O5       1.0000 0.44460  0.14000  0.81720  Biso   1.000  O
  O6       1.0000 0.76660  0.98130  0.85460  Biso   1.000  O
  C3       1.0000 0.55230  0.02350  0.56230  Biso   1.000  C
  C4       1.0000 0.39430  0.96690  0.65830  Biso   1.000  C
  P3       1.0000 0.47910  0.48689  0.81770  Biso   1.000  P
  F3       1.0000 0.95280  0.64880  0.03220  Biso   1.000  F
  O7       1.0000 0.29240  0.54450  0.90340  Biso   1.000  O
  O8       1.0000 0.44460  0.36000  0.81720  Biso   1.000  O
  O9       1.0000 0.76660  0.51870  0.85460  Biso   1.000  O
  C5       1.0000 0.55230  0.47650  0.56230  Biso   1.000  C
  C6       1.0000 0.39430  0.53310  0.65830  Biso   1.000  C
  P4       1.0000 0.52090  0.98689  0.18230  Biso   1.000  P
  F4       1.0000 0.04720  0.14880  0.96780  Biso   1.000  F
  O10      1.0000 0.70760  0.04450  0.09660  Biso   1.000  O
  O11      1.0000 0.55540  0.86000  0.18280  Biso   1.000  O
  O12      1.0000 0.23340  0.01870  0.14540  Biso   1.000  O
  C7       1.0000 0.44770  0.97650  0.43770  Biso   1.000  C
  C8       1.0000 0.60570  0.03310  0.34170  Biso   1.000  C
  Al1      1.0000 0.00000  0.50000  0.00000  Biso   1.000  Al
  Al2      1.0000 0.00000  0.00000  0.00000  Biso   1.000  Al
  Al3      1.0000 0.24770  0.25000  0.89020  Biso   1.000  Al
  Al4      1.0000 0.75230  0.75000  0.10980  Biso   1.000  Al
