data_image0
_cell_length_a       15.141
_cell_length_b       15.141
_cell_length_c       9.3313
_cell_angle_alpha    90
_cell_angle_beta     90
_cell_angle_gamma    120

_symmetry_space_group_name_H-M    "P 1"
_symmetry_int_tables_number       1

loop_
  _symmetry_equiv_pos_as_xyz
  'x, y, z'

loop_
  _atom_site_label
  _atom_site_occupancy
  _atom_site_fract_x
  _atom_site_fract_y
  _atom_site_fract_z
  _atom_site_thermal_displace_type
  _atom_site_B_iso_or_equiv
  _atom_site_type_symbol
  Co1      1.0000 0.47894  0.36502  0.29865  Biso   1.000  Co
  P1       1.0000 0.49458  0.30724  0.62830  Biso   1.000  P
  H1       1.0000 0.43140  0.34400  0.62800  Biso   1.000  H
  O1       1.0000 0.53540  0.32140  0.47520  Biso   1.000  O
  O2       1.0000 0.57890  0.37150  0.73490  Biso   1.000  O
  O3       1.0000 0.43210  0.19620  0.67280  Biso   1.000  O
  O4       1.0000 0.31190  0.37980  0.92800  Biso   1.000  O
  H2       1.0000 0.21060  0.22610  0.26110  Biso   1.000  H
  H3       1.0000 0.18470  0.23520  0.42110  Biso   1.000  H
  H4       1.0000 0.24490  0.17890  0.38360  Biso   1.000  H
  Co2      1.0000 0.63498  0.11392  0.29865  Biso   1.000  Co
  P2       1.0000 0.69276  0.18734  0.62830  Biso   1.000  P
  H5       1.0000 0.65600  0.08740  0.62800  Biso   1.000  H
  O5       1.0000 0.67860  0.21400  0.47520  Biso   1.000  O
  O6       1.0000 0.62850  0.20740  0.73490  Biso   1.000  O
  O7       1.0000 0.80380  0.23590  0.67280  Biso   1.000  O
  O8       1.0000 0.62020  0.93210  0.92800  Biso   1.000  O
  H6       1.0000 0.77390  0.98450  0.26110  Biso   1.000  H
  H7       1.0000 0.76480  0.94950  0.42110  Biso   1.000  H
  H8       1.0000 0.82110  0.06600  0.38360  Biso   1.000  H
  Co3      1.0000 0.88608  0.52106  0.29865  Biso   1.000  Co
  P3       1.0000 0.81266  0.50542  0.62830  Biso   1.000  P
  H9       1.0000 0.91260  0.56860  0.62800  Biso   1.000  H
  O9       1.0000 0.78600  0.46460  0.47520  Biso   1.000  O
  O10      1.0000 0.79260  0.42110  0.73490  Biso   1.000  O
  O11      1.0000 0.76410  0.56790  0.67280  Biso   1.000  O
  O12      1.0000 0.06790  0.68810  0.92800  Biso   1.000  O
  H10      1.0000 0.01550  0.78940  0.26110  Biso   1.000  H
  H11      1.0000 0.05050  0.81530  0.42110  Biso   1.000  H
  H12      1.0000 0.93400  0.75510  0.38360  Biso   1.000  H
  Co4      1.0000 0.52106  0.63498  0.79865  Biso   1.000  Co
  P4       1.0000 0.50542  0.69276  0.12830  Biso   1.000  P
  H13      1.0000 0.56860  0.65600  0.12800  Biso   1.000  H
  O13      1.0000 0.46460  0.67860  0.97520  Biso   1.000  O
  O14      1.0000 0.42110  0.62850  0.23490  Biso   1.000  O
  O15      1.0000 0.56790  0.80380  0.17280  Biso   1.000  O
  O16      1.0000 0.68810  0.62020  0.42800  Biso   1.000  O
  H14      1.0000 0.78940  0.77390  0.76110  Biso   1.000  H
  H15      1.0000 0.81530  0.76480  0.92110  Biso   1.000  H
  H16      1.0000 0.75510  0.82110  0.88360  Biso   1.000  H
  Co5      1.0000 0.36502  0.88608  0.79865  Biso   1.000  Co
  P5       1.0000 0.30724  0.81266  0.12830  Biso   1.000  P
  H17      1.0000 0.34400  0.91260  0.12800  Biso   1.000  H
  O17      1.0000 0.32140  0.78600  0.97520  Biso   1.000  O
  O18      1.0000 0.37150  0.79260  0.23490  Biso   1.000  O
  O19      1.0000 0.19620  0.76410  0.17280  Biso   1.000  O
  O20      1.0000 0.37980  0.06790  0.42800  Biso   1.000  O
  H18      1.0000 0.22610  0.01550  0.76110  Biso   1.000  H
  H19      1.0000 0.23520  0.05050  0.92110  Biso   1.000  H
  H20      1.0000 0.17890  0.93400  0.88360  Biso   1.000  H
  Co6      1.0000 0.11392  0.47894  0.79865  Biso   1.000  Co
  P6       1.0000 0.18734  0.49458  0.12830  Biso   1.000  P
  H21      1.0000 0.08740  0.43140  0.12800  Biso   1.000  H
  O21      1.0000 0.21400  0.53540  0.97520  Biso   1.000  O
  O22      1.0000 0.20740  0.57890  0.23490  Biso   1.000  O
  O23      1.0000 0.23590  0.43210  0.17280  Biso   1.000  O
  O24      1.0000 0.93210  0.31190  0.42800  Biso   1.000  O
  H22      1.0000 0.98450  0.21060  0.76110  Biso   1.000  H
  H23      1.0000 0.94950  0.18470  0.92110  Biso   1.000  H
  H24      1.0000 0.06600  0.24490  0.88360  Biso   1.000  H
  Co7      1.0000 0.63498  0.52106  0.79865  Biso   1.000  Co
  P7       1.0000 0.69276  0.50542  0.12830  Biso   1.000  P
  H25      1.0000 0.65600  0.56860  0.12800  Biso   1.000  H
  O25      1.0000 0.67860  0.46460  0.97520  Biso   1.000  O
  O26      1.0000 0.62850  0.42110  0.23490  Biso   1.000  O
  O27      1.0000 0.80380  0.56790  0.17280  Biso   1.000  O
  O28      1.0000 0.62020  0.68810  0.42800  Biso   1.000  O
  H26      1.0000 0.77390  0.78940  0.76110  Biso   1.000  H
  H27      1.0000 0.76480  0.81530  0.92110  Biso   1.000  H
  H28      1.0000 0.82110  0.75510  0.88360  Biso   1.000  H
  Co8      1.0000 0.88608  0.36502  0.79865  Biso   1.000  Co
  P8       1.0000 0.81266  0.30724  0.12830  Biso   1.000  P
  H29      1.0000 0.91260  0.34400  0.12800  Biso   1.000  H
  O29      1.0000 0.78600  0.32140  0.97520  Biso   1.000  O
  O30      1.0000 0.79260  0.37150  0.23490  Biso   1.000  O
  O31      1.0000 0.76410  0.19620  0.17280  Biso   1.000  O
  O32      1.0000 0.06790  0.37980  0.42800  Biso   1.000  O
  H30      1.0000 0.01550  0.22610  0.76110  Biso   1.000  H
  H31      1.0000 0.05050  0.23520  0.92110  Biso   1.000  H
  H32      1.0000 0.93400  0.17890  0.88360  Biso   1.000  H
  Co9      1.0000 0.47894  0.11392  0.79865  Biso   1.000  Co
  P9       1.0000 0.49458  0.18734  0.12830  Biso   1.000  P
  H33      1.0000 0.43140  0.08740  0.12800  Biso   1.000  H
  O33      1.0000 0.53540  0.21400  0.97520  Biso   1.000  O
  O34      1.0000 0.57890  0.20740  0.23490  Biso   1.000  O
  O35      1.0000 0.43210  0.23590  0.17280  Biso   1.000  O
  O36      1.0000 0.31190  0.93210  0.42800  Biso   1.000  O
  H34      1.0000 0.21060  0.98450  0.76110  Biso   1.000  H
  H35      1.0000 0.18470  0.94950  0.92110  Biso   1.000  H
  H36      1.0000 0.24490  0.06600  0.88360  Biso   1.000  H
  Co10     1.0000 0.36502  0.47894  0.29865  Biso   1.000  Co
  P10      1.0000 0.30724  0.49458  0.62830  Biso   1.000  P
  H37      1.0000 0.34400  0.43140  0.62800  Biso   1.000  H
  O37      1.0000 0.32140  0.53540  0.47520  Biso   1.000  O
  O38      1.0000 0.37150  0.57890  0.73490  Biso   1.000  O
  O39      1.0000 0.19620  0.43210  0.67280  Biso   1.000  O
  O40      1.0000 0.37980  0.31190  0.92800  Biso   1.000  O
  H38      1.0000 0.22610  0.21060  0.26110  Biso   1.000  H
  H39      1.0000 0.23520  0.18470  0.42110  Biso   1.000  H
  H40      1.0000 0.17890  0.24490  0.38360  Biso   1.000  H
  Co11     1.0000 0.11392  0.63498  0.29865  Biso   1.000  Co
  P11      1.0000 0.18734  0.69276  0.62830  Biso   1.000  P
  H41      1.0000 0.08740  0.65600  0.62800  Biso   1.000  H
  O41      1.0000 0.21400  0.67860  0.47520  Biso   1.000  O
  O42      1.0000 0.20740  0.62850  0.73490  Biso   1.000  O
  O43      1.0000 0.23590  0.80380  0.67280  Biso   1.000  O
  O44      1.0000 0.93210  0.62020  0.92800  Biso   1.000  O
  H42      1.0000 0.98450  0.77390  0.26110  Biso   1.000  H
  H43      1.0000 0.94950  0.76480  0.42110  Biso   1.000  H
  H44      1.0000 0.06600  0.82110  0.38360  Biso   1.000  H
  Co12     1.0000 0.52106  0.88608  0.29865  Biso   1.000  Co
  P12      1.0000 0.50542  0.81266  0.62830  Biso   1.000  P
  H45      1.0000 0.56860  0.91260  0.62800  Biso   1.000  H
  O45      1.0000 0.46460  0.78600  0.47520  Biso   1.000  O
  O46      1.0000 0.42110  0.79260  0.73490  Biso   1.000  O
  O47      1.0000 0.56790  0.76410  0.67280  Biso   1.000  O
  O48      1.0000 0.68810  0.06790  0.92800  Biso   1.000  O
  H46      1.0000 0.78940  0.01550  0.26110  Biso   1.000  H
  H47      1.0000 0.81530  0.05050  0.42110  Biso   1.000  H
  H48      1.0000 0.75510  0.93400  0.38360  Biso   1.000  H
  Co13     1.0000 0.66667  0.33333  0.37240  Biso   1.000  Co
  Co14     1.0000 0.33333  0.66667  0.87240  Biso   1.000  Co
  Co15     1.0000 0.66667  0.33333  0.87240  Biso   1.000  Co
  Co16     1.0000 0.33333  0.66667  0.37240  Biso   1.000  Co
  P13      1.0000 0.41200  0.41200  0.97590  Biso   1.000  P
  O49      1.0000 0.42680  0.42680  0.13340  Biso   1.000  O
  O50      1.0000 0.32730  0.32730  0.37110  Biso   1.000  O
  O51      1.0000 0.49550  0.49550  0.88910  Biso   1.000  O
  C1       1.0000 0.23440  0.23440  0.35820  Biso   1.000  C
  P14      1.0000 0.58800  0.00000  0.97590  Biso   1.000  P
  O52      1.0000 0.57320  0.00000  0.13340  Biso   1.000  O
  O53      1.0000 0.67270  0.00000  0.37110  Biso   1.000  O
  O54      1.0000 0.50450  0.00000  0.88910  Biso   1.000  O
  C2       1.0000 0.76560  0.00000  0.35820  Biso   1.000  C
  P15      1.0000 0.00000  0.58800  0.97590  Biso   1.000  P
  O55      1.0000 0.00000  0.57320  0.13340  Biso   1.000  O
  O56      1.0000 1.00000  0.67270  0.37110  Biso   1.000  O
  O57      1.0000 0.00000  0.50450  0.88910  Biso   1.000  O
  C3       1.0000 1.00000  0.76560  0.35820  Biso   1.000  C
  P16      1.0000 0.58800  0.58800  0.47590  Biso   1.000  P
  O58      1.0000 0.57320  0.57320  0.63340  Biso   1.000  O
  O59      1.0000 0.67270  0.67270  0.87110  Biso   1.000  O
  O60      1.0000 0.50450  0.50450  0.38910  Biso   1.000  O
  C4       1.0000 0.76560  0.76560  0.85820  Biso   1.000  C
  P17      1.0000 0.41200  0.00000  0.47590  Biso   1.000  P
  O61      1.0000 0.42680  0.00000  0.63340  Biso   1.000  O
  O62      1.0000 0.32730  0.00000  0.87110  Biso   1.000  O
  O63      1.0000 0.49550  0.00000  0.38910  Biso   1.000  O
  C5       1.0000 0.23440  0.00000  0.85820  Biso   1.000  C
  P18      1.0000 0.00000  0.41200  0.47590  Biso   1.000  P
  O64      1.0000 0.00000  0.42680  0.63340  Biso   1.000  O
  O65      1.0000 0.00000  0.32730  0.87110  Biso   1.000  O
  O66      1.0000 0.00000  0.49550  0.38910  Biso   1.000  O
  C6       1.0000 0.00000  0.23440  0.85820  Biso   1.000  C
