data_image0
_cell_length_a       13.3933
_cell_length_b       9.9035
_cell_length_c       23.7661
_cell_angle_alpha    90
_cell_angle_beta     98.036
_cell_angle_gamma    90

_symmetry_space_group_name_H-M    "P 1"
_symmetry_int_tables_number       1

loop_
  _symmetry_equiv_pos_as_xyz
  'x, y, z'

loop_
  _atom_site_label
  _atom_site_occupancy
  _atom_site_fract_x
  _atom_site_fract_y
  _atom_site_fract_z
  _atom_site_thermal_displace_type
  _atom_site_B_iso_or_equiv
  _atom_site_type_symbol
  Cu1      1.0000 0.39009  0.03859  0.01091  Biso   1.000  Cu
  Cu2      1.0000 0.57011  0.11753  0.11735  Biso   1.000  Cu
  S1       1.0000 0.02963  0.97030  0.00252  Biso   1.000  S
  O1       1.0000 0.24670  0.01110  0.99860  Biso   1.000  O
  O2       1.0000 0.24450  0.23140  0.01350  Biso   1.000  O
  O3       1.0000 0.81730  0.85000  0.98930  Biso   1.000  O
  O4       1.0000 0.74410  0.04850  0.00340  Biso   1.000  O
  C1       1.0000 0.20400  0.12480  0.00190  Biso   1.000  C
  C2       1.0000 0.81790  0.97140  0.99480  Biso   1.000  C
  C3       1.0000 0.09150  0.11760  0.99140  Biso   1.000  C
  C4       1.0000 0.02490  0.22220  0.97850  Biso   1.000  C
  H1       1.0000 0.04590  0.31220  0.97070  Biso   1.000  H
  C5       1.0000 0.92290  0.18280  0.97820  Biso   1.000  C
  H2       1.0000 0.86650  0.24270  0.96930  Biso   1.000  H
  C6       1.0000 0.91360  0.05190  0.99150  Biso   1.000  C
  S2       1.0000 0.73916  0.28657  0.33632  Biso   1.000  S
  O5       1.0000 0.51950  0.11590  0.03771  Biso   1.000  O
  H3       1.0000 0.52620  0.19510  0.02500  Biso   1.000  H
  O6       1.0000 0.63034  0.09710  0.19732  Biso   1.000  O
  O7       1.0000 0.58600  0.29250  0.23498  Biso   1.000  O
  O8       1.0000 0.86687  0.36830  0.43784  Biso   1.000  O
  O9       1.0000 0.94988  0.17450  0.45794  Biso   1.000  O
  N1       1.0000 0.40320  0.92770  0.08451  Biso   1.000  N
  N2       1.0000 0.47106  0.96400  0.12819  Biso   1.000  N
  N3       1.0000 0.81190  0.80890  0.43514  Biso   1.000  N
  N4       1.0000 0.80220  0.71000  0.39646  Biso   1.000  N
  C7       1.0000 0.34440  0.82340  0.09110  Biso   1.000  C
  H4       1.0000 0.29740  0.79590  0.05950  Biso   1.000  H
  C8       1.0000 0.34700  0.75220  0.14086  Biso   1.000  C
  H5       1.0000 0.30210  0.67880  0.14320  Biso   1.000  H
  C9       1.0000 0.41480  0.78760  0.18708  Biso   1.000  C
  C10      1.0000 0.47630  0.89680  0.17651  Biso   1.000  C
  H6       1.0000 0.52590  0.92480  0.20670  Biso   1.000  H
  C11      1.0000 0.72840  0.87040  0.44370  Biso   1.000  C
  H7       1.0000 0.73390  0.94170  0.47070  Biso   1.000  H
  C12      1.0000 0.63330  0.83930  0.41640  Biso   1.000  C
  H8       1.0000 0.57630  0.88830  0.42480  Biso   1.000  H
  C13      1.0000 0.62170  0.73800  0.37738  Biso   1.000  C
  C14      1.0000 0.71240  0.67600  0.36922  Biso   1.000  C
  H9       1.0000 0.70950  0.60470  0.34230  Biso   1.000  H
  C15      1.0000 0.42000  0.72340  0.24462  Biso   1.000  C
  C16      1.0000 0.51870  0.76030  0.28267  Biso   1.000  C
  H10      1.0000 0.52390  0.85970  0.28640  Biso   1.000  H
  H11      1.0000 0.57680  0.72800  0.26480  Biso   1.000  H
  C17      1.0000 0.52280  0.69640  0.34227  Biso   1.000  C
  C18      1.0000 0.51460  0.54230  0.33593  Biso   1.000  C
  H12      1.0000 0.51700  0.50020  0.37390  Biso   1.000  H
  H13      1.0000 0.57230  0.50760  0.31830  Biso   1.000  H
  C19      1.0000 0.41490  0.50450  0.29860  Biso   1.000  C
  H14      1.0000 0.41060  0.40410  0.29470  Biso   1.000  H
  C20      1.0000 0.41340  0.56770  0.23961  Biso   1.000  C
  H15      1.0000 0.35040  0.54200  0.21500  Biso   1.000  H
  H16      1.0000 0.47100  0.53320  0.22190  Biso   1.000  H
  C21      1.0000 0.33000  0.77260  0.27298  Biso   1.000  C
  H17      1.0000 0.33250  0.87220  0.27670  Biso   1.000  H
  H18      1.0000 0.26620  0.74820  0.24890  Biso   1.000  H
  C22      1.0000 0.33270  0.70860  0.33175  Biso   1.000  C
  H19      1.0000 0.27440  0.74240  0.34990  Biso   1.000  H
  C23      1.0000 0.43140  0.74820  0.36829  Biso   1.000  C
  H20      1.0000 0.43280  0.71010  0.40690  Biso   1.000  H
  H21      1.0000 0.43510  0.84780  0.37170  Biso   1.000  H
  C24      1.0000 0.32590  0.55490  0.32569  Biso   1.000  C
  H22      1.0000 0.32650  0.51290  0.36350  Biso   1.000  H
  H23      1.0000 0.26210  0.52970  0.30170  Biso   1.000  H
  C25      1.0000 0.63760  0.18870  0.23549  Biso   1.000  C
  C26      1.0000 0.88820  0.24750  0.42733  Biso   1.000  C
  C27      1.0000 0.71660  0.16430  0.28492  Biso   1.000  C
  C28      1.0000 0.77980  0.05690  0.29628  Biso   1.000  C
  H24      1.0000 0.77890  0.97960  0.27260  Biso   1.000  H
  C29      1.0000 0.84660  0.07350  0.34706  Biso   1.000  C
  H25      1.0000 0.89540  0.00800  0.36140  Biso   1.000  H
  C30      1.0000 0.83410  0.19170  0.37328  Biso   1.000  C
  O10      1.0000 0.07140  0.37850  0.98680  Biso   1.000  O
  O11      1.0000 0.08500  0.33460  0.93250  Biso   1.000  O
  Cu3      1.0000 0.10991  0.53859  0.48909  Biso   1.000  Cu
  Cu4      1.0000 0.92989  0.61753  0.38265  Biso   1.000  Cu
  S3       1.0000 0.47037  0.47030  0.49748  Biso   1.000  S
  O12      1.0000 0.25330  0.51110  0.50140  Biso   1.000  O
  O13      1.0000 0.25550  0.73140  0.48650  Biso   1.000  O
  O14      1.0000 0.68270  0.35000  0.51070  Biso   1.000  O
  O15      1.0000 0.75590  0.54850  0.49660  Biso   1.000  O
  C31      1.0000 0.29600  0.62480  0.49810  Biso   1.000  C
  C32      1.0000 0.68210  0.47140  0.50520  Biso   1.000  C
  C33      1.0000 0.40850  0.61760  0.50860  Biso   1.000  C
  C34      1.0000 0.47510  0.72220  0.52150  Biso   1.000  C
  H26      1.0000 0.45410  0.81220  0.52930  Biso   1.000  H
  C35      1.0000 0.57710  0.68280  0.52180  Biso   1.000  C
  H27      1.0000 0.63350  0.74270  0.53070  Biso   1.000  H
  C36      1.0000 0.58640  0.55190  0.50850  Biso   1.000  C
  S4       1.0000 0.76084  0.78657  0.16368  Biso   1.000  S
  O16      1.0000 0.98050  0.61590  0.46229  Biso   1.000  O
  H28      1.0000 0.97380  0.69510  0.47500  Biso   1.000  H
  O17      1.0000 0.86966  0.59710  0.30268  Biso   1.000  O
  O18      1.0000 0.91400  0.79250  0.26502  Biso   1.000  O
  O19      1.0000 0.63313  0.86830  0.06216  Biso   1.000  O
  O20      1.0000 0.55012  0.67450  0.04206  Biso   1.000  O
  N5       1.0000 0.09680  0.42770  0.41549  Biso   1.000  N
  N6       1.0000 0.02894  0.46400  0.37181  Biso   1.000  N
  N7       1.0000 0.68810  0.30890  0.06486  Biso   1.000  N
  N8       1.0000 0.69780  0.21000  0.10354  Biso   1.000  N
  C37      1.0000 0.15560  0.32340  0.40890  Biso   1.000  C
  H29      1.0000 0.20260  0.29590  0.44050  Biso   1.000  H
  C38      1.0000 0.15300  0.25220  0.35914  Biso   1.000  C
  H30      1.0000 0.19790  0.17880  0.35680  Biso   1.000  H
  C39      1.0000 0.08520  0.28760  0.31292  Biso   1.000  C
  C40      1.0000 0.02370  0.39680  0.32349  Biso   1.000  C
  H31      1.0000 0.97410  0.42480  0.29330  Biso   1.000  H
  C41      1.0000 0.77160  0.37040  0.05630  Biso   1.000  C
  H32      1.0000 0.76610  0.44170  0.02930  Biso   1.000  H
  C42      1.0000 0.86670  0.33930  0.08360  Biso   1.000  C
  H33      1.0000 0.92370  0.38830  0.07520  Biso   1.000  H
  C43      1.0000 0.87830  0.23800  0.12262  Biso   1.000  C
  C44      1.0000 0.78760  0.17600  0.13078  Biso   1.000  C
  H34      1.0000 0.79050  0.10470  0.15770  Biso   1.000  H
  C45      1.0000 0.08000  0.22340  0.25538  Biso   1.000  C
  C46      1.0000 0.98130  0.26030  0.21733  Biso   1.000  C
  H35      1.0000 0.97610  0.35970  0.21360  Biso   1.000  H
  H36      1.0000 0.92320  0.22800  0.23520  Biso   1.000  H
  C47      1.0000 0.97720  0.19640  0.15773  Biso   1.000  C
  C48      1.0000 0.98540  0.04230  0.16407  Biso   1.000  C
  H37      1.0000 0.98300  0.00020  0.12610  Biso   1.000  H
  H38      1.0000 0.92770  0.00760  0.18170  Biso   1.000  H
  C49      1.0000 0.08510  0.00450  0.20140  Biso   1.000  C
  H39      1.0000 0.08940  0.90410  0.20530  Biso   1.000  H
  C50      1.0000 0.08660  0.06770  0.26039  Biso   1.000  C
  H40      1.0000 0.14960  0.04200  0.28500  Biso   1.000  H
  H41      1.0000 0.02900  0.03320  0.27810  Biso   1.000  H
  C51      1.0000 0.17000  0.27260  0.22702  Biso   1.000  C
  H42      1.0000 0.16750  0.37220  0.22330  Biso   1.000  H
  H43      1.0000 0.23380  0.24820  0.25110  Biso   1.000  H
  C52      1.0000 0.16730  0.20860  0.16825  Biso   1.000  C
  H44      1.0000 0.22560  0.24240  0.15010  Biso   1.000  H
  C53      1.0000 0.06860  0.24820  0.13171  Biso   1.000  C
  H45      1.0000 0.06720  0.21010  0.09310  Biso   1.000  H
  H46      1.0000 0.06490  0.34780  0.12830  Biso   1.000  H
  C54      1.0000 0.17410  0.05490  0.17431  Biso   1.000  C
  H47      1.0000 0.17350  0.01290  0.13650  Biso   1.000  H
  H48      1.0000 0.23790  0.02970  0.19830  Biso   1.000  H
  C55      1.0000 0.86240  0.68870  0.26451  Biso   1.000  C
  C56      1.0000 0.61180  0.74750  0.07267  Biso   1.000  C
  C57      1.0000 0.78340  0.66430  0.21508  Biso   1.000  C
  C58      1.0000 0.72020  0.55690  0.20372  Biso   1.000  C
  H49      1.0000 0.72110  0.47960  0.22740  Biso   1.000  H
  C59      1.0000 0.65340  0.57350  0.15294  Biso   1.000  C
  H50      1.0000 0.60460  0.50800  0.13860  Biso   1.000  H
  C60      1.0000 0.66590  0.69170  0.12672  Biso   1.000  C
  O21      1.0000 0.42860  0.87850  0.51320  Biso   1.000  O
  O22      1.0000 0.41500  0.83460  0.56750  Biso   1.000  O
  Cu5      1.0000 0.60991  0.96141  0.98909  Biso   1.000  Cu
  Cu6      1.0000 0.42989  0.88247  0.88265  Biso   1.000  Cu
  S5       1.0000 0.97037  0.02970  0.99748  Biso   1.000  S
  O23      1.0000 0.75330  0.98890  0.00140  Biso   1.000  O
  O24      1.0000 0.75550  0.76860  0.98650  Biso   1.000  O
  O25      1.0000 0.18270  0.15000  0.01070  Biso   1.000  O
  O26      1.0000 0.25590  0.95150  0.99660  Biso   1.000  O
  C61      1.0000 0.79600  0.87520  0.99810  Biso   1.000  C
  C62      1.0000 0.18210  0.02860  0.00520  Biso   1.000  C
  C63      1.0000 0.90850  0.88240  0.00860  Biso   1.000  C
  C64      1.0000 0.97510  0.77780  0.02150  Biso   1.000  C
  H51      1.0000 0.95410  0.68780  0.02930  Biso   1.000  H
  C65      1.0000 0.07710  0.81720  0.02180  Biso   1.000  C
  H52      1.0000 0.13350  0.75730  0.03070  Biso   1.000  H
  C66      1.0000 0.08640  0.94810  0.00850  Biso   1.000  C
  S6       1.0000 0.26084  0.71343  0.66368  Biso   1.000  S
  O27      1.0000 0.48050  0.88410  0.96229  Biso   1.000  O
  H53      1.0000 0.47380  0.80490  0.97500  Biso   1.000  H
  O28      1.0000 0.36966  0.90290  0.80268  Biso   1.000  O
  O29      1.0000 0.41400  0.70750  0.76502  Biso   1.000  O
  O30      1.0000 0.13313  0.63170  0.56216  Biso   1.000  O
  O31      1.0000 0.05012  0.82550  0.54206  Biso   1.000  O
  N9       1.0000 0.59680  0.07230  0.91549  Biso   1.000  N
  N10      1.0000 0.52894  0.03600  0.87181  Biso   1.000  N
  N11      1.0000 0.18810  0.19110  0.56486  Biso   1.000  N
  N12      1.0000 0.19780  0.29000  0.60354  Biso   1.000  N
  C67      1.0000 0.65560  0.17660  0.90890  Biso   1.000  C
  H54      1.0000 0.70260  0.20410  0.94050  Biso   1.000  H
  C68      1.0000 0.65300  0.24780  0.85914  Biso   1.000  C
  H55      1.0000 0.69790  0.32120  0.85680  Biso   1.000  H
  C69      1.0000 0.58520  0.21240  0.81292  Biso   1.000  C
  C70      1.0000 0.52370  0.10320  0.82349  Biso   1.000  C
  H56      1.0000 0.47410  0.07520  0.79330  Biso   1.000  H
  C71      1.0000 0.27160  0.12960  0.55630  Biso   1.000  C
  H57      1.0000 0.26610  0.05830  0.52930  Biso   1.000  H
  C72      1.0000 0.36670  0.16070  0.58360  Biso   1.000  C
  H58      1.0000 0.42370  0.11170  0.57520  Biso   1.000  H
  C73      1.0000 0.37830  0.26200  0.62262  Biso   1.000  C
  C74      1.0000 0.28760  0.32400  0.63078  Biso   1.000  C
  H59      1.0000 0.29050  0.39530  0.65770  Biso   1.000  H
  C75      1.0000 0.58000  0.27660  0.75538  Biso   1.000  C
  C76      1.0000 0.48130  0.23970  0.71733  Biso   1.000  C
  H60      1.0000 0.47610  0.14030  0.71360  Biso   1.000  H
  H61      1.0000 0.42320  0.27200  0.73520  Biso   1.000  H
  C77      1.0000 0.47720  0.30360  0.65773  Biso   1.000  C
  C78      1.0000 0.48540  0.45770  0.66407  Biso   1.000  C
  H62      1.0000 0.48300  0.49980  0.62610  Biso   1.000  H
  H63      1.0000 0.42770  0.49240  0.68170  Biso   1.000  H
  C79      1.0000 0.58510  0.49550  0.70140  Biso   1.000  C
  H64      1.0000 0.58940  0.59590  0.70530  Biso   1.000  H
  C80      1.0000 0.58660  0.43230  0.76039  Biso   1.000  C
  H65      1.0000 0.64960  0.45800  0.78500  Biso   1.000  H
  H66      1.0000 0.52900  0.46680  0.77810  Biso   1.000  H
  C81      1.0000 0.67000  0.22740  0.72702  Biso   1.000  C
  H67      1.0000 0.66750  0.12780  0.72330  Biso   1.000  H
  H68      1.0000 0.73380  0.25180  0.75110  Biso   1.000  H
  C82      1.0000 0.66730  0.29140  0.66825  Biso   1.000  C
  H69      1.0000 0.72560  0.25760  0.65010  Biso   1.000  H
  C83      1.0000 0.56860  0.25180  0.63171  Biso   1.000  C
  H70      1.0000 0.56720  0.28990  0.59310  Biso   1.000  H
  H71      1.0000 0.56490  0.15220  0.62830  Biso   1.000  H
  C84      1.0000 0.67410  0.44510  0.67431  Biso   1.000  C
  H72      1.0000 0.67350  0.48710  0.63650  Biso   1.000  H
  H73      1.0000 0.73790  0.47030  0.69830  Biso   1.000  H
  C85      1.0000 0.36240  0.81130  0.76451  Biso   1.000  C
  C86      1.0000 0.11180  0.75250  0.57267  Biso   1.000  C
  C87      1.0000 0.28340  0.83570  0.71508  Biso   1.000  C
  C88      1.0000 0.22020  0.94310  0.70372  Biso   1.000  C
  H74      1.0000 0.22110  0.02040  0.72740  Biso   1.000  H
  C89      1.0000 0.15340  0.92650  0.65294  Biso   1.000  C
  H75      1.0000 0.10460  0.99200  0.63860  Biso   1.000  H
  C90      1.0000 0.16590  0.80830  0.62672  Biso   1.000  C
  O32      1.0000 0.92860  0.62150  0.01320  Biso   1.000  O
  O33      1.0000 0.91500  0.66540  0.06750  Biso   1.000  O
  Cu7      1.0000 0.89009  0.46141  0.51091  Biso   1.000  Cu
  Cu8      1.0000 0.07011  0.38247  0.61735  Biso   1.000  Cu
  S7       1.0000 0.52963  0.52970  0.50252  Biso   1.000  S
  O34      1.0000 0.74670  0.48890  0.49860  Biso   1.000  O
  O35      1.0000 0.74450  0.26860  0.51350  Biso   1.000  O
  O36      1.0000 0.31730  0.65000  0.48930  Biso   1.000  O
  O37      1.0000 0.24410  0.45150  0.50340  Biso   1.000  O
  C91      1.0000 0.70400  0.37520  0.50190  Biso   1.000  C
  C92      1.0000 0.31790  0.52860  0.49480  Biso   1.000  C
  C93      1.0000 0.59150  0.38240  0.49140  Biso   1.000  C
  C94      1.0000 0.52490  0.27780  0.47850  Biso   1.000  C
  H76      1.0000 0.54590  0.18780  0.47070  Biso   1.000  H
  C95      1.0000 0.42290  0.31720  0.47820  Biso   1.000  C
  H77      1.0000 0.36650  0.25730  0.46930  Biso   1.000  H
  C96      1.0000 0.41360  0.44810  0.49150  Biso   1.000  C
  S8       1.0000 0.23916  0.21343  0.83632  Biso   1.000  S
  O38      1.0000 0.01950  0.38410  0.53771  Biso   1.000  O
  H78      1.0000 0.02620  0.30490  0.52500  Biso   1.000  H
  O39      1.0000 0.13034  0.40290  0.69732  Biso   1.000  O
  O40      1.0000 0.08600  0.20750  0.73498  Biso   1.000  O
  O41      1.0000 0.36687  0.13170  0.93784  Biso   1.000  O
  O42      1.0000 0.44988  0.32550  0.95794  Biso   1.000  O
  N13      1.0000 0.90320  0.57230  0.58451  Biso   1.000  N
  N14      1.0000 0.97106  0.53600  0.62819  Biso   1.000  N
  N15      1.0000 0.31190  0.69110  0.93514  Biso   1.000  N
  N16      1.0000 0.30220  0.79000  0.89646  Biso   1.000  N
  C97      1.0000 0.84440  0.67660  0.59110  Biso   1.000  C
  H79      1.0000 0.79740  0.70410  0.55950  Biso   1.000  H
  C98      1.0000 0.84700  0.74780  0.64086  Biso   1.000  C
  H80      1.0000 0.80210  0.82120  0.64320  Biso   1.000  H
  C99      1.0000 0.91480  0.71240  0.68708  Biso   1.000  C
  C100     1.0000 0.97630  0.60320  0.67651  Biso   1.000  C
  H81      1.0000 0.02590  0.57520  0.70670  Biso   1.000  H
  C101     1.0000 0.22840  0.62960  0.94370  Biso   1.000  C
  H82      1.0000 0.23390  0.55830  0.97070  Biso   1.000  H
  C102     1.0000 0.13330  0.66070  0.91640  Biso   1.000  C
  H83      1.0000 0.07630  0.61170  0.92480  Biso   1.000  H
  C103     1.0000 0.12170  0.76200  0.87738  Biso   1.000  C
  C104     1.0000 0.21240  0.82400  0.86922  Biso   1.000  C
  H84      1.0000 0.20950  0.89530  0.84230  Biso   1.000  H
  C105     1.0000 0.92000  0.77660  0.74462  Biso   1.000  C
  C106     1.0000 0.01870  0.73970  0.78267  Biso   1.000  C
  H85      1.0000 0.02390  0.64030  0.78640  Biso   1.000  H
  H86      1.0000 0.07680  0.77200  0.76480  Biso   1.000  H
  C107     1.0000 0.02280  0.80360  0.84227  Biso   1.000  C
  C108     1.0000 0.01460  0.95770  0.83593  Biso   1.000  C
  H87      1.0000 0.01700  0.99980  0.87390  Biso   1.000  H
  H88      1.0000 0.07230  0.99240  0.81830  Biso   1.000  H
  C109     1.0000 0.91490  0.99550  0.79860  Biso   1.000  C
  H89      1.0000 0.91060  0.09590  0.79470  Biso   1.000  H
  C110     1.0000 0.91340  0.93230  0.73961  Biso   1.000  C
  H90      1.0000 0.85040  0.95800  0.71500  Biso   1.000  H
  H91      1.0000 0.97100  0.96680  0.72190  Biso   1.000  H
  C111     1.0000 0.83000  0.72740  0.77298  Biso   1.000  C
  H92      1.0000 0.83250  0.62780  0.77670  Biso   1.000  H
  H93      1.0000 0.76620  0.75180  0.74890  Biso   1.000  H
  C112     1.0000 0.83270  0.79140  0.83175  Biso   1.000  C
  H94      1.0000 0.77440  0.75760  0.84990  Biso   1.000  H
  C113     1.0000 0.93140  0.75180  0.86829  Biso   1.000  C
  H95      1.0000 0.93280  0.78990  0.90690  Biso   1.000  H
  H96      1.0000 0.93510  0.65220  0.87170  Biso   1.000  H
  C114     1.0000 0.82590  0.94510  0.82569  Biso   1.000  C
  H97      1.0000 0.82650  0.98710  0.86350  Biso   1.000  H
  H98      1.0000 0.76210  0.97030  0.80170  Biso   1.000  H
  C115     1.0000 0.13760  0.31130  0.73549  Biso   1.000  C
  C116     1.0000 0.38820  0.25250  0.92733  Biso   1.000  C
  C117     1.0000 0.21660  0.33570  0.78492  Biso   1.000  C
  C118     1.0000 0.27980  0.44310  0.79628  Biso   1.000  C
  H99      1.0000 0.27890  0.52040  0.77260  Biso   1.000  H
  C119     1.0000 0.34660  0.42650  0.84706  Biso   1.000  C
  H100     1.0000 0.39540  0.49200  0.86140  Biso   1.000  H
  C120     1.0000 0.33410  0.30830  0.87328  Biso   1.000  C
  O43      1.0000 0.57140  0.12150  0.48680  Biso   1.000  O
  O44      1.0000 0.58500  0.16540  0.43250  Biso   1.000  O
