data_image0
_cell_length_a       7.151
_cell_length_b       24.8988
_cell_length_c       28.6097
_cell_angle_alpha    90
_cell_angle_beta     93.406
_cell_angle_gamma    90

_symmetry_space_group_name_H-M    "P 1"
_symmetry_int_tables_number       1

loop_
  _symmetry_equiv_pos_as_xyz
  'x, y, z'

loop_
  _atom_site_label
  _atom_site_occupancy
  _atom_site_fract_x
  _atom_site_fract_y
  _atom_site_fract_z
  _atom_site_thermal_displace_type
  _atom_site_B_iso_or_equiv
  _atom_site_type_symbol
  C1       1.0000 0.33800  0.50460  0.81140  Biso   1.000  C
  C2       1.0000 0.39510  0.46500  0.84950  Biso   1.000  C
  C3       1.0000 0.57870  0.46590  0.86890  Biso   1.000  C
  H1       1.0000 0.66470  0.48990  0.85750  Biso   1.000  H
  C4       1.0000 0.63320  0.43160  0.90490  Biso   1.000  C
  H2       1.0000 0.75550  0.43320  0.91780  Biso   1.000  H
  C5       1.0000 0.50930  0.39470  0.92240  Biso   1.000  C
  C6       1.0000 0.32540  0.39380  0.90280  Biso   1.000  C
  H3       1.0000 0.23990  0.36930  0.91370  Biso   1.000  H
  C7       1.0000 0.27060  0.42870  0.86750  Biso   1.000  C
  H4       1.0000 0.14700  0.42810  0.85540  Biso   1.000  H
  C8       1.0000 0.56230  0.35770  0.96230  Biso   1.000  C
  C9       1.0000 0.45580  0.36060  0.00140  Biso   1.000  C
  H5       1.0000 0.35420  0.38400  0.00100  Biso   1.000  H
  C10      1.0000 0.49700  0.32990  0.04050  Biso   1.000  C
  C11      1.0000 0.38550  0.34000  0.08290  Biso   1.000  C
  C12      1.0000 0.18990  0.33890  0.07760  Biso   1.000  C
  H6       1.0000 0.13050  0.33020  0.04880  Biso   1.000  H
  C13      1.0000 0.08300  0.35090  0.11610  Biso   1.000  C
  H7       1.0000 0.95300  0.34980  0.11260  Biso   1.000  H
  C14      1.0000 0.16710  0.36410  0.15820  Biso   1.000  C
  C15      1.0000 0.05500  0.38250  0.19750  Biso   1.000  C
  C16      1.0000 0.36020  0.36500  0.16320  Biso   1.000  C
  H8       1.0000 0.41820  0.37390  0.19210  Biso   1.000  H
  C17      1.0000 0.46760  0.35330  0.12700  Biso   1.000  C
  H9       1.0000 0.59740  0.35410  0.13160  Biso   1.000  H
  C18      1.0000 0.64400  0.29250  0.04140  Biso   1.000  C
  C19      1.0000 0.68810  0.25680  0.08000  Biso   1.000  C
  H10      1.0000 0.61660  0.25850  0.10610  Biso   1.000  H
  C20      1.0000 0.82840  0.22120  0.07980  Biso   1.000  C
  H11      1.0000 0.85350  0.19960  0.10600  Biso   1.000  H
  C21      1.0000 0.94100  0.21560  0.04030  Biso   1.000  C
  C22      1.0000 0.90310  0.25070  0.00130  Biso   1.000  C
  C23      1.0000 0.75310  0.28850  0.00180  Biso   1.000  C
  C24      1.0000 0.71540  0.32260  0.96250  Biso   1.000  C
  C25      1.0000 0.82890  0.31650  0.92250  Biso   1.000  C
  H12      1.0000 0.80440  0.33820  0.89640  Biso   1.000  H
  C26      1.0000 0.96910  0.28040  0.92220  Biso   1.000  C
  H13      1.0000 0.03860  0.27800  0.89580  Biso   1.000  H
  C27      1.0000 0.01400  0.24570  0.96090  Biso   1.000  C
  C28      1.0000 0.16330  0.20930  0.96210  Biso   1.000  C
  C29      1.0000 0.19810  0.17800  0.00060  Biso   1.000  C
  H14      1.0000 0.29700  0.15380  0.00080  Biso   1.000  H
  C30      1.0000 0.09400  0.18070  0.03920  Biso   1.000  C
  C31      1.0000 0.13910  0.13990  0.07780  Biso   1.000  C
  C32      1.0000 0.00280  0.10700  0.09540  Biso   1.000  C
  H15      1.0000 0.87780  0.11240  0.08560  Biso   1.000  H
  C33      1.0000 0.04930  0.06620  0.12730  Biso   1.000  C
  H16      1.0000 0.95640  0.04370  0.13750  Biso   1.000  H
  C34      1.0000 0.23200  0.05930  0.14350  Biso   1.000  C
  C35      1.0000 0.28180  0.01780  0.18130  Biso   1.000  C
  C36      1.0000 0.36990  0.09160  0.12860  Biso   1.000  C
  H17      1.0000 0.49370  0.08680  0.13970  Biso   1.000  H
  C37      1.0000 0.32160  0.13290  0.09590  Biso   1.000  C
  H18      1.0000 0.41480  0.15570  0.08630  Biso   1.000  H
  C38      1.0000 0.27670  0.19960  0.92040  Biso   1.000  C
  C39      1.0000 0.47180  0.20040  0.92580  Biso   1.000  C
  H19      1.0000 0.53050  0.21250  0.95370  Biso   1.000  H
  C40      1.0000 0.57670  0.18370  0.89050  Biso   1.000  C
  H20      1.0000 0.70670  0.18520  0.89390  Biso   1.000  H
  C41      1.0000 0.49150  0.16490  0.85010  Biso   1.000  C
  C42      1.0000 0.60620  0.14180  0.81260  Biso   1.000  C
  C43      1.0000 0.29940  0.16500  0.84170  Biso   1.000  C
  H21      1.0000 0.24360  0.15340  0.81330  Biso   1.000  H
  C44      1.0000 0.19400  0.18290  0.87740  Biso   1.000  C
  H22      1.0000 0.06420  0.18390  0.87270  Biso   1.000  H
  Cd1      1.0000 0.19646  0.57891  0.74620  Biso   1.000  Cd
  Cd2      1.0000 0.65257  0.53774  0.73502  Biso   1.000  Cd
  O1       1.0000 0.11890  0.40704  0.23213  Biso   1.000  O
  O2       1.0000 0.88330  0.36750  0.19322  Biso   1.000  O
  O3       1.0000 0.77860  0.14600  0.81681  Biso   1.000  O
  O4       1.0000 0.52760  0.11300  0.78014  Biso   1.000  O
  O5       1.0000 0.44980  0.01910  0.19700  Biso   1.000  O
  O6       1.0000 0.17120  0.50070  0.79720  Biso   1.000  O
  O7       1.0000 0.44960  0.53460  0.79352  Biso   1.000  O
  O8       1.0000 0.16350  0.98190  0.18858  Biso   1.000  O
  C45      1.0000 0.98600  0.15520  0.11840  Biso   1.000  C
  C46      1.0000 0.88610  0.11050  0.13190  Biso   1.000  C
  H23      1.0000 0.75670  0.10930  0.12650  Biso   1.000  H
  C47      1.0000 0.98000  0.06750  0.15360  Biso   1.000  C
  H24      1.0000 0.91360  0.03750  0.16270  Biso   1.000  H
  C48      1.0000 0.17400  0.06930  0.16170  Biso   1.000  C
  C49      1.0000 0.27310  0.11400  0.14810  Biso   1.000  C
  H25      1.0000 0.40250  0.11520  0.15360  Biso   1.000  H
  C50      1.0000 0.17900  0.15700  0.12650  Biso   1.000  C
  H26      1.0000 0.24560  0.18700  0.11740  Biso   1.000  H
  C51      1.0000 0.34300  0.48970  0.80270  Biso   1.000  C
  C52      1.0000 0.46900  0.45320  0.83250  Biso   1.000  C
  C53      1.0000 0.65500  0.46240  0.84800  Biso   1.000  C
  H27      1.0000 0.71070  0.49510  0.84160  Biso   1.000  H
  C54      1.0000 0.75800  0.42360  0.87270  Biso   1.000  C
  H28      1.0000 0.88210  0.43010  0.88300  Biso   1.000  H
  C55      1.0000 0.67500  0.37490  0.88190  Biso   1.000  C
  C56      1.0000 0.48900  0.36510  0.86660  Biso   1.000  C
  H29      1.0000 0.43380  0.33230  0.87260  Biso   1.000  H
  C57      1.0000 0.38900  0.40460  0.84220  Biso   1.000  C
  H30      1.0000 0.26440  0.39830  0.83230  Biso   1.000  H
  C58      1.0000 0.61500  0.34260  0.97640  Biso   1.000  C
  H31      1.0000 0.55010  0.37100  0.96190  Biso   1.000  H
  C59      1.0000 0.57200  0.32720  0.02150  Biso   1.000  C
  H32      1.0000 0.48160  0.34660  0.03640  Biso   1.000  H
  C60      1.0000 0.66000  0.28300  0.04500  Biso   1.000  C
  C61      1.0000 0.46400  0.29390  0.11620  Biso   1.000  C
  C62      1.0000 0.27800  0.29590  0.10110  Biso   1.000  C
  H33      1.0000 0.23790  0.28100  0.07250  Biso   1.000  H
  C63      1.0000 0.15000  0.32010  0.12880  Biso   1.000  C
  H34      1.0000 0.02320  0.32020  0.11920  Biso   1.000  H
  C64      1.0000 0.21000  0.34430  0.17070  Biso   1.000  C
  C65      1.0000 0.05200  0.36700  0.19600  Biso   1.000  C
  C66      1.0000 0.39600  0.34160  0.18680  Biso   1.000  C
  H35      1.0000 0.43730  0.35700  0.21520  Biso   1.000  H
  C67      1.0000 0.51800  0.31530  0.15920  Biso   1.000  C
  H36      1.0000 0.64220  0.31190  0.17010  Biso   1.000  H
  C68      1.0000 0.80400  0.25840  0.02170  Biso   1.000  C
  C69      1.0000 0.61900  0.26630  0.09040  Biso   1.000  C
  C70      1.0000 0.72700  0.22520  0.11100  Biso   1.000  C
  H37      1.0000 0.69760  0.21410  0.14070  Biso   1.000  H
  C71      1.0000 0.91000  0.21730  0.04500  Biso   1.000  C
  C72      1.0000 0.84800  0.27470  0.97670  Biso   1.000  C
  C73      1.0000 0.75300  0.31620  0.95260  Biso   1.000  C
  C74      1.0000 0.93100  0.30600  0.88670  Biso   1.000  C
  H38      1.0000 0.95740  0.31620  0.85660  Biso   1.000  H
  C75      1.0000 0.78400  0.33120  0.90690  Biso   1.000  C
  C76      1.0000 0.04300  0.26600  0.90860  Biso   1.000  C
  C77      1.0000 0.99500  0.25100  0.95350  Biso   1.000  C
  C78      1.0000 0.08400  0.20560  0.97460  Biso   1.000  C
  H39      1.0000 0.17640  0.18780  0.95910  Biso   1.000  H
  C79      1.0000 0.87700  0.19890  0.09090  Biso   1.000  C
  C80      1.0000 0.03400  0.18730  0.01870  Biso   1.000  C
  H40      1.0000 0.08330  0.15510  0.03060  Biso   1.000  H
  C81      1.0000 0.19000  0.23930  0.88210  Biso   1.000  C
  C82      1.0000 0.37600  0.23760  0.89850  Biso   1.000  C
  H41      1.0000 0.41480  0.25390  0.92660  Biso   1.000  H
  C83      1.0000 0.50300  0.21100  0.87190  Biso   1.000  C
  H42      1.0000 0.62910  0.21530  0.88050  Biso   1.000  H
  C84      1.0000 0.45500  0.17790  0.83280  Biso   1.000  C
  C85      1.0000 0.26500  0.18440  0.81590  Biso   1.000  C
  H43      1.0000 0.22700  0.17000  0.78690  Biso   1.000  H
  C86      1.0000 0.13400  0.21170  0.84170  Biso   1.000  C
  H44      1.0000 0.00780  0.21130  0.83150  Biso   1.000  H
  C87      1.0000 0.66200  0.00460  0.68860  Biso   1.000  C
  C88      1.0000 0.60490  0.96500  0.65050  Biso   1.000  C
  C89      1.0000 0.42130  0.96590  0.63110  Biso   1.000  C
  H45      1.0000 0.33530  0.98990  0.64250  Biso   1.000  H
  C90      1.0000 0.36680  0.93160  0.59510  Biso   1.000  C
  H46      1.0000 0.24450  0.93320  0.58220  Biso   1.000  H
  C91      1.0000 0.49070  0.89470  0.57760  Biso   1.000  C
  C92      1.0000 0.67460  0.89380  0.59720  Biso   1.000  C
  H47      1.0000 0.76010  0.86930  0.58630  Biso   1.000  H
  C93      1.0000 0.72940  0.92870  0.63250  Biso   1.000  C
  H48      1.0000 0.85300  0.92810  0.64460  Biso   1.000  H
  C94      1.0000 0.43770  0.85770  0.53770  Biso   1.000  C
  C95      1.0000 0.54420  0.86060  0.49860  Biso   1.000  C
  H49      1.0000 0.64580  0.88400  0.49900  Biso   1.000  H
  C96      1.0000 0.50300  0.82990  0.45950  Biso   1.000  C
  C97      1.0000 0.61450  0.84000  0.41710  Biso   1.000  C
  C98      1.0000 0.81010  0.83890  0.42240  Biso   1.000  C
  H50      1.0000 0.86950  0.83020  0.45120  Biso   1.000  H
  C99      1.0000 0.91700  0.85090  0.38390  Biso   1.000  C
  H51      1.0000 0.04700  0.84980  0.38740  Biso   1.000  H
  C100     1.0000 0.83290  0.86410  0.34180  Biso   1.000  C
  C101     1.0000 0.94500  0.88250  0.30250  Biso   1.000  C
  C102     1.0000 0.63980  0.86500  0.33680  Biso   1.000  C
  H52      1.0000 0.58180  0.87390  0.30790  Biso   1.000  H
  C103     1.0000 0.53240  0.85330  0.37300  Biso   1.000  C
  H53      1.0000 0.40260  0.85410  0.36840  Biso   1.000  H
  C104     1.0000 0.35600  0.79250  0.45860  Biso   1.000  C
  C105     1.0000 0.31190  0.75680  0.42000  Biso   1.000  C
  H54      1.0000 0.38340  0.75850  0.39390  Biso   1.000  H
  C106     1.0000 0.17160  0.72120  0.42020  Biso   1.000  C
  H55      1.0000 0.14650  0.69960  0.39400  Biso   1.000  H
  C107     1.0000 0.05900  0.71560  0.45970  Biso   1.000  C
  C108     1.0000 0.09690  0.75070  0.49870  Biso   1.000  C
  C109     1.0000 0.24690  0.78850  0.49820  Biso   1.000  C
  C110     1.0000 0.28460  0.82260  0.53750  Biso   1.000  C
  C111     1.0000 0.17110  0.81650  0.57750  Biso   1.000  C
  H56      1.0000 0.19560  0.83820  0.60360  Biso   1.000  H
  C112     1.0000 0.03090  0.78040  0.57780  Biso   1.000  C
  H57      1.0000 0.96140  0.77800  0.60420  Biso   1.000  H
  C113     1.0000 0.98600  0.74570  0.53910  Biso   1.000  C
  C114     1.0000 0.83670  0.70930  0.53790  Biso   1.000  C
  C115     1.0000 0.80190  0.67800  0.49940  Biso   1.000  C
  H58      1.0000 0.70300  0.65380  0.49920  Biso   1.000  H
  C116     1.0000 0.90600  0.68070  0.46080  Biso   1.000  C
  C117     1.0000 0.86090  0.63990  0.42220  Biso   1.000  C
  C118     1.0000 0.99720  0.60700  0.40460  Biso   1.000  C
  H59      1.0000 0.12220  0.61240  0.41440  Biso   1.000  H
  C119     1.0000 0.95070  0.56620  0.37270  Biso   1.000  C
  H60      1.0000 0.04360  0.54370  0.36250  Biso   1.000  H
  C120     1.0000 0.76800  0.55930  0.35650  Biso   1.000  C
  C121     1.0000 0.71820  0.51780  0.31870  Biso   1.000  C
  C122     1.0000 0.63010  0.59160  0.37140  Biso   1.000  C
  H61      1.0000 0.50630  0.58680  0.36030  Biso   1.000  H
  C123     1.0000 0.67840  0.63290  0.40410  Biso   1.000  C
  H62      1.0000 0.58520  0.65570  0.41370  Biso   1.000  H
  C124     1.0000 0.72330  0.69960  0.57960  Biso   1.000  C
  C125     1.0000 0.52820  0.70040  0.57420  Biso   1.000  C
  H63      1.0000 0.46950  0.71250  0.54630  Biso   1.000  H
  C126     1.0000 0.42330  0.68370  0.60950  Biso   1.000  C
  H64      1.0000 0.29330  0.68520  0.60610  Biso   1.000  H
  C127     1.0000 0.50850  0.66490  0.64990  Biso   1.000  C
  C128     1.0000 0.39380  0.64180  0.68740  Biso   1.000  C
  C129     1.0000 0.70060  0.66500  0.65830  Biso   1.000  C
  H65      1.0000 0.75640  0.65340  0.68670  Biso   1.000  H
  C130     1.0000 0.80600  0.68290  0.62260  Biso   1.000  C
  H66      1.0000 0.93580  0.68390  0.62730  Biso   1.000  H
  Cd3      1.0000 0.80354  0.07891  0.75380  Biso   1.000  Cd
  Cd4      1.0000 0.34743  0.03774  0.76498  Biso   1.000  Cd
  O9       1.0000 0.88110  0.90704  0.26787  Biso   1.000  O
  O10      1.0000 0.11670  0.86750  0.30678  Biso   1.000  O
  O11      1.0000 0.22140  0.64600  0.68319  Biso   1.000  O
  O12      1.0000 0.47240  0.61300  0.71986  Biso   1.000  O
  O13      1.0000 0.55020  0.51910  0.30300  Biso   1.000  O
  O14      1.0000 0.82880  0.00070  0.70280  Biso   1.000  O
  O15      1.0000 0.55040  0.03460  0.70648  Biso   1.000  O
  O16      1.0000 0.83650  0.48190  0.31142  Biso   1.000  O
  C131     1.0000 0.01400  0.65520  0.38160  Biso   1.000  C
  C132     1.0000 0.11390  0.61050  0.36810  Biso   1.000  C
  H67      1.0000 0.24330  0.60930  0.37350  Biso   1.000  H
  C133     1.0000 0.02000  0.56750  0.34640  Biso   1.000  C
  H68      1.0000 0.08640  0.53750  0.33730  Biso   1.000  H
  C134     1.0000 0.82600  0.56930  0.33830  Biso   1.000  C
  C135     1.0000 0.72690  0.61400  0.35190  Biso   1.000  C
  H69      1.0000 0.59750  0.61520  0.34640  Biso   1.000  H
  C136     1.0000 0.82100  0.65700  0.37350  Biso   1.000  C
  H70      1.0000 0.75440  0.68700  0.38260  Biso   1.000  H
  C137     1.0000 0.65700  0.98970  0.69730  Biso   1.000  C
  C138     1.0000 0.53100  0.95320  0.66750  Biso   1.000  C
  C139     1.0000 0.34500  0.96240  0.65200  Biso   1.000  C
  H71      1.0000 0.28930  0.99510  0.65840  Biso   1.000  H
  C140     1.0000 0.24200  0.92360  0.62730  Biso   1.000  C
  H72      1.0000 0.11790  0.93010  0.61700  Biso   1.000  H
  C141     1.0000 0.32500  0.87490  0.61810  Biso   1.000  C
  C142     1.0000 0.51100  0.86510  0.63340  Biso   1.000  C
  H73      1.0000 0.56620  0.83230  0.62740  Biso   1.000  H
  C143     1.0000 0.61100  0.90460  0.65780  Biso   1.000  C
  H74      1.0000 0.73560  0.89830  0.66770  Biso   1.000  H
  C144     1.0000 0.38500  0.84260  0.52360  Biso   1.000  C
  H75      1.0000 0.44990  0.87100  0.53810  Biso   1.000  H
  C145     1.0000 0.42800  0.82720  0.47850  Biso   1.000  C
  H76      1.0000 0.51840  0.84660  0.46360  Biso   1.000  H
  C146     1.0000 0.34000  0.78300  0.45500  Biso   1.000  C
  C147     1.0000 0.53600  0.79390  0.38380  Biso   1.000  C
  C148     1.0000 0.72200  0.79590  0.39890  Biso   1.000  C
  H77      1.0000 0.76210  0.78100  0.42750  Biso   1.000  H
  C149     1.0000 0.85000  0.82010  0.37120  Biso   1.000  C
  H78      1.0000 0.97680  0.82020  0.38080  Biso   1.000  H
  C150     1.0000 0.79000  0.84430  0.32930  Biso   1.000  C
  C151     1.0000 0.94800  0.86700  0.30400  Biso   1.000  C
  C152     1.0000 0.60400  0.84160  0.31320  Biso   1.000  C
  H79      1.0000 0.56270  0.85700  0.28480  Biso   1.000  H
  C153     1.0000 0.48200  0.81530  0.34080  Biso   1.000  C
  H80      1.0000 0.35780  0.81190  0.32990  Biso   1.000  H
  C154     1.0000 0.19600  0.75840  0.47830  Biso   1.000  C
  C155     1.0000 0.38100  0.76630  0.40960  Biso   1.000  C
  C156     1.0000 0.27300  0.72520  0.38900  Biso   1.000  C
  H81      1.0000 0.30240  0.71410  0.35930  Biso   1.000  H
  C157     1.0000 0.09000  0.71730  0.45500  Biso   1.000  C
  C158     1.0000 0.15200  0.77470  0.52330  Biso   1.000  C
  C159     1.0000 0.24700  0.81620  0.54740  Biso   1.000  C
  C160     1.0000 0.06900  0.80600  0.61330  Biso   1.000  C
  H82      1.0000 0.04260  0.81620  0.64340  Biso   1.000  H
  C161     1.0000 0.21600  0.83120  0.59310  Biso   1.000  C
  C162     1.0000 0.95700  0.76600  0.59140  Biso   1.000  C
  C163     1.0000 0.00500  0.75100  0.54650  Biso   1.000  C
  C164     1.0000 0.91600  0.70560  0.52540  Biso   1.000  C
  H83      1.0000 0.82360  0.68780  0.54090  Biso   1.000  H
  C165     1.0000 0.12300  0.69890  0.40910  Biso   1.000  C
  C166     1.0000 0.96600  0.68730  0.48130  Biso   1.000  C
  H84      1.0000 0.91670  0.65510  0.46940  Biso   1.000  H
  C167     1.0000 0.81000  0.73930  0.61790  Biso   1.000  C
  C168     1.0000 0.62400  0.73760  0.60150  Biso   1.000  C
  H85      1.0000 0.58520  0.75390  0.57340  Biso   1.000  H
  C169     1.0000 0.49700  0.71100  0.62810  Biso   1.000  C
  H86      1.0000 0.37090  0.71530  0.61950  Biso   1.000  H
  C170     1.0000 0.54500  0.67790  0.66720  Biso   1.000  C
  C171     1.0000 0.73500  0.68440  0.68410  Biso   1.000  C
  H87      1.0000 0.77300  0.67000  0.71310  Biso   1.000  H
  C172     1.0000 0.86600  0.71170  0.65830  Biso   1.000  C
  H88      1.0000 0.99220  0.71130  0.66850  Biso   1.000  H
  C173     1.0000 0.66200  0.49540  0.18860  Biso   1.000  C
  C174     1.0000 0.60490  0.53500  0.15050  Biso   1.000  C
  C175     1.0000 0.42130  0.53410  0.13110  Biso   1.000  C
  H89      1.0000 0.33530  0.51010  0.14250  Biso   1.000  H
  C176     1.0000 0.36680  0.56840  0.09510  Biso   1.000  C
  H90      1.0000 0.24450  0.56680  0.08220  Biso   1.000  H
  C177     1.0000 0.49070  0.60530  0.07760  Biso   1.000  C
  C178     1.0000 0.67460  0.60620  0.09720  Biso   1.000  C
  H91      1.0000 0.76010  0.63070  0.08630  Biso   1.000  H
  C179     1.0000 0.72940  0.57130  0.13250  Biso   1.000  C
  H92      1.0000 0.85300  0.57190  0.14460  Biso   1.000  H
  C180     1.0000 0.43770  0.64230  0.03770  Biso   1.000  C
  C181     1.0000 0.54420  0.63940  0.99860  Biso   1.000  C
  H93      1.0000 0.64580  0.61600  0.99900  Biso   1.000  H
  C182     1.0000 0.50300  0.67010  0.95950  Biso   1.000  C
  C183     1.0000 0.61450  0.66000  0.91710  Biso   1.000  C
  C184     1.0000 0.81010  0.66110  0.92240  Biso   1.000  C
  H94      1.0000 0.86950  0.66980  0.95120  Biso   1.000  H
  C185     1.0000 0.91700  0.64910  0.88390  Biso   1.000  C
  H95      1.0000 0.04700  0.65020  0.88740  Biso   1.000  H
  C186     1.0000 0.83290  0.63590  0.84180  Biso   1.000  C
  C187     1.0000 0.94500  0.61750  0.80250  Biso   1.000  C
  C188     1.0000 0.63980  0.63500  0.83680  Biso   1.000  C
  H96      1.0000 0.58180  0.62610  0.80790  Biso   1.000  H
  C189     1.0000 0.53240  0.64670  0.87300  Biso   1.000  C
  H97      1.0000 0.40260  0.64590  0.86840  Biso   1.000  H
  C190     1.0000 0.35600  0.70750  0.95860  Biso   1.000  C
  C191     1.0000 0.31190  0.74320  0.92000  Biso   1.000  C
  H98      1.0000 0.38340  0.74150  0.89390  Biso   1.000  H
  C192     1.0000 0.17160  0.77880  0.92020  Biso   1.000  C
  H99      1.0000 0.14650  0.80040  0.89400  Biso   1.000  H
  C193     1.0000 0.05900  0.78440  0.95970  Biso   1.000  C
  C194     1.0000 0.09690  0.74930  0.99870  Biso   1.000  C
  C195     1.0000 0.24690  0.71150  0.99820  Biso   1.000  C
  C196     1.0000 0.28460  0.67740  0.03750  Biso   1.000  C
  C197     1.0000 0.17110  0.68350  0.07750  Biso   1.000  C
  H100     1.0000 0.19560  0.66180  0.10360  Biso   1.000  H
  C198     1.0000 0.03090  0.71960  0.07780  Biso   1.000  C
  H101     1.0000 0.96140  0.72200  0.10420  Biso   1.000  H
  C199     1.0000 0.98600  0.75430  0.03910  Biso   1.000  C
  C200     1.0000 0.83670  0.79070  0.03790  Biso   1.000  C
  C201     1.0000 0.80190  0.82200  0.99940  Biso   1.000  C
  H102     1.0000 0.70300  0.84620  0.99920  Biso   1.000  H
  C202     1.0000 0.90600  0.81930  0.96080  Biso   1.000  C
  C203     1.0000 0.86090  0.86010  0.92220  Biso   1.000  C
  C204     1.0000 0.99720  0.89300  0.90460  Biso   1.000  C
  H103     1.0000 0.12220  0.88760  0.91440  Biso   1.000  H
  C205     1.0000 0.95070  0.93380  0.87270  Biso   1.000  C
  H104     1.0000 0.04360  0.95630  0.86250  Biso   1.000  H
  C206     1.0000 0.76800  0.94070  0.85650  Biso   1.000  C
  C207     1.0000 0.71820  0.98220  0.81870  Biso   1.000  C
  C208     1.0000 0.63010  0.90840  0.87140  Biso   1.000  C
  H105     1.0000 0.50630  0.91320  0.86030  Biso   1.000  H
  C209     1.0000 0.67840  0.86710  0.90410  Biso   1.000  C
  H106     1.0000 0.58520  0.84430  0.91370  Biso   1.000  H
  C210     1.0000 0.72330  0.80040  0.07960  Biso   1.000  C
  C211     1.0000 0.52820  0.79960  0.07420  Biso   1.000  C
  H107     1.0000 0.46950  0.78750  0.04630  Biso   1.000  H
  C212     1.0000 0.42330  0.81630  0.10950  Biso   1.000  C
  H108     1.0000 0.29330  0.81480  0.10610  Biso   1.000  H
  C213     1.0000 0.50850  0.83510  0.14990  Biso   1.000  C
  C214     1.0000 0.39380  0.85820  0.18740  Biso   1.000  C
  C215     1.0000 0.70060  0.83500  0.15830  Biso   1.000  C
  H109     1.0000 0.75640  0.84660  0.18670  Biso   1.000  H
  C216     1.0000 0.80600  0.81710  0.12260  Biso   1.000  C
  H110     1.0000 0.93580  0.81610  0.12730  Biso   1.000  H
  Cd5      1.0000 0.80354  0.42109  0.25380  Biso   1.000  Cd
  Cd6      1.0000 0.34743  0.46226  0.26498  Biso   1.000  Cd
  O17      1.0000 0.88110  0.59296  0.76787  Biso   1.000  O
  O18      1.0000 0.11670  0.63250  0.80678  Biso   1.000  O
  O19      1.0000 0.22140  0.85400  0.18319  Biso   1.000  O
  O20      1.0000 0.47240  0.88700  0.21986  Biso   1.000  O
  O21      1.0000 0.55020  0.98090  0.80300  Biso   1.000  O
  O22      1.0000 0.82880  0.49930  0.20280  Biso   1.000  O
  O23      1.0000 0.55040  0.46540  0.20648  Biso   1.000  O
  O24      1.0000 0.83650  0.01810  0.81142  Biso   1.000  O
  C217     1.0000 0.01400  0.84480  0.88160  Biso   1.000  C
  C218     1.0000 0.11390  0.88950  0.86810  Biso   1.000  C
  H111     1.0000 0.24330  0.89070  0.87350  Biso   1.000  H
  C219     1.0000 0.02000  0.93250  0.84640  Biso   1.000  C
  H112     1.0000 0.08640  0.96250  0.83730  Biso   1.000  H
  C220     1.0000 0.82600  0.93070  0.83830  Biso   1.000  C
  C221     1.0000 0.72690  0.88600  0.85190  Biso   1.000  C
  H113     1.0000 0.59750  0.88480  0.84640  Biso   1.000  H
  C222     1.0000 0.82100  0.84300  0.87350  Biso   1.000  C
  H114     1.0000 0.75440  0.81300  0.88260  Biso   1.000  H
  C223     1.0000 0.65700  0.51030  0.19730  Biso   1.000  C
  C224     1.0000 0.53100  0.54680  0.16750  Biso   1.000  C
  C225     1.0000 0.34500  0.53760  0.15200  Biso   1.000  C
  H115     1.0000 0.28930  0.50490  0.15840  Biso   1.000  H
  C226     1.0000 0.24200  0.57640  0.12730  Biso   1.000  C
  H116     1.0000 0.11790  0.56990  0.11700  Biso   1.000  H
  C227     1.0000 0.32500  0.62510  0.11810  Biso   1.000  C
  C228     1.0000 0.51100  0.63490  0.13340  Biso   1.000  C
  H117     1.0000 0.56620  0.66770  0.12740  Biso   1.000  H
  C229     1.0000 0.61100  0.59540  0.15780  Biso   1.000  C
  H118     1.0000 0.73560  0.60170  0.16770  Biso   1.000  H
  C230     1.0000 0.38500  0.65740  0.02360  Biso   1.000  C
  H119     1.0000 0.44990  0.62900  0.03810  Biso   1.000  H
  C231     1.0000 0.42800  0.67280  0.97850  Biso   1.000  C
  H120     1.0000 0.51840  0.65340  0.96360  Biso   1.000  H
  C232     1.0000 0.34000  0.71700  0.95500  Biso   1.000  C
  C233     1.0000 0.53600  0.70610  0.88380  Biso   1.000  C
  C234     1.0000 0.72200  0.70410  0.89890  Biso   1.000  C
  H121     1.0000 0.76210  0.71900  0.92750  Biso   1.000  H
  C235     1.0000 0.85000  0.67990  0.87120  Biso   1.000  C
  H122     1.0000 0.97680  0.67980  0.88080  Biso   1.000  H
  C236     1.0000 0.79000  0.65570  0.82930  Biso   1.000  C
  C237     1.0000 0.94800  0.63300  0.80400  Biso   1.000  C
  C238     1.0000 0.60400  0.65840  0.81320  Biso   1.000  C
  H123     1.0000 0.56270  0.64300  0.78480  Biso   1.000  H
  C239     1.0000 0.48200  0.68470  0.84080  Biso   1.000  C
  H124     1.0000 0.35780  0.68810  0.82990  Biso   1.000  H
  C240     1.0000 0.19600  0.74160  0.97830  Biso   1.000  C
  C241     1.0000 0.38100  0.73370  0.90960  Biso   1.000  C
  C242     1.0000 0.27300  0.77480  0.88900  Biso   1.000  C
  H125     1.0000 0.30240  0.78590  0.85930  Biso   1.000  H
  C243     1.0000 0.09000  0.78270  0.95500  Biso   1.000  C
  C244     1.0000 0.15200  0.72530  0.02330  Biso   1.000  C
  C245     1.0000 0.24700  0.68380  0.04740  Biso   1.000  C
  C246     1.0000 0.06900  0.69400  0.11330  Biso   1.000  C
  H126     1.0000 0.04260  0.68380  0.14340  Biso   1.000  H
  C247     1.0000 0.21600  0.66880  0.09310  Biso   1.000  C
  C248     1.0000 0.95700  0.73400  0.09140  Biso   1.000  C
  C249     1.0000 0.00500  0.74900  0.04650  Biso   1.000  C
  C250     1.0000 0.91600  0.79440  0.02540  Biso   1.000  C
  H127     1.0000 0.82360  0.81220  0.04090  Biso   1.000  H
  C251     1.0000 0.12300  0.80110  0.90910  Biso   1.000  C
  C252     1.0000 0.96600  0.81270  0.98130  Biso   1.000  C
  H128     1.0000 0.91670  0.84490  0.96940  Biso   1.000  H
  C253     1.0000 0.81000  0.76070  0.11790  Biso   1.000  C
  C254     1.0000 0.62400  0.76240  0.10150  Biso   1.000  C
  H129     1.0000 0.58520  0.74610  0.07340  Biso   1.000  H
  C255     1.0000 0.49700  0.78900  0.12810  Biso   1.000  C
  H130     1.0000 0.37090  0.78470  0.11950  Biso   1.000  H
  C256     1.0000 0.54500  0.82210  0.16720  Biso   1.000  C
  C257     1.0000 0.73500  0.81560  0.18410  Biso   1.000  C
  H131     1.0000 0.77300  0.83000  0.21310  Biso   1.000  H
  C258     1.0000 0.86600  0.78830  0.15830  Biso   1.000  C
  H132     1.0000 0.99220  0.78870  0.16850  Biso   1.000  H
  C259     1.0000 0.33800  0.99540  0.31140  Biso   1.000  C
  C260     1.0000 0.39510  0.03500  0.34950  Biso   1.000  C
  C261     1.0000 0.57870  0.03410  0.36890  Biso   1.000  C
  H133     1.0000 0.66470  0.01010  0.35750  Biso   1.000  H
  C262     1.0000 0.63320  0.06840  0.40490  Biso   1.000  C
  H134     1.0000 0.75550  0.06680  0.41780  Biso   1.000  H
  C263     1.0000 0.50930  0.10530  0.42240  Biso   1.000  C
  C264     1.0000 0.32540  0.10620  0.40280  Biso   1.000  C
  H135     1.0000 0.23990  0.13070  0.41370  Biso   1.000  H
  C265     1.0000 0.27060  0.07130  0.36750  Biso   1.000  C
  H136     1.0000 0.14700  0.07190  0.35540  Biso   1.000  H
  C266     1.0000 0.56230  0.14230  0.46230  Biso   1.000  C
  C267     1.0000 0.45580  0.13940  0.50140  Biso   1.000  C
  H137     1.0000 0.35420  0.11600  0.50100  Biso   1.000  H
  C268     1.0000 0.49700  0.17010  0.54050  Biso   1.000  C
  C269     1.0000 0.38550  0.16000  0.58290  Biso   1.000  C
  C270     1.0000 0.18990  0.16110  0.57760  Biso   1.000  C
  H138     1.0000 0.13050  0.16980  0.54880  Biso   1.000  H
  C271     1.0000 0.08300  0.14910  0.61610  Biso   1.000  C
  H139     1.0000 0.95300  0.15020  0.61260  Biso   1.000  H
  C272     1.0000 0.16710  0.13590  0.65820  Biso   1.000  C
  C273     1.0000 0.05500  0.11750  0.69750  Biso   1.000  C
  C274     1.0000 0.36020  0.13500  0.66320  Biso   1.000  C
  H140     1.0000 0.41820  0.12610  0.69210  Biso   1.000  H
  C275     1.0000 0.46760  0.14670  0.62700  Biso   1.000  C
  H141     1.0000 0.59740  0.14590  0.63160  Biso   1.000  H
  C276     1.0000 0.64400  0.20750  0.54140  Biso   1.000  C
  C277     1.0000 0.68810  0.24320  0.58000  Biso   1.000  C
  H142     1.0000 0.61660  0.24150  0.60610  Biso   1.000  H
  C278     1.0000 0.82840  0.27880  0.57980  Biso   1.000  C
  H143     1.0000 0.85350  0.30040  0.60600  Biso   1.000  H
  C279     1.0000 0.94100  0.28440  0.54030  Biso   1.000  C
  C280     1.0000 0.90310  0.24930  0.50130  Biso   1.000  C
  C281     1.0000 0.75310  0.21150  0.50180  Biso   1.000  C
  C282     1.0000 0.71540  0.17740  0.46250  Biso   1.000  C
  C283     1.0000 0.82890  0.18350  0.42250  Biso   1.000  C
  H144     1.0000 0.80440  0.16180  0.39640  Biso   1.000  H
  C284     1.0000 0.96910  0.21960  0.42220  Biso   1.000  C
  H145     1.0000 0.03860  0.22200  0.39580  Biso   1.000  H
  C285     1.0000 0.01400  0.25430  0.46090  Biso   1.000  C
  C286     1.0000 0.16330  0.29070  0.46210  Biso   1.000  C
  C287     1.0000 0.19810  0.32200  0.50060  Biso   1.000  C
  H146     1.0000 0.29700  0.34620  0.50080  Biso   1.000  H
  C288     1.0000 0.09400  0.31930  0.53920  Biso   1.000  C
  C289     1.0000 0.13910  0.36010  0.57780  Biso   1.000  C
  C290     1.0000 0.00280  0.39300  0.59540  Biso   1.000  C
  H147     1.0000 0.87780  0.38760  0.58560  Biso   1.000  H
  C291     1.0000 0.04930  0.43380  0.62730  Biso   1.000  C
  H148     1.0000 0.95640  0.45630  0.63750  Biso   1.000  H
  C292     1.0000 0.23200  0.44070  0.64350  Biso   1.000  C
  C293     1.0000 0.28180  0.48220  0.68130  Biso   1.000  C
  C294     1.0000 0.36990  0.40840  0.62860  Biso   1.000  C
  H149     1.0000 0.49370  0.41320  0.63970  Biso   1.000  H
  C295     1.0000 0.32160  0.36710  0.59590  Biso   1.000  C
  H150     1.0000 0.41480  0.34430  0.58630  Biso   1.000  H
  C296     1.0000 0.27670  0.30040  0.42040  Biso   1.000  C
  C297     1.0000 0.47180  0.29960  0.42580  Biso   1.000  C
  H151     1.0000 0.53050  0.28750  0.45370  Biso   1.000  H
  C298     1.0000 0.57670  0.31630  0.39050  Biso   1.000  C
  H152     1.0000 0.70670  0.31480  0.39390  Biso   1.000  H
  C299     1.0000 0.49150  0.33510  0.35010  Biso   1.000  C
  C300     1.0000 0.60620  0.35820  0.31260  Biso   1.000  C
  C301     1.0000 0.29940  0.33500  0.34170  Biso   1.000  C
  H153     1.0000 0.24360  0.34660  0.31330  Biso   1.000  H
  C302     1.0000 0.19400  0.31710  0.37740  Biso   1.000  C
  H154     1.0000 0.06420  0.31610  0.37270  Biso   1.000  H
  Cd7      1.0000 0.19646  0.92109  0.24620  Biso   1.000  Cd
  Cd8      1.0000 0.65257  0.96226  0.23502  Biso   1.000  Cd
  O25      1.0000 0.11890  0.09296  0.73213  Biso   1.000  O
  O26      1.0000 0.88330  0.13250  0.69322  Biso   1.000  O
  O27      1.0000 0.77860  0.35400  0.31681  Biso   1.000  O
  O28      1.0000 0.52760  0.38700  0.28014  Biso   1.000  O
  O29      1.0000 0.44980  0.48090  0.69700  Biso   1.000  O
  O30      1.0000 0.17120  0.99930  0.29720  Biso   1.000  O
  O31      1.0000 0.44960  0.96540  0.29352  Biso   1.000  O
  O32      1.0000 0.16350  0.51810  0.68858  Biso   1.000  O
  C303     1.0000 0.98600  0.34480  0.61840  Biso   1.000  C
  C304     1.0000 0.88610  0.38950  0.63190  Biso   1.000  C
  H155     1.0000 0.75670  0.39070  0.62650  Biso   1.000  H
  C305     1.0000 0.98000  0.43250  0.65360  Biso   1.000  C
  H156     1.0000 0.91360  0.46250  0.66270  Biso   1.000  H
  C306     1.0000 0.17400  0.43070  0.66170  Biso   1.000  C
  C307     1.0000 0.27310  0.38600  0.64810  Biso   1.000  C
  H157     1.0000 0.40250  0.38480  0.65360  Biso   1.000  H
  C308     1.0000 0.17900  0.34300  0.62650  Biso   1.000  C
  H158     1.0000 0.24560  0.31300  0.61740  Biso   1.000  H
  C309     1.0000 0.34300  0.01030  0.30270  Biso   1.000  C
  C310     1.0000 0.46900  0.04680  0.33250  Biso   1.000  C
  C311     1.0000 0.65500  0.03760  0.34800  Biso   1.000  C
  H159     1.0000 0.71070  0.00490  0.34160  Biso   1.000  H
  C312     1.0000 0.75800  0.07640  0.37270  Biso   1.000  C
  H160     1.0000 0.88210  0.06990  0.38300  Biso   1.000  H
  C313     1.0000 0.67500  0.12510  0.38190  Biso   1.000  C
  C314     1.0000 0.48900  0.13490  0.36660  Biso   1.000  C
  H161     1.0000 0.43380  0.16770  0.37260  Biso   1.000  H
  C315     1.0000 0.38900  0.09540  0.34220  Biso   1.000  C
  H162     1.0000 0.26440  0.10170  0.33230  Biso   1.000  H
  C316     1.0000 0.61500  0.15740  0.47640  Biso   1.000  C
  H163     1.0000 0.55010  0.12900  0.46190  Biso   1.000  H
  C317     1.0000 0.57200  0.17280  0.52150  Biso   1.000  C
  H164     1.0000 0.48160  0.15340  0.53640  Biso   1.000  H
  C318     1.0000 0.66000  0.21700  0.54500  Biso   1.000  C
  C319     1.0000 0.46400  0.20610  0.61620  Biso   1.000  C
  C320     1.0000 0.27800  0.20410  0.60110  Biso   1.000  C
  H165     1.0000 0.23790  0.21900  0.57250  Biso   1.000  H
  C321     1.0000 0.15000  0.17990  0.62880  Biso   1.000  C
  H166     1.0000 0.02320  0.17980  0.61920  Biso   1.000  H
  C322     1.0000 0.21000  0.15570  0.67070  Biso   1.000  C
  C323     1.0000 0.05200  0.13300  0.69600  Biso   1.000  C
  C324     1.0000 0.39600  0.15840  0.68680  Biso   1.000  C
  H167     1.0000 0.43730  0.14300  0.71520  Biso   1.000  H
  C325     1.0000 0.51800  0.18470  0.65920  Biso   1.000  C
  H168     1.0000 0.64220  0.18810  0.67010  Biso   1.000  H
  C326     1.0000 0.80400  0.24160  0.52170  Biso   1.000  C
  C327     1.0000 0.61900  0.23370  0.59040  Biso   1.000  C
  C328     1.0000 0.72700  0.27480  0.61100  Biso   1.000  C
  H169     1.0000 0.69760  0.28590  0.64070  Biso   1.000  H
  C329     1.0000 0.91000  0.28270  0.54500  Biso   1.000  C
  C330     1.0000 0.84800  0.22530  0.47670  Biso   1.000  C
  C331     1.0000 0.75300  0.18380  0.45260  Biso   1.000  C
  C332     1.0000 0.93100  0.19400  0.38670  Biso   1.000  C
  H170     1.0000 0.95740  0.18380  0.35660  Biso   1.000  H
  C333     1.0000 0.78400  0.16880  0.40690  Biso   1.000  C
  C334     1.0000 0.04300  0.23400  0.40860  Biso   1.000  C
  C335     1.0000 0.99500  0.24900  0.45350  Biso   1.000  C
  C336     1.0000 0.08400  0.29440  0.47460  Biso   1.000  C
  H171     1.0000 0.17640  0.31220  0.45910  Biso   1.000  H
  C337     1.0000 0.87700  0.30110  0.59090  Biso   1.000  C
  C338     1.0000 0.03400  0.31270  0.51870  Biso   1.000  C
  H172     1.0000 0.08330  0.34490  0.53060  Biso   1.000  H
  C339     1.0000 0.19000  0.26070  0.38210  Biso   1.000  C
  C340     1.0000 0.37600  0.26240  0.39850  Biso   1.000  C
  H173     1.0000 0.41480  0.24610  0.42660  Biso   1.000  H
  C341     1.0000 0.50300  0.28900  0.37190  Biso   1.000  C
  H174     1.0000 0.62910  0.28470  0.38050  Biso   1.000  H
  C342     1.0000 0.45500  0.32210  0.33280  Biso   1.000  C
  C343     1.0000 0.26500  0.31560  0.31590  Biso   1.000  C
  H175     1.0000 0.22700  0.33000  0.28690  Biso   1.000  H
  C344     1.0000 0.13400  0.28830  0.34170  Biso   1.000  C
  H176     1.0000 0.00780  0.28870  0.33150  Biso   1.000  H
