data_image0
_cell_length_a       13.8166
_cell_length_b       21.7847
_cell_length_c       20.1414
_cell_angle_alpha    90
_cell_angle_beta     103.312
_cell_angle_gamma    90

_symmetry_space_group_name_H-M    "P 1"
_symmetry_int_tables_number       1

loop_
  _symmetry_equiv_pos_as_xyz
  'x, y, z'

loop_
  _atom_site_label
  _atom_site_occupancy
  _atom_site_fract_x
  _atom_site_fract_y
  _atom_site_fract_z
  _atom_site_thermal_displace_type
  _atom_site_B_iso_or_equiv
  _atom_site_type_symbol
  Zn1      1.0000 0.84190  0.51560  0.15870  Biso   1.000  Zn
  Zn2      1.0000 0.62940  0.48560  0.12800  Biso   1.000  Zn
  O1       1.0000 0.83920  0.46520  0.24320  Biso   1.000  O
  O2       1.0000 0.68210  0.43160  0.21020  Biso   1.000  O
  O3       1.0000 0.81810  0.06790  0.60720  Biso   1.000  O
  O4       1.0000 0.65520  0.08390  0.56700  Biso   1.000  O
  O5       1.0000 0.56560  0.26450  0.37410  Biso   1.000  O
  O6       1.0000 0.78920  0.55870  0.06780  Biso   1.000  O
  O7       1.0000 0.62450  0.54570  0.05080  Biso   1.000  O
  O8       1.0000 0.66720  0.93970  0.69190  Biso   1.000  O
  O9       1.0000 0.82360  0.90600  0.70840  Biso   1.000  O
  O10      1.0000 0.90420  0.70770  0.88130  Biso   1.000  O
  C1       1.0000 0.76740  0.43160  0.24880  Biso   1.000  C
  C2       1.0000 0.78500  0.38570  0.30620  Biso   1.000  C
  C3       1.0000 0.88120  0.37510  0.34440  Biso   1.000  C
  H1       1.0000 0.93440  0.39920  0.33580  Biso   1.000  H
  C4       1.0000 0.90120  0.33050  0.39440  Biso   1.000  C
  H2       1.0000 0.96710  0.32300  0.41970  Biso   1.000  H
  C5       1.0000 0.82080  0.29690  0.40640  Biso   1.000  C
  C6       1.0000 0.81880  0.24500  0.45360  Biso   1.000  C
  C7       1.0000 0.89410  0.21460  0.49840  Biso   1.000  C
  H3       1.0000 0.96160  0.22640  0.50340  Biso   1.000  H
  C8       1.0000 0.86860  0.16630  0.53590  Biso   1.000  C
  H4       1.0000 0.91960  0.14420  0.56620  Biso   1.000  H
  C9       1.0000 0.76970  0.14930  0.53010  Biso   1.000  C
  C10      1.0000 0.74550  0.09640  0.57140  Biso   1.000  C
  C11      1.0000 0.69370  0.18020  0.48490  Biso   1.000  C
  H5       1.0000 0.62620  0.16880  0.48040  Biso   1.000  H
  C12      1.0000 0.71880  0.22770  0.44700  Biso   1.000  C
  C13      1.0000 0.65440  0.26650  0.39340  Biso   1.000  C
  C14      1.0000 0.72510  0.30850  0.36940  Biso   1.000  C
  C15      1.0000 0.70600  0.35230  0.31890  Biso   1.000  C
  H6       1.0000 0.64010  0.35940  0.29320  Biso   1.000  H
  C16      1.0000 0.70070  0.56990  0.03770  Biso   1.000  C
  C17      1.0000 0.68430  0.61630  0.98160  Biso   1.000  C
  C18      1.0000 0.58780  0.63790  0.95440  Biso   1.000  C
  H7       1.0000 0.53390  0.62150  0.97060  Biso   1.000  H
  C19      1.0000 0.56950  0.68300  0.90430  Biso   1.000  C
  H8       1.0000 0.50380  0.69730  0.88600  Biso   1.000  H
  C20      1.0000 0.64960  0.70670  0.88150  Biso   1.000  C
  C21      1.0000 0.65490  0.75590  0.83320  Biso   1.000  C
  C22      1.0000 0.58070  0.79280  0.79470  Biso   1.000  C
  H9       1.0000 0.51270  0.78650  0.79490  Biso   1.000  H
  C23      1.0000 0.60940  0.83910  0.75600  Biso   1.000  C
  H10      1.0000 0.56000  0.86510  0.72970  Biso   1.000  H
  C24      1.0000 0.70930  0.84870  0.75460  Biso   1.000  C
  C25      1.0000 0.73540  0.90190  0.71530  Biso   1.000  C
  C26      1.0000 0.78270  0.80990  0.79090  Biso   1.000  C
  H11      1.0000 0.85030  0.81490  0.78890  Biso   1.000  H
  C27      1.0000 0.75510  0.76410  0.82960  Biso   1.000  C
  C28      1.0000 0.81680  0.71770  0.87480  Biso   1.000  C
  C29      1.0000 0.74650  0.68350  0.90840  Biso   1.000  C
  C30      1.0000 0.76480  0.63950  0.95780  Biso   1.000  C
  H12      1.0000 0.83040  0.62490  0.97570  Biso   1.000  H
  N1       1.0000 0.48560  0.48723  0.13210  Biso   1.000  N
  C31      1.0000 0.42160  0.52530  0.09070  Biso   1.000  C
  H13      1.0000 0.44410  0.54890  0.05750  Biso   1.000  H
  C32      1.0000 0.32370  0.53070  0.09570  Biso   1.000  C
  H14      1.0000 0.27960  0.55710  0.06560  Biso   1.000  H
  C33      1.0000 0.28980  0.49750  0.14500  Biso   1.000  C
  C34      1.0000 0.35620  0.45860  0.18700  Biso   1.000  C
  H15      1.0000 0.33530  0.43450  0.22050  Biso   1.000  H
  C35      1.0000 0.45260  0.45500  0.17960  Biso   1.000  C
  H16      1.0000 0.49780  0.42870  0.20920  Biso   1.000  H
  N2       1.0000 0.98780  0.51377  0.16070  Biso   1.000  N
  C36      1.0000 0.04030  0.45978  0.18030  Biso   1.000  C
  H17      1.0000 0.00870  0.42610  0.19650  Biso   1.000  H
  C37      1.0000 0.13900  0.45507  0.17600  Biso   1.000  C
  H18      1.0000 0.17490  0.41820  0.18930  Biso   1.000  H
  C38      1.0000 0.18520  0.50435  0.15210  Biso   1.000  C
  C39      1.0000 0.13280  0.55833  0.13260  Biso   1.000  C
  H19      1.0000 0.16440  0.59200  0.11630  Biso   1.000  H
  C40      1.0000 0.03410  0.56304  0.13690  Biso   1.000  C
  H20      1.0000 0.99820  0.59990  0.12350  Biso   1.000  H
  N3       1.0000 0.98700  0.51320  0.15410  Biso   1.000  N
  C41      1.0000 0.06070  0.50230  0.21270  Biso   1.000  C
  H21      1.0000 0.04380  0.49940  0.25570  Biso   1.000  H
  C42      1.0000 0.15910  0.49580  0.20840  Biso   1.000  C
  H22      1.0000 0.20950  0.48840  0.24840  Biso   1.000  H
  C43      1.0000 0.18390  0.50020  0.14540  Biso   1.000  C
  C44      1.0000 0.11020  0.51100  0.08690  Biso   1.000  C
  H23      1.0000 0.12710  0.51400  0.04380  Biso   1.000  H
  C45      1.0000 0.01170  0.51750  0.09120  Biso   1.000  C
  H24      1.0000 0.96140  0.52490  0.05120  Biso   1.000  H
  Zn3      1.0000 0.84190  0.98440  0.65870  Biso   1.000  Zn
  Zn4      1.0000 0.62940  0.01440  0.62800  Biso   1.000  Zn
  O11      1.0000 0.83920  0.03480  0.74320  Biso   1.000  O
  O12      1.0000 0.68210  0.06840  0.71020  Biso   1.000  O
  O13      1.0000 0.81810  0.43210  0.10720  Biso   1.000  O
  O14      1.0000 0.65520  0.41610  0.06700  Biso   1.000  O
  O15      1.0000 0.56560  0.23550  0.87410  Biso   1.000  O
  O16      1.0000 0.78920  0.94130  0.56780  Biso   1.000  O
  O17      1.0000 0.62450  0.95430  0.55080  Biso   1.000  O
  O18      1.0000 0.66720  0.56030  0.19190  Biso   1.000  O
  O19      1.0000 0.82360  0.59400  0.20840  Biso   1.000  O
  O20      1.0000 0.90420  0.79230  0.38130  Biso   1.000  O
  C46      1.0000 0.76740  0.06840  0.74880  Biso   1.000  C
  C47      1.0000 0.78500  0.11430  0.80620  Biso   1.000  C
  C48      1.0000 0.88120  0.12490  0.84440  Biso   1.000  C
  H25      1.0000 0.93440  0.10080  0.83580  Biso   1.000  H
  C49      1.0000 0.90120  0.16950  0.89440  Biso   1.000  C
  H26      1.0000 0.96710  0.17700  0.91970  Biso   1.000  H
  C50      1.0000 0.82080  0.20310  0.90640  Biso   1.000  C
  C51      1.0000 0.81880  0.25500  0.95360  Biso   1.000  C
  C52      1.0000 0.89410  0.28540  0.99840  Biso   1.000  C
  H27      1.0000 0.96160  0.27360  0.00340  Biso   1.000  H
  C53      1.0000 0.86860  0.33370  0.03590  Biso   1.000  C
  H28      1.0000 0.91960  0.35580  0.06620  Biso   1.000  H
  C54      1.0000 0.76970  0.35070  0.03010  Biso   1.000  C
  C55      1.0000 0.74550  0.40360  0.07140  Biso   1.000  C
  C56      1.0000 0.69370  0.31980  0.98490  Biso   1.000  C
  H29      1.0000 0.62620  0.33120  0.98040  Biso   1.000  H
  C57      1.0000 0.71880  0.27230  0.94700  Biso   1.000  C
  C58      1.0000 0.65440  0.23350  0.89340  Biso   1.000  C
  C59      1.0000 0.72510  0.19150  0.86940  Biso   1.000  C
  C60      1.0000 0.70600  0.14770  0.81890  Biso   1.000  C
  H30      1.0000 0.64010  0.14060  0.79320  Biso   1.000  H
  C61      1.0000 0.70070  0.93010  0.53770  Biso   1.000  C
  C62      1.0000 0.68430  0.88370  0.48160  Biso   1.000  C
  C63      1.0000 0.58780  0.86210  0.45440  Biso   1.000  C
  H31      1.0000 0.53390  0.87850  0.47060  Biso   1.000  H
  C64      1.0000 0.56950  0.81700  0.40430  Biso   1.000  C
  H32      1.0000 0.50380  0.80270  0.38600  Biso   1.000  H
  C65      1.0000 0.64960  0.79330  0.38150  Biso   1.000  C
  C66      1.0000 0.65490  0.74410  0.33320  Biso   1.000  C
  C67      1.0000 0.58070  0.70720  0.29470  Biso   1.000  C
  H33      1.0000 0.51270  0.71350  0.29490  Biso   1.000  H
  C68      1.0000 0.60940  0.66090  0.25600  Biso   1.000  C
  H34      1.0000 0.56000  0.63490  0.22970  Biso   1.000  H
  C69      1.0000 0.70930  0.65130  0.25460  Biso   1.000  C
  C70      1.0000 0.73540  0.59810  0.21530  Biso   1.000  C
  C71      1.0000 0.78270  0.69010  0.29090  Biso   1.000  C
  H35      1.0000 0.85030  0.68510  0.28890  Biso   1.000  H
  C72      1.0000 0.75510  0.73590  0.32960  Biso   1.000  C
  C73      1.0000 0.81680  0.78230  0.37480  Biso   1.000  C
  C74      1.0000 0.74650  0.81650  0.40840  Biso   1.000  C
  C75      1.0000 0.76480  0.86050  0.45780  Biso   1.000  C
  H36      1.0000 0.83040  0.87510  0.47570  Biso   1.000  H
  N4       1.0000 0.48560  0.01277  0.63210  Biso   1.000  N
  C76      1.0000 0.42160  0.97470  0.59070  Biso   1.000  C
  H37      1.0000 0.44410  0.95110  0.55750  Biso   1.000  H
  C77      1.0000 0.32370  0.96930  0.59570  Biso   1.000  C
  H38      1.0000 0.27960  0.94290  0.56560  Biso   1.000  H
  C78      1.0000 0.28980  0.00250  0.64500  Biso   1.000  C
  C79      1.0000 0.35620  0.04140  0.68700  Biso   1.000  C
  H39      1.0000 0.33530  0.06550  0.72050  Biso   1.000  H
  C80      1.0000 0.45260  0.04500  0.67960  Biso   1.000  C
  H40      1.0000 0.49780  0.07130  0.70920  Biso   1.000  H
  N5       1.0000 0.98780  0.98623  0.66070  Biso   1.000  N
  C81      1.0000 0.04030  0.04022  0.68030  Biso   1.000  C
  H41      1.0000 0.00870  0.07390  0.69650  Biso   1.000  H
  C82      1.0000 0.13900  0.04493  0.67600  Biso   1.000  C
  H42      1.0000 0.17490  0.08180  0.68930  Biso   1.000  H
  C83      1.0000 0.18520  0.99565  0.65210  Biso   1.000  C
  C84      1.0000 0.13280  0.94167  0.63260  Biso   1.000  C
  H43      1.0000 0.16440  0.90800  0.61630  Biso   1.000  H
  C85      1.0000 0.03410  0.93696  0.63690  Biso   1.000  C
  H44      1.0000 0.99820  0.90010  0.62350  Biso   1.000  H
  N6       1.0000 0.98700  0.98680  0.65410  Biso   1.000  N
  C86      1.0000 0.06070  0.99770  0.71270  Biso   1.000  C
  H45      1.0000 0.04380  0.00060  0.75570  Biso   1.000  H
  C87      1.0000 0.15910  0.00420  0.70840  Biso   1.000  C
  H46      1.0000 0.20950  0.01160  0.74840  Biso   1.000  H
  C88      1.0000 0.18390  0.99980  0.64540  Biso   1.000  C
  C89      1.0000 0.11020  0.98900  0.58690  Biso   1.000  C
  H47      1.0000 0.12710  0.98600  0.54380  Biso   1.000  H
  C90      1.0000 0.01170  0.98250  0.59120  Biso   1.000  C
  H48      1.0000 0.96140  0.97510  0.55120  Biso   1.000  H
  Zn5      1.0000 0.15810  0.01560  0.34130  Biso   1.000  Zn
  Zn6      1.0000 0.37060  0.98560  0.37200  Biso   1.000  Zn
  O21      1.0000 0.16080  0.96520  0.25680  Biso   1.000  O
  O22      1.0000 0.31790  0.93160  0.28980  Biso   1.000  O
  O23      1.0000 0.18190  0.56790  0.89280  Biso   1.000  O
  O24      1.0000 0.34480  0.58390  0.93300  Biso   1.000  O
  O25      1.0000 0.43440  0.76450  0.12590  Biso   1.000  O
  O26      1.0000 0.21080  0.05870  0.43220  Biso   1.000  O
  O27      1.0000 0.37550  0.04570  0.44920  Biso   1.000  O
  O28      1.0000 0.33280  0.43970  0.80810  Biso   1.000  O
  O29      1.0000 0.17640  0.40600  0.79160  Biso   1.000  O
  O30      1.0000 0.09580  0.20770  0.61870  Biso   1.000  O
  C91      1.0000 0.23260  0.93160  0.25120  Biso   1.000  C
  C92      1.0000 0.21500  0.88570  0.19380  Biso   1.000  C
  C93      1.0000 0.11880  0.87510  0.15560  Biso   1.000  C
  H49      1.0000 0.06560  0.89920  0.16420  Biso   1.000  H
  C94      1.0000 0.09880  0.83050  0.10560  Biso   1.000  C
  H50      1.0000 0.03290  0.82300  0.08030  Biso   1.000  H
  C95      1.0000 0.17920  0.79690  0.09360  Biso   1.000  C
  C96      1.0000 0.18120  0.74500  0.04640  Biso   1.000  C
  C97      1.0000 0.10590  0.71460  0.00160  Biso   1.000  C
  H51      1.0000 0.03840  0.72640  0.99660  Biso   1.000  H
  C98      1.0000 0.13140  0.66630  0.96410  Biso   1.000  C
  H52      1.0000 0.08040  0.64420  0.93380  Biso   1.000  H
  C99      1.0000 0.23030  0.64930  0.96990  Biso   1.000  C
  C100     1.0000 0.25450  0.59640  0.92860  Biso   1.000  C
  C101     1.0000 0.30630  0.68020  0.01510  Biso   1.000  C
  H53      1.0000 0.37380  0.66880  0.01960  Biso   1.000  H
  C102     1.0000 0.28120  0.72770  0.05300  Biso   1.000  C
  C103     1.0000 0.34560  0.76650  0.10660  Biso   1.000  C
  C104     1.0000 0.27490  0.80850  0.13060  Biso   1.000  C
  C105     1.0000 0.29400  0.85230  0.18110  Biso   1.000  C
  H54      1.0000 0.35990  0.85940  0.20680  Biso   1.000  H
  C106     1.0000 0.29930  0.06990  0.46230  Biso   1.000  C
  C107     1.0000 0.31570  0.11630  0.51840  Biso   1.000  C
  C108     1.0000 0.41220  0.13790  0.54560  Biso   1.000  C
  H55      1.0000 0.46610  0.12150  0.52940  Biso   1.000  H
  C109     1.0000 0.43050  0.18300  0.59570  Biso   1.000  C
  H56      1.0000 0.49620  0.19730  0.61400  Biso   1.000  H
  C110     1.0000 0.35040  0.20670  0.61850  Biso   1.000  C
  C111     1.0000 0.34510  0.25590  0.66680  Biso   1.000  C
  C112     1.0000 0.41930  0.29280  0.70530  Biso   1.000  C
  H57      1.0000 0.48730  0.28650  0.70510  Biso   1.000  H
  C113     1.0000 0.39060  0.33910  0.74400  Biso   1.000  C
  H58      1.0000 0.44000  0.36510  0.77030  Biso   1.000  H
  C114     1.0000 0.29070  0.34870  0.74540  Biso   1.000  C
  C115     1.0000 0.26460  0.40190  0.78470  Biso   1.000  C
  C116     1.0000 0.21730  0.30990  0.70910  Biso   1.000  C
  H59      1.0000 0.14970  0.31490  0.71110  Biso   1.000  H
  C117     1.0000 0.24490  0.26410  0.67040  Biso   1.000  C
  C118     1.0000 0.18320  0.21770  0.62520  Biso   1.000  C
  C119     1.0000 0.25350  0.18350  0.59160  Biso   1.000  C
  C120     1.0000 0.23520  0.13950  0.54220  Biso   1.000  C
  H60      1.0000 0.16960  0.12490  0.52430  Biso   1.000  H
  N7       1.0000 0.51440  0.98723  0.36790  Biso   1.000  N
  C121     1.0000 0.57840  0.02530  0.40930  Biso   1.000  C
  H61      1.0000 0.55590  0.04890  0.44250  Biso   1.000  H
  C122     1.0000 0.67630  0.03070  0.40430  Biso   1.000  C
  H62      1.0000 0.72040  0.05710  0.43440  Biso   1.000  H
  C123     1.0000 0.71020  0.99750  0.35500  Biso   1.000  C
  C124     1.0000 0.64380  0.95860  0.31300  Biso   1.000  C
  H63      1.0000 0.66470  0.93450  0.27950  Biso   1.000  H
  C125     1.0000 0.54740  0.95500  0.32040  Biso   1.000  C
  H64      1.0000 0.50220  0.92870  0.29080  Biso   1.000  H
  N8       1.0000 0.01220  0.01377  0.33930  Biso   1.000  N
  C126     1.0000 0.95970  0.95978  0.31970  Biso   1.000  C
  H65      1.0000 0.99130  0.92610  0.30350  Biso   1.000  H
  C127     1.0000 0.86100  0.95507  0.32400  Biso   1.000  C
  H66      1.0000 0.82510  0.91820  0.31070  Biso   1.000  H
  C128     1.0000 0.81480  0.00435  0.34790  Biso   1.000  C
  C129     1.0000 0.86720  0.05833  0.36740  Biso   1.000  C
  H67      1.0000 0.83560  0.09200  0.38370  Biso   1.000  H
  C130     1.0000 0.96590  0.06304  0.36310  Biso   1.000  C
  H68      1.0000 0.00180  0.09990  0.37650  Biso   1.000  H
  N9       1.0000 0.01300  0.01320  0.34590  Biso   1.000  N
  C131     1.0000 0.93930  0.00230  0.28730  Biso   1.000  C
  H69      1.0000 0.95620  0.99940  0.24430  Biso   1.000  H
  C132     1.0000 0.84090  0.99580  0.29160  Biso   1.000  C
  H70      1.0000 0.79050  0.98840  0.25160  Biso   1.000  H
  C133     1.0000 0.81610  0.00020  0.35460  Biso   1.000  C
  C134     1.0000 0.88980  0.01100  0.41310  Biso   1.000  C
  H71      1.0000 0.87290  0.01400  0.45620  Biso   1.000  H
  C135     1.0000 0.98830  0.01750  0.40880  Biso   1.000  C
  H72      1.0000 0.03860  0.02490  0.44880  Biso   1.000  H
  Zn7      1.0000 0.15810  0.48440  0.84130  Biso   1.000  Zn
  Zn8      1.0000 0.37060  0.51440  0.87200  Biso   1.000  Zn
  O31      1.0000 0.16080  0.53480  0.75680  Biso   1.000  O
  O32      1.0000 0.31790  0.56840  0.78980  Biso   1.000  O
  O33      1.0000 0.18190  0.93210  0.39280  Biso   1.000  O
  O34      1.0000 0.34480  0.91610  0.43300  Biso   1.000  O
  O35      1.0000 0.43440  0.73550  0.62590  Biso   1.000  O
  O36      1.0000 0.21080  0.44130  0.93220  Biso   1.000  O
  O37      1.0000 0.37550  0.45430  0.94920  Biso   1.000  O
  O38      1.0000 0.33280  0.06030  0.30810  Biso   1.000  O
  O39      1.0000 0.17640  0.09400  0.29160  Biso   1.000  O
  O40      1.0000 0.09580  0.29230  0.11870  Biso   1.000  O
  C136     1.0000 0.23260  0.56840  0.75120  Biso   1.000  C
  C137     1.0000 0.21500  0.61430  0.69380  Biso   1.000  C
  C138     1.0000 0.11880  0.62490  0.65560  Biso   1.000  C
  H73      1.0000 0.06560  0.60080  0.66420  Biso   1.000  H
  C139     1.0000 0.09880  0.66950  0.60560  Biso   1.000  C
  H74      1.0000 0.03290  0.67700  0.58030  Biso   1.000  H
  C140     1.0000 0.17920  0.70310  0.59360  Biso   1.000  C
  C141     1.0000 0.18120  0.75500  0.54640  Biso   1.000  C
  C142     1.0000 0.10590  0.78540  0.50160  Biso   1.000  C
  H75      1.0000 0.03840  0.77360  0.49660  Biso   1.000  H
  C143     1.0000 0.13140  0.83370  0.46410  Biso   1.000  C
  H76      1.0000 0.08040  0.85580  0.43380  Biso   1.000  H
  C144     1.0000 0.23030  0.85070  0.46990  Biso   1.000  C
  C145     1.0000 0.25450  0.90360  0.42860  Biso   1.000  C
  C146     1.0000 0.30630  0.81980  0.51510  Biso   1.000  C
  H77      1.0000 0.37380  0.83120  0.51960  Biso   1.000  H
  C147     1.0000 0.28120  0.77230  0.55300  Biso   1.000  C
  C148     1.0000 0.34560  0.73350  0.60660  Biso   1.000  C
  C149     1.0000 0.27490  0.69150  0.63060  Biso   1.000  C
  C150     1.0000 0.29400  0.64770  0.68110  Biso   1.000  C
  H78      1.0000 0.35990  0.64060  0.70680  Biso   1.000  H
  C151     1.0000 0.29930  0.43010  0.96230  Biso   1.000  C
  C152     1.0000 0.31570  0.38370  0.01840  Biso   1.000  C
  C153     1.0000 0.41220  0.36210  0.04560  Biso   1.000  C
  H79      1.0000 0.46610  0.37850  0.02940  Biso   1.000  H
  C154     1.0000 0.43050  0.31700  0.09570  Biso   1.000  C
  H80      1.0000 0.49620  0.30270  0.11400  Biso   1.000  H
  C155     1.0000 0.35040  0.29330  0.11850  Biso   1.000  C
  C156     1.0000 0.34510  0.24410  0.16680  Biso   1.000  C
  C157     1.0000 0.41930  0.20720  0.20530  Biso   1.000  C
  H81      1.0000 0.48730  0.21350  0.20510  Biso   1.000  H
  C158     1.0000 0.39060  0.16090  0.24400  Biso   1.000  C
  H82      1.0000 0.44000  0.13490  0.27030  Biso   1.000  H
  C159     1.0000 0.29070  0.15130  0.24540  Biso   1.000  C
  C160     1.0000 0.26460  0.09810  0.28470  Biso   1.000  C
  C161     1.0000 0.21730  0.19010  0.20910  Biso   1.000  C
  H83      1.0000 0.14970  0.18510  0.21110  Biso   1.000  H
  C162     1.0000 0.24490  0.23590  0.17040  Biso   1.000  C
  C163     1.0000 0.18320  0.28230  0.12520  Biso   1.000  C
  C164     1.0000 0.25350  0.31650  0.09160  Biso   1.000  C
  C165     1.0000 0.23520  0.36050  0.04220  Biso   1.000  C
  H84      1.0000 0.16960  0.37510  0.02430  Biso   1.000  H
  N10      1.0000 0.51440  0.51277  0.86790  Biso   1.000  N
  C166     1.0000 0.57840  0.47470  0.90930  Biso   1.000  C
  H85      1.0000 0.55590  0.45110  0.94250  Biso   1.000  H
  C167     1.0000 0.67630  0.46930  0.90430  Biso   1.000  C
  H86      1.0000 0.72040  0.44290  0.93440  Biso   1.000  H
  C168     1.0000 0.71020  0.50250  0.85500  Biso   1.000  C
  C169     1.0000 0.64380  0.54140  0.81300  Biso   1.000  C
  H87      1.0000 0.66470  0.56550  0.77950  Biso   1.000  H
  C170     1.0000 0.54740  0.54500  0.82040  Biso   1.000  C
  H88      1.0000 0.50220  0.57130  0.79080  Biso   1.000  H
  N11      1.0000 0.01220  0.48623  0.83930  Biso   1.000  N
  C171     1.0000 0.95970  0.54022  0.81970  Biso   1.000  C
  H89      1.0000 0.99130  0.57390  0.80350  Biso   1.000  H
  C172     1.0000 0.86100  0.54493  0.82400  Biso   1.000  C
  H90      1.0000 0.82510  0.58180  0.81070  Biso   1.000  H
  C173     1.0000 0.81480  0.49565  0.84790  Biso   1.000  C
  C174     1.0000 0.86720  0.44167  0.86740  Biso   1.000  C
  H91      1.0000 0.83560  0.40800  0.88370  Biso   1.000  H
  C175     1.0000 0.96590  0.43696  0.86310  Biso   1.000  C
  H92      1.0000 0.00180  0.40010  0.87650  Biso   1.000  H
  N12      1.0000 0.01300  0.48680  0.84590  Biso   1.000  N
  C176     1.0000 0.93930  0.49770  0.78730  Biso   1.000  C
  H93      1.0000 0.95620  0.50060  0.74430  Biso   1.000  H
  C177     1.0000 0.84090  0.50420  0.79160  Biso   1.000  C
  H94      1.0000 0.79050  0.51160  0.75160  Biso   1.000  H
  C178     1.0000 0.81610  0.49980  0.85460  Biso   1.000  C
  C179     1.0000 0.88980  0.48900  0.91310  Biso   1.000  C
  H95      1.0000 0.87290  0.48600  0.95620  Biso   1.000  H
  C180     1.0000 0.98830  0.48250  0.90880  Biso   1.000  C
  H96      1.0000 0.03860  0.47510  0.94880  Biso   1.000  H
