data_image0
_cell_length_a       32.902
_cell_length_b       23.2587
_cell_length_c       18.5665
_cell_angle_alpha    90
_cell_angle_beta     122.058
_cell_angle_gamma    90

_symmetry_space_group_name_H-M    "P 1"
_symmetry_int_tables_number       1

loop_
  _symmetry_equiv_pos_as_xyz
  'x, y, z'

loop_
  _atom_site_label
  _atom_site_occupancy
  _atom_site_fract_x
  _atom_site_fract_y
  _atom_site_fract_z
  _atom_site_thermal_displace_type
  _atom_site_B_iso_or_equiv
  _atom_site_type_symbol
  Zn1      1.0000 0.08875  0.76344  0.98914  Biso   1.000  Zn
  Zn2      1.0000 0.19178  0.73690  0.08746  Biso   1.000  Zn
  O1       1.0000 0.09210  0.30420  0.42210  Biso   1.000  O
  O2       1.0000 0.18160  0.19610  0.64740  Biso   1.000  O
  O3       1.0000 0.17400  0.68190  0.15030  Biso   1.000  O
  O4       1.0000 0.11100  0.81450  0.92750  Biso   1.000  O
  O5       1.0000 0.16990  0.32450  0.49520  Biso   1.000  O
  O6       1.0000 0.18930  0.79610  0.00510  Biso   1.000  O
  O7       1.0000 0.09660  0.70480  0.07640  Biso   1.000  O
  O8       1.0000 0.10400  0.17280  0.57320  Biso   1.000  O
  N1       1.0000 0.26420  0.72900  0.16000  Biso   1.000  N
  N2       1.0000 0.51630  0.72740  0.41580  Biso   1.000  N
  C1       1.0000 0.29150  0.76140  0.14290  Biso   1.000  C
  H1       1.0000 0.27640  0.78680  0.09570  Biso   1.000  H
  C2       1.0000 0.41710  0.72300  0.31470  Biso   1.000  C
  C3       1.0000 0.12740  0.33420  0.43700  Biso   1.000  C
  C4       1.0000 0.36370  0.72390  0.26110  Biso   1.000  C
  C5       1.0000 0.15340  0.82390  0.94910  Biso   1.000  C
  C6       1.0000 0.09820  0.98960  0.73560  Biso   1.000  C
  H2       1.0000 0.07920  0.96840  0.68130  Biso   1.000  H
  H3       1.0000 0.07610  0.00890  0.74880  Biso   1.000  H
  C7       1.0000 0.14800  0.16520  0.63380  Biso   1.000  C
  C8       1.0000 0.28600  0.69470  0.22790  Biso   1.000  C
  H4       1.0000 0.26700  0.67210  0.24160  Biso   1.000  H
  C9       1.0000 0.18080  0.50510  0.33470  Biso   1.000  C
  H5       1.0000 0.20150  0.48500  0.31910  Biso   1.000  H
  H6       1.0000 0.20120  0.52480  0.38990  Biso   1.000  H
  C10      1.0000 0.13090  0.67560  0.12940  Biso   1.000  C
  C11      1.0000 0.13240  0.95020  0.80680  Biso   1.000  C
  C12      1.0000 0.12120  0.62710  0.17100  Biso   1.000  C
  C13      1.0000 0.12370  0.90270  0.84120  Biso   1.000  C
  H7       1.0000 0.09170  0.89090  0.82050  Biso   1.000  H
  C14      1.0000 0.12050  0.08050  0.68060  Biso   1.000  C
  H8       1.0000 0.08810  0.09060  0.64080  Biso   1.000  H
  C15      1.0000 0.11830  0.38510  0.38130  Biso   1.000  C
  C16      1.0000 0.15600  0.41650  0.38970  Biso   1.000  C
  H9       1.0000 0.18810  0.40560  0.43040  Biso   1.000  H
  C17      1.0000 0.14790  0.54690  0.26680  Biso   1.000  C
  C18      1.0000 0.15790  0.11400  0.68860  Biso   1.000  C
  C19      1.0000 0.16200  0.87230  0.90640  Biso   1.000  C
  C20      1.0000 0.15830  0.59570  0.23500  Biso   1.000  C
  H10      1.0000 0.19060  0.60700  0.25740  Biso   1.000  H
  C21      1.0000 0.18030  0.96630  0.83550  Biso   1.000  C
  C22      1.0000 0.10030  0.53220  0.23620  Biso   1.000  C
  C23      1.0000 0.07170  0.39980  0.32080  Biso   1.000  C
  H11      1.0000 0.04600  0.37680  0.31400  Biso   1.000  H
  C24      1.0000 0.20520  0.09870  0.74620  Biso   1.000  C
  H12      1.0000 0.23040  0.12230  0.75220  Biso   1.000  H
  C25      1.0000 0.14680  0.46440  0.33810  Biso   1.000  C
  C26      1.0000 0.34110  0.75900  0.19180  Biso   1.000  C
  H13      1.0000 0.35950  0.78190  0.17690  Biso   1.000  H
  C27      1.0000 0.10000  0.48000  0.27930  Biso   1.000  C
  C28      1.0000 0.13130  0.03210  0.73170  Biso   1.000  C
  C29      1.0000 0.07370  0.61260  0.14160  Biso   1.000  C
  H14      1.0000 0.04840  0.63520  0.09840  Biso   1.000  H
  C30      1.0000 0.17960  0.01780  0.79040  Biso   1.000  C
  C31      1.0000 0.06210  0.44760  0.27020  Biso   1.000  C
  H15      1.0000 0.02990  0.45820  0.22970  Biso   1.000  H
  C32      1.0000 0.21620  0.04910  0.79510  Biso   1.000  C
  H16      1.0000 0.24860  0.03710  0.83110  Biso   1.000  H
  C33      1.0000 0.20930  0.88650  0.93250  Biso   1.000  C
  H17      1.0000 0.23520  0.86350  0.97340  Biso   1.000  H
  C34      1.0000 0.06280  0.56560  0.17480  Biso   1.000  C
  H18      1.0000 0.03050  0.55640  0.15580  Biso   1.000  H
  C35      1.0000 0.49130  0.70240  0.44340  Biso   1.000  C
  C36      1.0000 0.33530  0.69100  0.27900  Biso   1.000  C
  H19      1.0000 0.34970  0.66570  0.32640  Biso   1.000  H
  C37      1.0000 0.21830  0.93430  0.89820  Biso   1.000  C
  C38      1.0000 0.44460  0.73230  0.28330  Biso   1.000  C
  H20      1.0000 0.42990  0.73800  0.22380  Biso   1.000  H
  C39      1.0000 0.49340  0.73390  0.33430  Biso   1.000  C
  H21      1.0000 0.51150  0.74010  0.30860  Biso   1.000  H
  C40      1.0000 0.44300  0.68180  0.36580  Biso   1.000  C
  H22      1.0000 0.43320  0.64270  0.35640  Biso   1.000  H
  C41      1.0000 0.44160  0.77400  0.31700  Biso   1.000  C
  H23      1.0000 0.42480  0.80730  0.28540  Biso   1.000  H
  C42      1.0000 0.48990  0.77260  0.36500  Biso   1.000  C
  C43      1.0000 0.44260  0.70690  0.40450  Biso   1.000  C
  H24      1.0000 0.42650  0.70000  0.43360  Biso   1.000  H
  Zn3      1.0000 0.58875  0.26344  0.98914  Biso   1.000  Zn
  Zn4      1.0000 0.69178  0.23690  0.08746  Biso   1.000  Zn
  O9       1.0000 0.59210  0.80420  0.42210  Biso   1.000  O
  O10      1.0000 0.68160  0.69610  0.64740  Biso   1.000  O
  O11      1.0000 0.67400  0.18190  0.15030  Biso   1.000  O
  O12      1.0000 0.61100  0.31450  0.92750  Biso   1.000  O
  O13      1.0000 0.66990  0.82450  0.49520  Biso   1.000  O
  O14      1.0000 0.68930  0.29610  0.00510  Biso   1.000  O
  O15      1.0000 0.59660  0.20480  0.07640  Biso   1.000  O
  O16      1.0000 0.60400  0.67280  0.57320  Biso   1.000  O
  N3       1.0000 0.76420  0.22900  0.16000  Biso   1.000  N
  N4       1.0000 0.01630  0.22740  0.41580  Biso   1.000  N
  C44      1.0000 0.79150  0.26140  0.14290  Biso   1.000  C
  H25      1.0000 0.77640  0.28680  0.09570  Biso   1.000  H
  C45      1.0000 0.91710  0.22300  0.31470  Biso   1.000  C
  C46      1.0000 0.62740  0.83420  0.43700  Biso   1.000  C
  C47      1.0000 0.86370  0.22390  0.26110  Biso   1.000  C
  C48      1.0000 0.65340  0.32390  0.94910  Biso   1.000  C
  C49      1.0000 0.59820  0.48960  0.73560  Biso   1.000  C
  H26      1.0000 0.57920  0.46840  0.68130  Biso   1.000  H
  H27      1.0000 0.57610  0.50890  0.74880  Biso   1.000  H
  C50      1.0000 0.64800  0.66520  0.63380  Biso   1.000  C
  C51      1.0000 0.78600  0.19470  0.22790  Biso   1.000  C
  H28      1.0000 0.76700  0.17210  0.24160  Biso   1.000  H
  C52      1.0000 0.68080  0.00510  0.33470  Biso   1.000  C
  H29      1.0000 0.70150  0.98500  0.31910  Biso   1.000  H
  H30      1.0000 0.70120  0.02480  0.38990  Biso   1.000  H
  C53      1.0000 0.63090  0.17560  0.12940  Biso   1.000  C
  C54      1.0000 0.63240  0.45020  0.80680  Biso   1.000  C
  C55      1.0000 0.62120  0.12710  0.17100  Biso   1.000  C
  C56      1.0000 0.62370  0.40270  0.84120  Biso   1.000  C
  H31      1.0000 0.59170  0.39090  0.82050  Biso   1.000  H
  C57      1.0000 0.62050  0.58050  0.68060  Biso   1.000  C
  H32      1.0000 0.58810  0.59060  0.64080  Biso   1.000  H
  C58      1.0000 0.61830  0.88510  0.38130  Biso   1.000  C
  C59      1.0000 0.65600  0.91650  0.38970  Biso   1.000  C
  H33      1.0000 0.68810  0.90560  0.43040  Biso   1.000  H
  C60      1.0000 0.64790  0.04690  0.26680  Biso   1.000  C
  C61      1.0000 0.65790  0.61400  0.68860  Biso   1.000  C
  C62      1.0000 0.66200  0.37230  0.90640  Biso   1.000  C
  C63      1.0000 0.65830  0.09570  0.23500  Biso   1.000  C
  H34      1.0000 0.69060  0.10700  0.25740  Biso   1.000  H
  C64      1.0000 0.68030  0.46630  0.83550  Biso   1.000  C
  C65      1.0000 0.60030  0.03220  0.23620  Biso   1.000  C
  C66      1.0000 0.57170  0.89980  0.32080  Biso   1.000  C
  H35      1.0000 0.54600  0.87680  0.31400  Biso   1.000  H
  C67      1.0000 0.70520  0.59870  0.74620  Biso   1.000  C
  H36      1.0000 0.73040  0.62230  0.75220  Biso   1.000  H
  C68      1.0000 0.64680  0.96440  0.33810  Biso   1.000  C
  C69      1.0000 0.84110  0.25900  0.19180  Biso   1.000  C
  H37      1.0000 0.85950  0.28190  0.17690  Biso   1.000  H
  C70      1.0000 0.60000  0.98000  0.27930  Biso   1.000  C
  C71      1.0000 0.63130  0.53210  0.73170  Biso   1.000  C
  C72      1.0000 0.57370  0.11260  0.14160  Biso   1.000  C
  H38      1.0000 0.54840  0.13520  0.09840  Biso   1.000  H
  C73      1.0000 0.67960  0.51780  0.79040  Biso   1.000  C
  C74      1.0000 0.56210  0.94760  0.27020  Biso   1.000  C
  H39      1.0000 0.52990  0.95820  0.22970  Biso   1.000  H
  C75      1.0000 0.71620  0.54910  0.79510  Biso   1.000  C
  H40      1.0000 0.74860  0.53710  0.83110  Biso   1.000  H
  C76      1.0000 0.70930  0.38650  0.93250  Biso   1.000  C
  H41      1.0000 0.73520  0.36350  0.97340  Biso   1.000  H
  C77      1.0000 0.56280  0.06560  0.17480  Biso   1.000  C
  H42      1.0000 0.53050  0.05640  0.15580  Biso   1.000  H
  C78      1.0000 0.99130  0.20240  0.44340  Biso   1.000  C
  C79      1.0000 0.83530  0.19100  0.27900  Biso   1.000  C
  H43      1.0000 0.84970  0.16570  0.32640  Biso   1.000  H
  C80      1.0000 0.71830  0.43430  0.89820  Biso   1.000  C
  C81      1.0000 0.94460  0.23230  0.28330  Biso   1.000  C
  H44      1.0000 0.92990  0.23800  0.22380  Biso   1.000  H
  C82      1.0000 0.99340  0.23390  0.33430  Biso   1.000  C
  H45      1.0000 0.01150  0.24010  0.30860  Biso   1.000  H
  C83      1.0000 0.94300  0.18180  0.36580  Biso   1.000  C
  H46      1.0000 0.93320  0.14270  0.35640  Biso   1.000  H
  C84      1.0000 0.94160  0.27400  0.31700  Biso   1.000  C
  H47      1.0000 0.92480  0.30730  0.28540  Biso   1.000  H
  C85      1.0000 0.98990  0.27260  0.36500  Biso   1.000  C
  C86      1.0000 0.94260  0.20690  0.40450  Biso   1.000  C
  H48      1.0000 0.92650  0.20000  0.43360  Biso   1.000  H
  Zn5      1.0000 0.08875  0.23656  0.48914  Biso   1.000  Zn
  Zn6      1.0000 0.19178  0.26310  0.58746  Biso   1.000  Zn
  O17      1.0000 0.09210  0.69580  0.92210  Biso   1.000  O
  O18      1.0000 0.18160  0.80390  0.14740  Biso   1.000  O
  O19      1.0000 0.17400  0.31810  0.65030  Biso   1.000  O
  O20      1.0000 0.11100  0.18550  0.42750  Biso   1.000  O
  O21      1.0000 0.16990  0.67550  0.99520  Biso   1.000  O
  O22      1.0000 0.18930  0.20390  0.50510  Biso   1.000  O
  O23      1.0000 0.09660  0.29520  0.57640  Biso   1.000  O
  O24      1.0000 0.10400  0.82720  0.07320  Biso   1.000  O
  N5       1.0000 0.26420  0.27100  0.66000  Biso   1.000  N
  N6       1.0000 0.51630  0.27260  0.91580  Biso   1.000  N
  C87      1.0000 0.29150  0.23860  0.64290  Biso   1.000  C
  H49      1.0000 0.27640  0.21320  0.59570  Biso   1.000  H
  C88      1.0000 0.41710  0.27700  0.81470  Biso   1.000  C
  C89      1.0000 0.12740  0.66580  0.93700  Biso   1.000  C
  C90      1.0000 0.36370  0.27610  0.76110  Biso   1.000  C
  C91      1.0000 0.15340  0.17610  0.44910  Biso   1.000  C
  C92      1.0000 0.09820  0.01040  0.23560  Biso   1.000  C
  H50      1.0000 0.07920  0.03160  0.18130  Biso   1.000  H
  H51      1.0000 0.07610  0.99110  0.24880  Biso   1.000  H
  C93      1.0000 0.14800  0.83480  0.13380  Biso   1.000  C
  C94      1.0000 0.28600  0.30530  0.72790  Biso   1.000  C
  H52      1.0000 0.26700  0.32790  0.74160  Biso   1.000  H
  C95      1.0000 0.18080  0.49490  0.83470  Biso   1.000  C
  H53      1.0000 0.20150  0.51500  0.81910  Biso   1.000  H
  H54      1.0000 0.20120  0.47520  0.88990  Biso   1.000  H
  C96      1.0000 0.13090  0.32440  0.62940  Biso   1.000  C
  C97      1.0000 0.13240  0.04980  0.30680  Biso   1.000  C
  C98      1.0000 0.12120  0.37290  0.67100  Biso   1.000  C
  C99      1.0000 0.12370  0.09730  0.34120  Biso   1.000  C
  H55      1.0000 0.09170  0.10910  0.32050  Biso   1.000  H
  C100     1.0000 0.12050  0.91950  0.18060  Biso   1.000  C
  H56      1.0000 0.08810  0.90940  0.14080  Biso   1.000  H
  C101     1.0000 0.11830  0.61490  0.88130  Biso   1.000  C
  C102     1.0000 0.15600  0.58350  0.88970  Biso   1.000  C
  H57      1.0000 0.18810  0.59440  0.93040  Biso   1.000  H
  C103     1.0000 0.14790  0.45310  0.76680  Biso   1.000  C
  C104     1.0000 0.15790  0.88600  0.18860  Biso   1.000  C
  C105     1.0000 0.16200  0.12770  0.40640  Biso   1.000  C
  C106     1.0000 0.15830  0.40430  0.73500  Biso   1.000  C
  H58      1.0000 0.19060  0.39300  0.75740  Biso   1.000  H
  C107     1.0000 0.18030  0.03370  0.33550  Biso   1.000  C
  C108     1.0000 0.10030  0.46780  0.73620  Biso   1.000  C
  C109     1.0000 0.07170  0.60020  0.82080  Biso   1.000  C
  H59      1.0000 0.04600  0.62320  0.81400  Biso   1.000  H
  C110     1.0000 0.20520  0.90130  0.24620  Biso   1.000  C
  H60      1.0000 0.23040  0.87770  0.25220  Biso   1.000  H
  C111     1.0000 0.14680  0.53560  0.83810  Biso   1.000  C
  C112     1.0000 0.34110  0.24100  0.69180  Biso   1.000  C
  H61      1.0000 0.35950  0.21810  0.67690  Biso   1.000  H
  C113     1.0000 0.10000  0.52000  0.77930  Biso   1.000  C
  C114     1.0000 0.13130  0.96790  0.23170  Biso   1.000  C
  C115     1.0000 0.07370  0.38740  0.64160  Biso   1.000  C
  H62      1.0000 0.04840  0.36480  0.59840  Biso   1.000  H
  C116     1.0000 0.17960  0.98220  0.29040  Biso   1.000  C
  C117     1.0000 0.06210  0.55240  0.77020  Biso   1.000  C
  H63      1.0000 0.02990  0.54180  0.72970  Biso   1.000  H
  C118     1.0000 0.21620  0.95090  0.29510  Biso   1.000  C
  H64      1.0000 0.24860  0.96290  0.33110  Biso   1.000  H
  C119     1.0000 0.20930  0.11350  0.43250  Biso   1.000  C
  H65      1.0000 0.23520  0.13650  0.47340  Biso   1.000  H
  C120     1.0000 0.06280  0.43440  0.67480  Biso   1.000  C
  H66      1.0000 0.03050  0.44360  0.65580  Biso   1.000  H
  C121     1.0000 0.49130  0.29760  0.94340  Biso   1.000  C
  C122     1.0000 0.33530  0.30900  0.77900  Biso   1.000  C
  H67      1.0000 0.34970  0.33430  0.82640  Biso   1.000  H
  C123     1.0000 0.21830  0.06570  0.39820  Biso   1.000  C
  C124     1.0000 0.44460  0.26770  0.78330  Biso   1.000  C
  H68      1.0000 0.42990  0.26200  0.72380  Biso   1.000  H
  C125     1.0000 0.49340  0.26610  0.83430  Biso   1.000  C
  H69      1.0000 0.51150  0.25990  0.80860  Biso   1.000  H
  C126     1.0000 0.44300  0.31820  0.86580  Biso   1.000  C
  H70      1.0000 0.43320  0.35730  0.85640  Biso   1.000  H
  C127     1.0000 0.44160  0.22600  0.81700  Biso   1.000  C
  H71      1.0000 0.42480  0.19270  0.78540  Biso   1.000  H
  C128     1.0000 0.48990  0.22740  0.86500  Biso   1.000  C
  C129     1.0000 0.44260  0.29310  0.90450  Biso   1.000  C
  H72      1.0000 0.42650  0.30000  0.93360  Biso   1.000  H
  Zn7      1.0000 0.58875  0.73656  0.48914  Biso   1.000  Zn
  Zn8      1.0000 0.69178  0.76310  0.58746  Biso   1.000  Zn
  O25      1.0000 0.59210  0.19580  0.92210  Biso   1.000  O
  O26      1.0000 0.68160  0.30390  0.14740  Biso   1.000  O
  O27      1.0000 0.67400  0.81810  0.65030  Biso   1.000  O
  O28      1.0000 0.61100  0.68550  0.42750  Biso   1.000  O
  O29      1.0000 0.66990  0.17550  0.99520  Biso   1.000  O
  O30      1.0000 0.68930  0.70390  0.50510  Biso   1.000  O
  O31      1.0000 0.59660  0.79520  0.57640  Biso   1.000  O
  O32      1.0000 0.60400  0.32720  0.07320  Biso   1.000  O
  N7       1.0000 0.76420  0.77100  0.66000  Biso   1.000  N
  N8       1.0000 0.01630  0.77260  0.91580  Biso   1.000  N
  C130     1.0000 0.79150  0.73860  0.64290  Biso   1.000  C
  H73      1.0000 0.77640  0.71320  0.59570  Biso   1.000  H
  C131     1.0000 0.91710  0.77700  0.81470  Biso   1.000  C
  C132     1.0000 0.62740  0.16580  0.93700  Biso   1.000  C
  C133     1.0000 0.86370  0.77610  0.76110  Biso   1.000  C
  C134     1.0000 0.65340  0.67610  0.44910  Biso   1.000  C
  C135     1.0000 0.59820  0.51040  0.23560  Biso   1.000  C
  H74      1.0000 0.57920  0.53160  0.18130  Biso   1.000  H
  H75      1.0000 0.57610  0.49110  0.24880  Biso   1.000  H
  C136     1.0000 0.64800  0.33480  0.13380  Biso   1.000  C
  C137     1.0000 0.78600  0.80530  0.72790  Biso   1.000  C
  H76      1.0000 0.76700  0.82790  0.74160  Biso   1.000  H
  C138     1.0000 0.68080  0.99490  0.83470  Biso   1.000  C
  H77      1.0000 0.70150  0.01500  0.81910  Biso   1.000  H
  H78      1.0000 0.70120  0.97520  0.88990  Biso   1.000  H
  C139     1.0000 0.63090  0.82440  0.62940  Biso   1.000  C
  C140     1.0000 0.63240  0.54980  0.30680  Biso   1.000  C
  C141     1.0000 0.62120  0.87290  0.67100  Biso   1.000  C
  C142     1.0000 0.62370  0.59730  0.34120  Biso   1.000  C
  H79      1.0000 0.59170  0.60910  0.32050  Biso   1.000  H
  C143     1.0000 0.62050  0.41950  0.18060  Biso   1.000  C
  H80      1.0000 0.58810  0.40940  0.14080  Biso   1.000  H
  C144     1.0000 0.61830  0.11490  0.88130  Biso   1.000  C
  C145     1.0000 0.65600  0.08350  0.88970  Biso   1.000  C
  H81      1.0000 0.68810  0.09440  0.93040  Biso   1.000  H
  C146     1.0000 0.64790  0.95310  0.76680  Biso   1.000  C
  C147     1.0000 0.65790  0.38600  0.18860  Biso   1.000  C
  C148     1.0000 0.66200  0.62770  0.40640  Biso   1.000  C
  C149     1.0000 0.65830  0.90430  0.73500  Biso   1.000  C
  H82      1.0000 0.69060  0.89300  0.75740  Biso   1.000  H
  C150     1.0000 0.68030  0.53370  0.33550  Biso   1.000  C
  C151     1.0000 0.60030  0.96780  0.73620  Biso   1.000  C
  C152     1.0000 0.57170  0.10020  0.82080  Biso   1.000  C
  H83      1.0000 0.54600  0.12320  0.81400  Biso   1.000  H
  C153     1.0000 0.70520  0.40130  0.24620  Biso   1.000  C
  H84      1.0000 0.73040  0.37770  0.25220  Biso   1.000  H
  C154     1.0000 0.64680  0.03560  0.83810  Biso   1.000  C
  C155     1.0000 0.84110  0.74100  0.69180  Biso   1.000  C
  H85      1.0000 0.85950  0.71810  0.67690  Biso   1.000  H
  C156     1.0000 0.60000  0.02000  0.77930  Biso   1.000  C
  C157     1.0000 0.63130  0.46790  0.23170  Biso   1.000  C
  C158     1.0000 0.57370  0.88740  0.64160  Biso   1.000  C
  H86      1.0000 0.54840  0.86480  0.59840  Biso   1.000  H
  C159     1.0000 0.67960  0.48220  0.29040  Biso   1.000  C
  C160     1.0000 0.56210  0.05240  0.77020  Biso   1.000  C
  H87      1.0000 0.52990  0.04180  0.72970  Biso   1.000  H
  C161     1.0000 0.71620  0.45090  0.29510  Biso   1.000  C
  H88      1.0000 0.74860  0.46290  0.33110  Biso   1.000  H
  C162     1.0000 0.70930  0.61350  0.43250  Biso   1.000  C
  H89      1.0000 0.73520  0.63650  0.47340  Biso   1.000  H
  C163     1.0000 0.56280  0.93440  0.67480  Biso   1.000  C
  H90      1.0000 0.53050  0.94360  0.65580  Biso   1.000  H
  C164     1.0000 0.99130  0.79760  0.94340  Biso   1.000  C
  C165     1.0000 0.83530  0.80900  0.77900  Biso   1.000  C
  H91      1.0000 0.84970  0.83430  0.82640  Biso   1.000  H
  C166     1.0000 0.71830  0.56570  0.39820  Biso   1.000  C
  C167     1.0000 0.94460  0.76770  0.78330  Biso   1.000  C
  H92      1.0000 0.92990  0.76200  0.72380  Biso   1.000  H
  C168     1.0000 0.99340  0.76610  0.83430  Biso   1.000  C
  H93      1.0000 0.01150  0.75990  0.80860  Biso   1.000  H
  C169     1.0000 0.94300  0.81820  0.86580  Biso   1.000  C
  H94      1.0000 0.93320  0.85730  0.85640  Biso   1.000  H
  C170     1.0000 0.94160  0.72600  0.81700  Biso   1.000  C
  H95      1.0000 0.92480  0.69270  0.78540  Biso   1.000  H
  C171     1.0000 0.98990  0.72740  0.86500  Biso   1.000  C
  C172     1.0000 0.94260  0.79310  0.90450  Biso   1.000  C
  H96      1.0000 0.92650  0.80000  0.93360  Biso   1.000  H
  Zn9      1.0000 0.91125  0.76344  0.51086  Biso   1.000  Zn
  Zn10     1.0000 0.80822  0.73690  0.41254  Biso   1.000  Zn
  O33      1.0000 0.90790  0.30420  0.07790  Biso   1.000  O
  O34      1.0000 0.81840  0.19610  0.85260  Biso   1.000  O
  O35      1.0000 0.82600  0.68190  0.34970  Biso   1.000  O
  O36      1.0000 0.88900  0.81450  0.57250  Biso   1.000  O
  O37      1.0000 0.83010  0.32450  0.00480  Biso   1.000  O
  O38      1.0000 0.81070  0.79610  0.49490  Biso   1.000  O
  O39      1.0000 0.90340  0.70480  0.42360  Biso   1.000  O
  O40      1.0000 0.89600  0.17280  0.92680  Biso   1.000  O
  N9       1.0000 0.73580  0.72900  0.34000  Biso   1.000  N
  N10      1.0000 0.48370  0.72740  0.08420  Biso   1.000  N
  C173     1.0000 0.70850  0.76140  0.35710  Biso   1.000  C
  H97      1.0000 0.72360  0.78680  0.40430  Biso   1.000  H
  C174     1.0000 0.58290  0.72300  0.18530  Biso   1.000  C
  C175     1.0000 0.87260  0.33420  0.06300  Biso   1.000  C
  C176     1.0000 0.63630  0.72390  0.23890  Biso   1.000  C
  C177     1.0000 0.84660  0.82390  0.55090  Biso   1.000  C
  C178     1.0000 0.90180  0.98960  0.76440  Biso   1.000  C
  H98      1.0000 0.92080  0.96840  0.81870  Biso   1.000  H
  H99      1.0000 0.92390  0.00890  0.75120  Biso   1.000  H
  C179     1.0000 0.85200  0.16520  0.86620  Biso   1.000  C
  C180     1.0000 0.71400  0.69470  0.27210  Biso   1.000  C
  H100     1.0000 0.73300  0.67210  0.25840  Biso   1.000  H
  C181     1.0000 0.81920  0.50510  0.16530  Biso   1.000  C
  H101     1.0000 0.79850  0.48500  0.18090  Biso   1.000  H
  H102     1.0000 0.79880  0.52480  0.11010  Biso   1.000  H
  C182     1.0000 0.86910  0.67560  0.37060  Biso   1.000  C
  C183     1.0000 0.86760  0.95020  0.69320  Biso   1.000  C
  C184     1.0000 0.87880  0.62710  0.32900  Biso   1.000  C
  C185     1.0000 0.87630  0.90270  0.65880  Biso   1.000  C
  H103     1.0000 0.90830  0.89090  0.67950  Biso   1.000  H
  C186     1.0000 0.87950  0.08050  0.81940  Biso   1.000  C
  H104     1.0000 0.91190  0.09060  0.85920  Biso   1.000  H
  C187     1.0000 0.88170  0.38510  0.11870  Biso   1.000  C
  C188     1.0000 0.84400  0.41650  0.11030  Biso   1.000  C
  H105     1.0000 0.81190  0.40560  0.06960  Biso   1.000  H
  C189     1.0000 0.85210  0.54690  0.23320  Biso   1.000  C
  C190     1.0000 0.84210  0.11400  0.81140  Biso   1.000  C
  C191     1.0000 0.83800  0.87230  0.59360  Biso   1.000  C
  C192     1.0000 0.84170  0.59570  0.26500  Biso   1.000  C
  H106     1.0000 0.80940  0.60700  0.24260  Biso   1.000  H
  C193     1.0000 0.81970  0.96630  0.66450  Biso   1.000  C
  C194     1.0000 0.89970  0.53220  0.26380  Biso   1.000  C
  C195     1.0000 0.92830  0.39980  0.17920  Biso   1.000  C
  H107     1.0000 0.95400  0.37680  0.18600  Biso   1.000  H
  C196     1.0000 0.79480  0.09870  0.75380  Biso   1.000  C
  H108     1.0000 0.76960  0.12230  0.74780  Biso   1.000  H
  C197     1.0000 0.85320  0.46440  0.16190  Biso   1.000  C
  C198     1.0000 0.65890  0.75900  0.30820  Biso   1.000  C
  H109     1.0000 0.64050  0.78190  0.32310  Biso   1.000  H
  C199     1.0000 0.90000  0.48000  0.22070  Biso   1.000  C
  C200     1.0000 0.86870  0.03210  0.76830  Biso   1.000  C
  C201     1.0000 0.92630  0.61260  0.35840  Biso   1.000  C
  H110     1.0000 0.95160  0.63520  0.40160  Biso   1.000  H
  C202     1.0000 0.82040  0.01780  0.70960  Biso   1.000  C
  C203     1.0000 0.93790  0.44760  0.22980  Biso   1.000  C
  H111     1.0000 0.97010  0.45820  0.27030  Biso   1.000  H
  C204     1.0000 0.78380  0.04910  0.70490  Biso   1.000  C
  H112     1.0000 0.75140  0.03710  0.66890  Biso   1.000  H
  C205     1.0000 0.79070  0.88650  0.56750  Biso   1.000  C
  H113     1.0000 0.76480  0.86350  0.52660  Biso   1.000  H
  C206     1.0000 0.93720  0.56560  0.32520  Biso   1.000  C
  H114     1.0000 0.96950  0.55640  0.34420  Biso   1.000  H
  C207     1.0000 0.50870  0.70240  0.05660  Biso   1.000  C
  C208     1.0000 0.66470  0.69100  0.22100  Biso   1.000  C
  H115     1.0000 0.65030  0.66570  0.17360  Biso   1.000  H
  C209     1.0000 0.78170  0.93430  0.60180  Biso   1.000  C
  C210     1.0000 0.55540  0.73230  0.21670  Biso   1.000  C
  H116     1.0000 0.57010  0.73800  0.27620  Biso   1.000  H
  C211     1.0000 0.50660  0.73390  0.16570  Biso   1.000  C
  H117     1.0000 0.48850  0.74010  0.19140  Biso   1.000  H
  C212     1.0000 0.55700  0.68180  0.13420  Biso   1.000  C
  H118     1.0000 0.56680  0.64270  0.14360  Biso   1.000  H
  C213     1.0000 0.55840  0.77400  0.18300  Biso   1.000  C
  H119     1.0000 0.57520  0.80730  0.21460  Biso   1.000  H
  C214     1.0000 0.51010  0.77260  0.13500  Biso   1.000  C
  C215     1.0000 0.55740  0.70690  0.09550  Biso   1.000  C
  H120     1.0000 0.57350  0.70000  0.06640  Biso   1.000  H
  Zn11     1.0000 0.41125  0.26344  0.51086  Biso   1.000  Zn
  Zn12     1.0000 0.30822  0.23690  0.41254  Biso   1.000  Zn
  O41      1.0000 0.40790  0.80420  0.07790  Biso   1.000  O
  O42      1.0000 0.31840  0.69610  0.85260  Biso   1.000  O
  O43      1.0000 0.32600  0.18190  0.34970  Biso   1.000  O
  O44      1.0000 0.38900  0.31450  0.57250  Biso   1.000  O
  O45      1.0000 0.33010  0.82450  0.00480  Biso   1.000  O
  O46      1.0000 0.31070  0.29610  0.49490  Biso   1.000  O
  O47      1.0000 0.40340  0.20480  0.42360  Biso   1.000  O
  O48      1.0000 0.39600  0.67280  0.92680  Biso   1.000  O
  N11      1.0000 0.23580  0.22900  0.34000  Biso   1.000  N
  N12      1.0000 0.98370  0.22740  0.08420  Biso   1.000  N
  C216     1.0000 0.20850  0.26140  0.35710  Biso   1.000  C
  H121     1.0000 0.22360  0.28680  0.40430  Biso   1.000  H
  C217     1.0000 0.08290  0.22300  0.18530  Biso   1.000  C
  C218     1.0000 0.37260  0.83420  0.06300  Biso   1.000  C
  C219     1.0000 0.13630  0.22390  0.23890  Biso   1.000  C
  C220     1.0000 0.34660  0.32390  0.55090  Biso   1.000  C
  C221     1.0000 0.40180  0.48960  0.76440  Biso   1.000  C
  H122     1.0000 0.42080  0.46840  0.81870  Biso   1.000  H
  H123     1.0000 0.42390  0.50890  0.75120  Biso   1.000  H
  C222     1.0000 0.35200  0.66520  0.86620  Biso   1.000  C
  C223     1.0000 0.21400  0.19470  0.27210  Biso   1.000  C
  H124     1.0000 0.23300  0.17210  0.25840  Biso   1.000  H
  C224     1.0000 0.31920  0.00510  0.16530  Biso   1.000  C
  H125     1.0000 0.29850  0.98500  0.18090  Biso   1.000  H
  H126     1.0000 0.29880  0.02480  0.11010  Biso   1.000  H
  C225     1.0000 0.36910  0.17560  0.37060  Biso   1.000  C
  C226     1.0000 0.36760  0.45020  0.69320  Biso   1.000  C
  C227     1.0000 0.37880  0.12710  0.32900  Biso   1.000  C
  C228     1.0000 0.37630  0.40270  0.65880  Biso   1.000  C
  H127     1.0000 0.40830  0.39090  0.67950  Biso   1.000  H
  C229     1.0000 0.37950  0.58050  0.81940  Biso   1.000  C
  H128     1.0000 0.41190  0.59060  0.85920  Biso   1.000  H
  C230     1.0000 0.38170  0.88510  0.11870  Biso   1.000  C
  C231     1.0000 0.34400  0.91650  0.11030  Biso   1.000  C
  H129     1.0000 0.31190  0.90560  0.06960  Biso   1.000  H
  C232     1.0000 0.35210  0.04690  0.23320  Biso   1.000  C
  C233     1.0000 0.34210  0.61400  0.81140  Biso   1.000  C
  C234     1.0000 0.33800  0.37230  0.59360  Biso   1.000  C
  C235     1.0000 0.34170  0.09570  0.26500  Biso   1.000  C
  H130     1.0000 0.30940  0.10700  0.24260  Biso   1.000  H
  C236     1.0000 0.31970  0.46630  0.66450  Biso   1.000  C
  C237     1.0000 0.39970  0.03220  0.26380  Biso   1.000  C
  C238     1.0000 0.42830  0.89980  0.17920  Biso   1.000  C
  H131     1.0000 0.45400  0.87680  0.18600  Biso   1.000  H
  C239     1.0000 0.29480  0.59870  0.75380  Biso   1.000  C
  H132     1.0000 0.26960  0.62230  0.74780  Biso   1.000  H
  C240     1.0000 0.35320  0.96440  0.16190  Biso   1.000  C
  C241     1.0000 0.15890  0.25900  0.30820  Biso   1.000  C
  H133     1.0000 0.14050  0.28190  0.32310  Biso   1.000  H
  C242     1.0000 0.40000  0.98000  0.22070  Biso   1.000  C
  C243     1.0000 0.36870  0.53210  0.76830  Biso   1.000  C
  C244     1.0000 0.42630  0.11260  0.35840  Biso   1.000  C
  H134     1.0000 0.45160  0.13520  0.40160  Biso   1.000  H
  C245     1.0000 0.32040  0.51780  0.70960  Biso   1.000  C
  C246     1.0000 0.43790  0.94760  0.22980  Biso   1.000  C
  H135     1.0000 0.47010  0.95820  0.27030  Biso   1.000  H
  C247     1.0000 0.28380  0.54910  0.70490  Biso   1.000  C
  H136     1.0000 0.25140  0.53710  0.66890  Biso   1.000  H
  C248     1.0000 0.29070  0.38650  0.56750  Biso   1.000  C
  H137     1.0000 0.26480  0.36350  0.52660  Biso   1.000  H
  C249     1.0000 0.43720  0.06560  0.32520  Biso   1.000  C
  H138     1.0000 0.46950  0.05640  0.34420  Biso   1.000  H
  C250     1.0000 0.00870  0.20240  0.05660  Biso   1.000  C
  C251     1.0000 0.16470  0.19100  0.22100  Biso   1.000  C
  H139     1.0000 0.15030  0.16570  0.17360  Biso   1.000  H
  C252     1.0000 0.28170  0.43430  0.60180  Biso   1.000  C
  C253     1.0000 0.05540  0.23230  0.21670  Biso   1.000  C
  H140     1.0000 0.07010  0.23800  0.27620  Biso   1.000  H
  C254     1.0000 0.00660  0.23390  0.16570  Biso   1.000  C
  H141     1.0000 0.98850  0.24010  0.19140  Biso   1.000  H
  C255     1.0000 0.05700  0.18180  0.13420  Biso   1.000  C
  H142     1.0000 0.06680  0.14270  0.14360  Biso   1.000  H
  C256     1.0000 0.05840  0.27400  0.18300  Biso   1.000  C
  H143     1.0000 0.07520  0.30730  0.21460  Biso   1.000  H
  C257     1.0000 0.01010  0.27260  0.13500  Biso   1.000  C
  C258     1.0000 0.05740  0.20690  0.09550  Biso   1.000  C
  H144     1.0000 0.07350  0.20000  0.06640  Biso   1.000  H
  Zn13     1.0000 0.91125  0.23656  0.01086  Biso   1.000  Zn
  Zn14     1.0000 0.80822  0.26310  0.91254  Biso   1.000  Zn
  O49      1.0000 0.90790  0.69580  0.57790  Biso   1.000  O
  O50      1.0000 0.81840  0.80390  0.35260  Biso   1.000  O
  O51      1.0000 0.82600  0.31810  0.84970  Biso   1.000  O
  O52      1.0000 0.88900  0.18550  0.07250  Biso   1.000  O
  O53      1.0000 0.83010  0.67550  0.50480  Biso   1.000  O
  O54      1.0000 0.81070  0.20390  0.99490  Biso   1.000  O
  O55      1.0000 0.90340  0.29520  0.92360  Biso   1.000  O
  O56      1.0000 0.89600  0.82720  0.42680  Biso   1.000  O
  N13      1.0000 0.73580  0.27100  0.84000  Biso   1.000  N
  N14      1.0000 0.48370  0.27260  0.58420  Biso   1.000  N
  C259     1.0000 0.70850  0.23860  0.85710  Biso   1.000  C
  H145     1.0000 0.72360  0.21320  0.90430  Biso   1.000  H
  C260     1.0000 0.58290  0.27700  0.68530  Biso   1.000  C
  C261     1.0000 0.87260  0.66580  0.56300  Biso   1.000  C
  C262     1.0000 0.63630  0.27610  0.73890  Biso   1.000  C
  C263     1.0000 0.84660  0.17610  0.05090  Biso   1.000  C
  C264     1.0000 0.90180  0.01040  0.26440  Biso   1.000  C
  H146     1.0000 0.92080  0.03160  0.31870  Biso   1.000  H
  H147     1.0000 0.92390  0.99110  0.25120  Biso   1.000  H
  C265     1.0000 0.85200  0.83480  0.36620  Biso   1.000  C
  C266     1.0000 0.71400  0.30530  0.77210  Biso   1.000  C
  H148     1.0000 0.73300  0.32790  0.75840  Biso   1.000  H
  C267     1.0000 0.81920  0.49490  0.66530  Biso   1.000  C
  H149     1.0000 0.79850  0.51500  0.68090  Biso   1.000  H
  H150     1.0000 0.79880  0.47520  0.61010  Biso   1.000  H
  C268     1.0000 0.86910  0.32440  0.87060  Biso   1.000  C
  C269     1.0000 0.86760  0.04980  0.19320  Biso   1.000  C
  C270     1.0000 0.87880  0.37290  0.82900  Biso   1.000  C
  C271     1.0000 0.87630  0.09730  0.15880  Biso   1.000  C
  H151     1.0000 0.90830  0.10910  0.17950  Biso   1.000  H
  C272     1.0000 0.87950  0.91950  0.31940  Biso   1.000  C
  H152     1.0000 0.91190  0.90940  0.35920  Biso   1.000  H
  C273     1.0000 0.88170  0.61490  0.61870  Biso   1.000  C
  C274     1.0000 0.84400  0.58350  0.61030  Biso   1.000  C
  H153     1.0000 0.81190  0.59440  0.56960  Biso   1.000  H
  C275     1.0000 0.85210  0.45310  0.73320  Biso   1.000  C
  C276     1.0000 0.84210  0.88600  0.31140  Biso   1.000  C
  C277     1.0000 0.83800  0.12770  0.09360  Biso   1.000  C
  C278     1.0000 0.84170  0.40430  0.76500  Biso   1.000  C
  H154     1.0000 0.80940  0.39300  0.74260  Biso   1.000  H
  C279     1.0000 0.81970  0.03370  0.16450  Biso   1.000  C
  C280     1.0000 0.89970  0.46780  0.76380  Biso   1.000  C
  C281     1.0000 0.92830  0.60020  0.67920  Biso   1.000  C
  H155     1.0000 0.95400  0.62320  0.68600  Biso   1.000  H
  C282     1.0000 0.79480  0.90130  0.25380  Biso   1.000  C
  H156     1.0000 0.76960  0.87770  0.24780  Biso   1.000  H
  C283     1.0000 0.85320  0.53560  0.66190  Biso   1.000  C
  C284     1.0000 0.65890  0.24100  0.80820  Biso   1.000  C
  H157     1.0000 0.64050  0.21810  0.82310  Biso   1.000  H
  C285     1.0000 0.90000  0.52000  0.72070  Biso   1.000  C
  C286     1.0000 0.86870  0.96790  0.26830  Biso   1.000  C
  C287     1.0000 0.92630  0.38740  0.85840  Biso   1.000  C
  H158     1.0000 0.95160  0.36480  0.90160  Biso   1.000  H
  C288     1.0000 0.82040  0.98220  0.20960  Biso   1.000  C
  C289     1.0000 0.93790  0.55240  0.72980  Biso   1.000  C
  H159     1.0000 0.97010  0.54180  0.77030  Biso   1.000  H
  C290     1.0000 0.78380  0.95090  0.20490  Biso   1.000  C
  H160     1.0000 0.75140  0.96290  0.16890  Biso   1.000  H
  C291     1.0000 0.79070  0.11350  0.06750  Biso   1.000  C
  H161     1.0000 0.76480  0.13650  0.02660  Biso   1.000  H
  C292     1.0000 0.93720  0.43440  0.82520  Biso   1.000  C
  H162     1.0000 0.96950  0.44360  0.84420  Biso   1.000  H
  C293     1.0000 0.50870  0.29760  0.55660  Biso   1.000  C
  C294     1.0000 0.66470  0.30900  0.72100  Biso   1.000  C
  H163     1.0000 0.65030  0.33430  0.67360  Biso   1.000  H
  C295     1.0000 0.78170  0.06570  0.10180  Biso   1.000  C
  C296     1.0000 0.55540  0.26770  0.71670  Biso   1.000  C
  H164     1.0000 0.57010  0.26200  0.77620  Biso   1.000  H
  C297     1.0000 0.50660  0.26610  0.66570  Biso   1.000  C
  H165     1.0000 0.48850  0.25990  0.69140  Biso   1.000  H
  C298     1.0000 0.55700  0.31820  0.63420  Biso   1.000  C
  H166     1.0000 0.56680  0.35730  0.64360  Biso   1.000  H
  C299     1.0000 0.55840  0.22600  0.68300  Biso   1.000  C
  H167     1.0000 0.57520  0.19270  0.71460  Biso   1.000  H
  C300     1.0000 0.51010  0.22740  0.63500  Biso   1.000  C
  C301     1.0000 0.55740  0.29310  0.59550  Biso   1.000  C
  H168     1.0000 0.57350  0.30000  0.56640  Biso   1.000  H
  Zn15     1.0000 0.41125  0.73656  0.01086  Biso   1.000  Zn
  Zn16     1.0000 0.30822  0.76310  0.91254  Biso   1.000  Zn
  O57      1.0000 0.40790  0.19580  0.57790  Biso   1.000  O
  O58      1.0000 0.31840  0.30390  0.35260  Biso   1.000  O
  O59      1.0000 0.32600  0.81810  0.84970  Biso   1.000  O
  O60      1.0000 0.38900  0.68550  0.07250  Biso   1.000  O
  O61      1.0000 0.33010  0.17550  0.50480  Biso   1.000  O
  O62      1.0000 0.31070  0.70390  0.99490  Biso   1.000  O
  O63      1.0000 0.40340  0.79520  0.92360  Biso   1.000  O
  O64      1.0000 0.39600  0.32720  0.42680  Biso   1.000  O
  N15      1.0000 0.23580  0.77100  0.84000  Biso   1.000  N
  N16      1.0000 0.98370  0.77260  0.58420  Biso   1.000  N
  C302     1.0000 0.20850  0.73860  0.85710  Biso   1.000  C
  H169     1.0000 0.22360  0.71320  0.90430  Biso   1.000  H
  C303     1.0000 0.08290  0.77700  0.68530  Biso   1.000  C
  C304     1.0000 0.37260  0.16580  0.56300  Biso   1.000  C
  C305     1.0000 0.13630  0.77610  0.73890  Biso   1.000  C
  C306     1.0000 0.34660  0.67610  0.05090  Biso   1.000  C
  C307     1.0000 0.40180  0.51040  0.26440  Biso   1.000  C
  H170     1.0000 0.42080  0.53160  0.31870  Biso   1.000  H
  H171     1.0000 0.42390  0.49110  0.25120  Biso   1.000  H
  C308     1.0000 0.35200  0.33480  0.36620  Biso   1.000  C
  C309     1.0000 0.21400  0.80530  0.77210  Biso   1.000  C
  H172     1.0000 0.23300  0.82790  0.75840  Biso   1.000  H
  C310     1.0000 0.31920  0.99490  0.66530  Biso   1.000  C
  H173     1.0000 0.29850  0.01500  0.68090  Biso   1.000  H
  H174     1.0000 0.29880  0.97520  0.61010  Biso   1.000  H
  C311     1.0000 0.36910  0.82440  0.87060  Biso   1.000  C
  C312     1.0000 0.36760  0.54980  0.19320  Biso   1.000  C
  C313     1.0000 0.37880  0.87290  0.82900  Biso   1.000  C
  C314     1.0000 0.37630  0.59730  0.15880  Biso   1.000  C
  H175     1.0000 0.40830  0.60910  0.17950  Biso   1.000  H
  C315     1.0000 0.37950  0.41950  0.31940  Biso   1.000  C
  H176     1.0000 0.41190  0.40940  0.35920  Biso   1.000  H
  C316     1.0000 0.38170  0.11490  0.61870  Biso   1.000  C
  C317     1.0000 0.34400  0.08350  0.61030  Biso   1.000  C
  H177     1.0000 0.31190  0.09440  0.56960  Biso   1.000  H
  C318     1.0000 0.35210  0.95310  0.73320  Biso   1.000  C
  C319     1.0000 0.34210  0.38600  0.31140  Biso   1.000  C
  C320     1.0000 0.33800  0.62770  0.09360  Biso   1.000  C
  C321     1.0000 0.34170  0.90430  0.76500  Biso   1.000  C
  H178     1.0000 0.30940  0.89300  0.74260  Biso   1.000  H
  C322     1.0000 0.31970  0.53370  0.16450  Biso   1.000  C
  C323     1.0000 0.39970  0.96780  0.76380  Biso   1.000  C
  C324     1.0000 0.42830  0.10020  0.67920  Biso   1.000  C
  H179     1.0000 0.45400  0.12320  0.68600  Biso   1.000  H
  C325     1.0000 0.29480  0.40130  0.25380  Biso   1.000  C
  H180     1.0000 0.26960  0.37770  0.24780  Biso   1.000  H
  C326     1.0000 0.35320  0.03560  0.66190  Biso   1.000  C
  C327     1.0000 0.15890  0.74100  0.80820  Biso   1.000  C
  H181     1.0000 0.14050  0.71810  0.82310  Biso   1.000  H
  C328     1.0000 0.40000  0.02000  0.72070  Biso   1.000  C
  C329     1.0000 0.36870  0.46790  0.26830  Biso   1.000  C
  C330     1.0000 0.42630  0.88740  0.85840  Biso   1.000  C
  H182     1.0000 0.45160  0.86480  0.90160  Biso   1.000  H
  C331     1.0000 0.32040  0.48220  0.20960  Biso   1.000  C
  C332     1.0000 0.43790  0.05240  0.72980  Biso   1.000  C
  H183     1.0000 0.47010  0.04180  0.77030  Biso   1.000  H
  C333     1.0000 0.28380  0.45090  0.20490  Biso   1.000  C
  H184     1.0000 0.25140  0.46290  0.16890  Biso   1.000  H
  C334     1.0000 0.29070  0.61350  0.06750  Biso   1.000  C
  H185     1.0000 0.26480  0.63650  0.02660  Biso   1.000  H
  C335     1.0000 0.43720  0.93440  0.82520  Biso   1.000  C
  H186     1.0000 0.46950  0.94360  0.84420  Biso   1.000  H
  C336     1.0000 0.00870  0.79760  0.55660  Biso   1.000  C
  C337     1.0000 0.16470  0.80900  0.72100  Biso   1.000  C
  H187     1.0000 0.15030  0.83430  0.67360  Biso   1.000  H
  C338     1.0000 0.28170  0.56570  0.10180  Biso   1.000  C
  C339     1.0000 0.05540  0.76770  0.71670  Biso   1.000  C
  H188     1.0000 0.07010  0.76200  0.77620  Biso   1.000  H
  C340     1.0000 0.00660  0.76610  0.66570  Biso   1.000  C
  H189     1.0000 0.98850  0.75990  0.69140  Biso   1.000  H
  C341     1.0000 0.05700  0.81820  0.63420  Biso   1.000  C
  H190     1.0000 0.06680  0.85730  0.64360  Biso   1.000  H
  C342     1.0000 0.05840  0.72600  0.68300  Biso   1.000  C
  H191     1.0000 0.07520  0.69270  0.71460  Biso   1.000  H
  C343     1.0000 0.01010  0.72740  0.63500  Biso   1.000  C
  C344     1.0000 0.05740  0.79310  0.59550  Biso   1.000  C
  H192     1.0000 0.07350  0.80000  0.56640  Biso   1.000  H
