data_image0
_cell_length_a       9.6217
_cell_length_b       28.6285
_cell_length_c       10.4801
_cell_angle_alpha    90
_cell_angle_beta     111.376
_cell_angle_gamma    90

_symmetry_space_group_name_H-M    "P 1"
_symmetry_int_tables_number       1

loop_
  _symmetry_equiv_pos_as_xyz
  'x, y, z'

loop_
  _atom_site_label
  _atom_site_occupancy
  _atom_site_fract_x
  _atom_site_fract_y
  _atom_site_fract_z
  _atom_site_thermal_displace_type
  _atom_site_B_iso_or_equiv
  _atom_site_type_symbol
  Zn1      1.0000 0.58331  0.53974  0.89008  Biso   1.000  Zn
  N1       1.0000 0.76230  0.53558  0.08360  Biso   1.000  N
  N2       1.0000 0.39760  0.54047  0.69950  Biso   1.000  N
  C1       1.0000 0.76740  0.56226  0.18930  Biso   1.000  C
  H1       1.0000 0.68360  0.58140  0.18030  Biso   1.000  H
  C2       1.0000 0.88750  0.56351  0.31070  Biso   1.000  C
  H2       1.0000 0.88520  0.58310  0.38310  Biso   1.000  H
  C3       1.0000 0.01310  0.53612  0.32800  Biso   1.000  C
  C4       1.0000 0.00600  0.50792  0.21800  Biso   1.000  C
  H3       1.0000 0.08700  0.48790  0.22450  Biso   1.000  H
  C5       1.0000 0.88150  0.50898  0.09950  Biso   1.000  C
  H4       1.0000 0.88020  0.48980  0.02510  Biso   1.000  H
  C6       1.0000 0.14740  0.53760  0.45590  Biso   1.000  C
  C7       1.0000 0.16290  0.57040  0.55570  Biso   1.000  C
  H5       1.0000 0.08730  0.59330  0.54260  Biso   1.000  H
  C8       1.0000 0.28680  0.57047  0.67450  Biso   1.000  C
  H6       1.0000 0.29290  0.59330  0.74220  Biso   1.000  H
  C9       1.0000 0.38430  0.50933  0.60270  Biso   1.000  C
  H7       1.0000 0.46260  0.48730  0.61810  Biso   1.000  H
  C10      1.0000 0.26410  0.50679  0.48080  Biso   1.000  C
  H8       1.0000 0.26170  0.48390  0.41440  Biso   1.000  H
  O1       1.0000 0.80810  0.22318  0.87350  Biso   1.000  O
  O2       1.0000 0.36040  0.11666  0.61800  Biso   1.000  O
  O3       1.0000 0.26510  0.06332  0.71040  Biso   1.000  O
  O4       1.0000 0.56210  0.43703  0.02320  Biso   1.000  O
  O5       1.0000 0.61630  0.47130  0.85580  Biso   1.000  O
  C11      1.0000 0.27610  0.10520  0.68070  Biso   1.000  C
  C12      1.0000 0.19080  0.14215  0.72050  Biso   1.000  C
  C13      1.0000 0.21750  0.18851  0.70710  Biso   1.000  C
  H9       1.0000 0.29100  0.19730  0.67090  Biso   1.000  H
  C14      1.0000 0.13930  0.22260  0.74550  Biso   1.000  C
  H10      1.0000 0.15880  0.25450  0.73470  Biso   1.000  H
  C15      1.0000 0.03220  0.21070  0.79980  Biso   1.000  C
  C16      1.0000 0.00140  0.16480  0.80630  Biso   1.000  C
  H11      1.0000 0.92400  0.15590  0.83750  Biso   1.000  H
  C17      1.0000 0.07990  0.13080  0.76850  Biso   1.000  C
  H12      1.0000 0.05700  0.09890  0.77580  Biso   1.000  H
  C18      1.0000 0.84630  0.31440  0.88420  Biso   1.000  C
  C19      1.0000 0.86830  0.35580  0.83350  Biso   1.000  C
  H13      1.0000 0.93650  0.35780  0.78710  Biso   1.000  H
  C20      1.0000 0.79390  0.39520  0.84770  Biso   1.000  C
  H14      1.0000 0.80940  0.42390  0.80900  Biso   1.000  H
  C21      1.0000 0.69700  0.39387  0.91750  Biso   1.000  C
  C22      1.0000 0.67740  0.35212  0.97340  Biso   1.000  C
  H15      1.0000 0.61310  0.35050  0.02380  Biso   1.000  H
  C23      1.0000 0.75090  0.31245  0.95650  Biso   1.000  C
  H16      1.0000 0.73600  0.28360  0.99460  Biso   1.000  H
  C24      1.0000 0.61860  0.43747  0.93320  Biso   1.000  C
  C25      1.0000 0.91500  0.23680  0.84100  Biso   1.000  C
  N3       1.0000 0.95470  0.28370  0.85790  Biso   1.000  N
  N4       1.0000 0.99250  0.25880  0.83800  Biso   1.000  N
  C26      1.0000 0.87530  0.25860  0.87000  Biso   1.000  C
  Zn2      1.0000 0.41669  0.46026  0.10992  Biso   1.000  Zn
  N5       1.0000 0.23770  0.46442  0.91640  Biso   1.000  N
  N6       1.0000 0.60240  0.45953  0.30050  Biso   1.000  N
  C27      1.0000 0.23260  0.43774  0.81070  Biso   1.000  C
  H17      1.0000 0.31640  0.41860  0.81970  Biso   1.000  H
  C28      1.0000 0.11250  0.43649  0.68930  Biso   1.000  C
  H18      1.0000 0.11480  0.41690  0.61690  Biso   1.000  H
  C29      1.0000 0.98690  0.46388  0.67200  Biso   1.000  C
  C30      1.0000 0.99400  0.49208  0.78200  Biso   1.000  C
  H19      1.0000 0.91300  0.51210  0.77550  Biso   1.000  H
  C31      1.0000 0.11850  0.49102  0.90050  Biso   1.000  C
  H20      1.0000 0.11980  0.51020  0.97490  Biso   1.000  H
  C32      1.0000 0.85260  0.46240  0.54410  Biso   1.000  C
  C33      1.0000 0.83710  0.42960  0.44430  Biso   1.000  C
  H21      1.0000 0.91270  0.40670  0.45740  Biso   1.000  H
  C34      1.0000 0.71320  0.42953  0.32550  Biso   1.000  C
  H22      1.0000 0.70710  0.40670  0.25780  Biso   1.000  H
  C35      1.0000 0.61570  0.49067  0.39730  Biso   1.000  C
  H23      1.0000 0.53740  0.51270  0.38190  Biso   1.000  H
  C36      1.0000 0.73590  0.49321  0.51920  Biso   1.000  C
  H24      1.0000 0.73830  0.51610  0.58560  Biso   1.000  H
  O6       1.0000 0.19190  0.77682  0.12650  Biso   1.000  O
  O7       1.0000 0.63960  0.88334  0.38200  Biso   1.000  O
  O8       1.0000 0.73490  0.93668  0.28960  Biso   1.000  O
  O9       1.0000 0.43790  0.56297  0.97680  Biso   1.000  O
  O10      1.0000 0.38370  0.52870  0.14420  Biso   1.000  O
  C37      1.0000 0.72390  0.89480  0.31930  Biso   1.000  C
  C38      1.0000 0.80920  0.85785  0.27950  Biso   1.000  C
  C39      1.0000 0.78250  0.81149  0.29290  Biso   1.000  C
  H25      1.0000 0.70900  0.80270  0.32910  Biso   1.000  H
  C40      1.0000 0.86070  0.77740  0.25450  Biso   1.000  C
  H26      1.0000 0.84120  0.74550  0.26530  Biso   1.000  H
  C41      1.0000 0.96780  0.78930  0.20020  Biso   1.000  C
  C42      1.0000 0.99860  0.83520  0.19370  Biso   1.000  C
  H27      1.0000 0.07600  0.84410  0.16250  Biso   1.000  H
  C43      1.0000 0.92010  0.86920  0.23150  Biso   1.000  C
  H28      1.0000 0.94300  0.90110  0.22420  Biso   1.000  H
  C44      1.0000 0.15370  0.68560  0.11580  Biso   1.000  C
  C45      1.0000 0.13170  0.64420  0.16650  Biso   1.000  C
  H29      1.0000 0.06350  0.64220  0.21290  Biso   1.000  H
  C46      1.0000 0.20610  0.60480  0.15230  Biso   1.000  C
  H30      1.0000 0.19060  0.57610  0.19100  Biso   1.000  H
  C47      1.0000 0.30300  0.60613  0.08250  Biso   1.000  C
  C48      1.0000 0.32260  0.64788  0.02660  Biso   1.000  C
  H31      1.0000 0.38690  0.64950  0.97620  Biso   1.000  H
  C49      1.0000 0.24910  0.68755  0.04350  Biso   1.000  C
  H32      1.0000 0.26400  0.71640  0.00540  Biso   1.000  H
  C50      1.0000 0.38140  0.56253  0.06680  Biso   1.000  C
  C51      1.0000 0.08500  0.76320  0.15900  Biso   1.000  C
  N7       1.0000 0.04530  0.71630  0.14210  Biso   1.000  N
  N8       1.0000 0.00750  0.74120  0.16200  Biso   1.000  N
  C52      1.0000 0.12470  0.74140  0.13000  Biso   1.000  C
  O11      1.0000 0.19190  0.72318  0.62650  Biso   1.000  O
  O12      1.0000 0.63960  0.61666  0.88200  Biso   1.000  O
  O13      1.0000 0.73490  0.56332  0.78960  Biso   1.000  O
  O14      1.0000 0.43790  0.93703  0.47680  Biso   1.000  O
  O15      1.0000 0.38370  0.97130  0.64420  Biso   1.000  O
  C53      1.0000 0.72390  0.60520  0.81930  Biso   1.000  C
  C54      1.0000 0.80920  0.64215  0.77950  Biso   1.000  C
  C55      1.0000 0.78250  0.68851  0.79290  Biso   1.000  C
  H33      1.0000 0.70900  0.69730  0.82910  Biso   1.000  H
  C56      1.0000 0.86070  0.72260  0.75450  Biso   1.000  C
  H34      1.0000 0.84120  0.75450  0.76530  Biso   1.000  H
  C57      1.0000 0.96780  0.71070  0.70020  Biso   1.000  C
  C58      1.0000 0.99860  0.66480  0.69370  Biso   1.000  C
  H35      1.0000 0.07600  0.65590  0.66250  Biso   1.000  H
  C59      1.0000 0.92010  0.63080  0.73150  Biso   1.000  C
  H36      1.0000 0.94300  0.59890  0.72420  Biso   1.000  H
  C60      1.0000 0.15370  0.81440  0.61580  Biso   1.000  C
  C61      1.0000 0.13170  0.85580  0.66650  Biso   1.000  C
  H37      1.0000 0.06350  0.85780  0.71290  Biso   1.000  H
  C62      1.0000 0.20610  0.89520  0.65230  Biso   1.000  C
  H38      1.0000 0.19060  0.92390  0.69100  Biso   1.000  H
  C63      1.0000 0.30300  0.89387  0.58250  Biso   1.000  C
  C64      1.0000 0.32260  0.85212  0.52660  Biso   1.000  C
  H39      1.0000 0.38690  0.85050  0.47620  Biso   1.000  H
  C65      1.0000 0.24910  0.81245  0.54350  Biso   1.000  C
  H40      1.0000 0.26400  0.78360  0.50540  Biso   1.000  H
  C66      1.0000 0.38140  0.93747  0.56680  Biso   1.000  C
  C67      1.0000 0.08500  0.73680  0.65900  Biso   1.000  C
  N9       1.0000 0.04530  0.78370  0.64210  Biso   1.000  N
  N10      1.0000 0.00750  0.75880  0.66200  Biso   1.000  N
  C68      1.0000 0.12470  0.75860  0.63000  Biso   1.000  C
  Zn3      1.0000 0.41669  0.03974  0.60992  Biso   1.000  Zn
  N11      1.0000 0.23770  0.03558  0.41640  Biso   1.000  N
  N12      1.0000 0.60240  0.04047  0.80050  Biso   1.000  N
  C69      1.0000 0.23260  0.06226  0.31070  Biso   1.000  C
  H41      1.0000 0.31640  0.08140  0.31970  Biso   1.000  H
  C70      1.0000 0.11250  0.06351  0.18930  Biso   1.000  C
  H42      1.0000 0.11480  0.08310  0.11690  Biso   1.000  H
  C71      1.0000 0.98690  0.03612  0.17200  Biso   1.000  C
  C72      1.0000 0.99400  0.00792  0.28200  Biso   1.000  C
  H43      1.0000 0.91300  0.98790  0.27550  Biso   1.000  H
  C73      1.0000 0.11850  0.00898  0.40050  Biso   1.000  C
  H44      1.0000 0.11980  0.98980  0.47490  Biso   1.000  H
  C74      1.0000 0.85260  0.03760  0.04410  Biso   1.000  C
  C75      1.0000 0.83710  0.07040  0.94430  Biso   1.000  C
  H45      1.0000 0.91270  0.09330  0.95740  Biso   1.000  H
  C76      1.0000 0.71320  0.07047  0.82550  Biso   1.000  C
  H46      1.0000 0.70710  0.09330  0.75780  Biso   1.000  H
  C77      1.0000 0.61570  0.00933  0.89730  Biso   1.000  C
  H47      1.0000 0.53740  0.98730  0.88190  Biso   1.000  H
  C78      1.0000 0.73590  0.00679  0.01920  Biso   1.000  C
  H48      1.0000 0.73830  0.98390  0.08560  Biso   1.000  H
  O16      1.0000 0.80810  0.27682  0.37350  Biso   1.000  O
  O17      1.0000 0.36040  0.38334  0.11800  Biso   1.000  O
  O18      1.0000 0.26510  0.43668  0.21040  Biso   1.000  O
  O19      1.0000 0.56210  0.06297  0.52320  Biso   1.000  O
  O20      1.0000 0.61630  0.02870  0.35580  Biso   1.000  O
  C79      1.0000 0.27610  0.39480  0.18070  Biso   1.000  C
  C80      1.0000 0.19080  0.35785  0.22050  Biso   1.000  C
  C81      1.0000 0.21750  0.31149  0.20710  Biso   1.000  C
  H49      1.0000 0.29100  0.30270  0.17090  Biso   1.000  H
  C82      1.0000 0.13930  0.27740  0.24550  Biso   1.000  C
  H50      1.0000 0.15880  0.24550  0.23470  Biso   1.000  H
  C83      1.0000 0.03220  0.28930  0.29980  Biso   1.000  C
  C84      1.0000 0.00140  0.33520  0.30630  Biso   1.000  C
  H51      1.0000 0.92400  0.34410  0.33750  Biso   1.000  H
  C85      1.0000 0.07990  0.36920  0.26850  Biso   1.000  C
  H52      1.0000 0.05700  0.40110  0.27580  Biso   1.000  H
  C86      1.0000 0.84630  0.18560  0.38420  Biso   1.000  C
  C87      1.0000 0.86830  0.14420  0.33350  Biso   1.000  C
  H53      1.0000 0.93650  0.14220  0.28710  Biso   1.000  H
  C88      1.0000 0.79390  0.10480  0.34770  Biso   1.000  C
  H54      1.0000 0.80940  0.07610  0.30900  Biso   1.000  H
  C89      1.0000 0.69700  0.10613  0.41750  Biso   1.000  C
  C90      1.0000 0.67740  0.14788  0.47340  Biso   1.000  C
  H55      1.0000 0.61310  0.14950  0.52380  Biso   1.000  H
  C91      1.0000 0.75090  0.18755  0.45650  Biso   1.000  C
  H56      1.0000 0.73600  0.21640  0.49460  Biso   1.000  H
  C92      1.0000 0.61860  0.06253  0.43320  Biso   1.000  C
  C93      1.0000 0.91500  0.26320  0.34100  Biso   1.000  C
  N13      1.0000 0.95470  0.21630  0.35790  Biso   1.000  N
  N14      1.0000 0.99250  0.24120  0.33800  Biso   1.000  N
  C94      1.0000 0.87530  0.24140  0.37000  Biso   1.000  C
  Zn4      1.0000 0.58331  0.96026  0.39008  Biso   1.000  Zn
  N15      1.0000 0.76230  0.96442  0.58360  Biso   1.000  N
  N16      1.0000 0.39760  0.95953  0.19950  Biso   1.000  N
  C95      1.0000 0.76740  0.93774  0.68930  Biso   1.000  C
  H57      1.0000 0.68360  0.91860  0.68030  Biso   1.000  H
  C96      1.0000 0.88750  0.93649  0.81070  Biso   1.000  C
  H58      1.0000 0.88520  0.91690  0.88310  Biso   1.000  H
  C97      1.0000 0.01310  0.96388  0.82800  Biso   1.000  C
  C98      1.0000 0.00600  0.99208  0.71800  Biso   1.000  C
  H59      1.0000 0.08700  0.01210  0.72450  Biso   1.000  H
  C99      1.0000 0.88150  0.99102  0.59950  Biso   1.000  C
  H60      1.0000 0.88020  0.01020  0.52510  Biso   1.000  H
  C100     1.0000 0.14740  0.96240  0.95590  Biso   1.000  C
  C101     1.0000 0.16290  0.92960  0.05570  Biso   1.000  C
  H61      1.0000 0.08730  0.90670  0.04260  Biso   1.000  H
  C102     1.0000 0.28680  0.92953  0.17450  Biso   1.000  C
  H62      1.0000 0.29290  0.90670  0.24220  Biso   1.000  H
  C103     1.0000 0.38430  0.99067  0.10270  Biso   1.000  C
  H63      1.0000 0.46260  0.01270  0.11810  Biso   1.000  H
  C104     1.0000 0.26410  0.99321  0.98080  Biso   1.000  C
  H64      1.0000 0.26170  0.01610  0.91440  Biso   1.000  H
