data_image0
_cell_length_a       12.3582
_cell_length_b       33.9509
_cell_length_c       12.9507
_cell_angle_alpha    90
_cell_angle_beta     99.89
_cell_angle_gamma    90

_symmetry_space_group_name_H-M    "P 1"
_symmetry_int_tables_number       1

loop_
  _symmetry_equiv_pos_as_xyz
  'x, y, z'

loop_
  _atom_site_label
  _atom_site_occupancy
  _atom_site_fract_x
  _atom_site_fract_y
  _atom_site_fract_z
  _atom_site_thermal_displace_type
  _atom_site_B_iso_or_equiv
  _atom_site_type_symbol
  Mn1      1.0000 0.20143  0.06808  0.10695  Biso   1.000  Mn
  C1       1.0000 0.30170  0.14440  0.24760  Biso   1.000  C
  H1       1.0000 0.32830  0.16860  0.28660  Biso   1.000  H
  H2       1.0000 0.23900  0.15180  0.19280  Biso   1.000  H
  N1       1.0000 0.38820  0.12882  0.19820  Biso   1.000  N
  N2       1.0000 0.36240  0.09860  0.13060  Biso   1.000  N
  C2       1.0000 0.45730  0.08760  0.10330  Biso   1.000  C
  C3       1.0000 0.54270  0.11200  0.15300  Biso   1.000  C
  C4       1.0000 0.49740  0.13730  0.21450  Biso   1.000  C
  C5       1.0000 0.45650  0.05380  0.02770  Biso   1.000  C
  H3       1.0000 0.45170  0.02890  0.06480  Biso   1.000  H
  H4       1.0000 0.52420  0.05420  0.99790  Biso   1.000  H
  H5       1.0000 0.39300  0.05630  0.97120  Biso   1.000  H
  C6       1.0000 0.55050  0.16840  0.28920  Biso   1.000  C
  H6       1.0000 0.62950  0.16920  0.28800  Biso   1.000  H
  H7       1.0000 0.53840  0.16230  0.36030  Biso   1.000  H
  H8       1.0000 0.51800  0.19410  0.26800  Biso   1.000  H
  C7       1.0000 0.66030  0.10750  0.14210  Biso   1.000  C
  C8       1.0000 0.71000  0.07030  0.14980  Biso   1.000  C
  H9       1.0000 0.66890  0.04800  0.16490  Biso   1.000  H
  C9       1.0000 0.81520  0.06550  0.13620  Biso   1.000  C
  H10      1.0000 0.84640  0.03980  0.14180  Biso   1.000  H
  C10      1.0000 0.87830  0.09680  0.11450  Biso   1.000  C
  C11      1.0000 0.82850  0.13480  0.10630  Biso   1.000  C
  H11      1.0000 0.86880  0.15710  0.09010  Biso   1.000  H
  C12      1.0000 0.72440  0.13900  0.12150  Biso   1.000  C
  H12      1.0000 0.69340  0.16470  0.11790  Biso   1.000  H
  C13      1.0000 0.99300  0.09050  0.10120  Biso   1.000  C
  O1       1.0000 0.02720  0.05505  0.09640  Biso   1.000  O
  O2       1.0000 0.05800  0.11958  0.09990  Biso   1.000  O
  N3       1.0000 0.26410  0.11713  0.31850  Biso   1.000  N
  N4       1.0000 0.21160  0.08395  0.28050  Biso   1.000  N
  C14      1.0000 0.18290  0.06520  0.36130  Biso   1.000  C
  C15      1.0000 0.21350  0.08720  0.45320  Biso   1.000  C
  C16      1.0000 0.26960  0.12010  0.42360  Biso   1.000  C
  C17      1.0000 0.12440  0.02700  0.34740  Biso   1.000  C
  H13      1.0000 0.10250  0.02150  0.27250  Biso   1.000  H
  H14      1.0000 0.05890  0.02820  0.38060  Biso   1.000  H
  H15      1.0000 0.17310  0.00600  0.38000  Biso   1.000  H
  C18      1.0000 0.32700  0.15370  0.48620  Biso   1.000  C
  H16      1.0000 0.32140  0.15040  0.56020  Biso   1.000  H
  H17      1.0000 0.29250  0.17860  0.46030  Biso   1.000  H
  H18      1.0000 0.40460  0.15400  0.47860  Biso   1.000  H
  C19      1.0000 0.19750  0.07700  0.56140  Biso   1.000  C
  C20      1.0000 0.20050  0.03950  0.59790  Biso   1.000  C
  H19      1.0000 0.21450  0.01840  0.55390  Biso   1.000  H
  C21      1.0000 0.18270  0.03140  0.70250  Biso   1.000  C
  H20      1.0000 0.18380  0.00500  0.72710  Biso   1.000  H
  C22      1.0000 0.16410  0.06180  0.76690  Biso   1.000  C
  C23      1.0000 0.16320  0.09940  0.73030  Biso   1.000  C
  H21      1.0000 0.15370  0.12050  0.77610  Biso   1.000  H
  C24      1.0000 0.17570  0.10780  0.62830  Biso   1.000  C
  H22      1.0000 0.16970  0.13420  0.60350  Biso   1.000  H
  C25      1.0000 0.15080  0.05360  0.87630  Biso   1.000  C
  O3       1.0000 0.10540  0.02191  0.89520  Biso   1.000  O
  O4       1.0000 0.18620  0.07925  0.94370  Biso   1.000  O
  N5       1.0000 0.56050  0.78447  0.30510  Biso   1.000  N
  N6       1.0000 0.62290  0.79258  0.23060  Biso   1.000  N
  C26      1.0000 0.58330  0.82760  0.18510  Biso   1.000  C
  C27      1.0000 0.49830  0.84100  0.23560  Biso   1.000  C
  C28      1.0000 0.48480  0.81320  0.30920  Biso   1.000  C
  C29      1.0000 0.62480  0.84620  0.09300  Biso   1.000  C
  H23      1.0000 0.68320  0.86510  0.11880  Biso   1.000  H
  H24      1.0000 0.56430  0.85980  0.04840  Biso   1.000  H
  H25      1.0000 0.65400  0.82560  0.05230  Biso   1.000  H
  C30      1.0000 0.40790  0.81090  0.38750  Biso   1.000  C
  H26      1.0000 0.35330  0.79020  0.36640  Biso   1.000  H
  H27      1.0000 0.37060  0.83620  0.39020  Biso   1.000  H
  H28      1.0000 0.44990  0.80470  0.45690  Biso   1.000  H
  C31      1.0000 0.43220  0.87660  0.21030  Biso   1.000  C
  C32      1.0000 0.32070  0.87440  0.17800  Biso   1.000  C
  H29      1.0000 0.28660  0.84930  0.17650  Biso   1.000  H
  C33      1.0000 0.25660  0.90630  0.14800  Biso   1.000  C
  H30      1.0000 0.18190  0.90290  0.11660  Biso   1.000  H
  C34      1.0000 0.30080  0.94360  0.16350  Biso   1.000  C
  C35      1.0000 0.41540  0.94710  0.20080  Biso   1.000  C
  H31      1.0000 0.44810  0.97250  0.20980  Biso   1.000  H
  C36      1.0000 0.47970  0.91410  0.22430  Biso   1.000  C
  H32      1.0000 0.55610  0.91680  0.24990  Biso   1.000  H
  C37      1.0000 0.23290  0.97830  0.13230  Biso   1.000  C
  O5       1.0000 0.27540  0.01333  0.13980  Biso   1.000  O
  O6       1.0000 0.13030  0.97305  0.10080  Biso   1.000  O
  C38      1.0000 0.83000  0.79000  0.15670  Biso   1.000  C
  C39      1.0000 0.90560  0.80670  0.15250  Biso   1.000  C
  C40      1.0000 0.99540  0.83240  0.11530  Biso   1.000  C
  H33      1.0000 0.96330  0.85750  0.08840  Biso   1.000  H
  H34      1.0000 0.02470  0.81850  0.05970  Biso   1.000  H
  H35      1.0000 0.05480  0.83730  0.17440  Biso   1.000  H
  O7       1.0000 0.84510  0.78320  0.38110  Biso   1.000  O
  C41      1.0000 0.84510  0.71000  0.39660  Biso   1.000  C
  H36      1.0000 0.76930  0.70180  0.39790  Biso   1.000  H
  H37      1.0000 0.87950  0.71860  0.46680  Biso   1.000  H
  H38      1.0000 0.88630  0.68780  0.37460  Biso   1.000  H
  H39      1.0000 0.35760  0.17170  0.43920  Biso   1.000  H
  H40      1.0000 0.38650  0.14340  0.53910  Biso   1.000  H
  H41      1.0000 0.27440  0.16800  0.52080  Biso   1.000  H
  H42      1.0000 0.77150  0.72490  0.96020  Biso   1.000  H
  H43      1.0000 0.78500  0.77170  0.97130  Biso   1.000  H
  H44      1.0000 0.68590  0.75340  0.88940  Biso   1.000  H
  N7       1.0000 0.83000  0.71000  0.15670  Biso   1.000  N
  Mn2      1.0000 0.79857  0.56808  0.89305  Biso   1.000  Mn
  C42      1.0000 0.69830  0.64440  0.75240  Biso   1.000  C
  H45      1.0000 0.67170  0.66860  0.71340  Biso   1.000  H
  H46      1.0000 0.76100  0.65180  0.80720  Biso   1.000  H
  N8       1.0000 0.61180  0.62882  0.80180  Biso   1.000  N
  N9       1.0000 0.63760  0.59860  0.86940  Biso   1.000  N
  C43      1.0000 0.54270  0.58760  0.89670  Biso   1.000  C
  C44      1.0000 0.45730  0.61200  0.84700  Biso   1.000  C
  C45      1.0000 0.50260  0.63730  0.78550  Biso   1.000  C
  C46      1.0000 0.54350  0.55380  0.97230  Biso   1.000  C
  H47      1.0000 0.54830  0.52890  0.93520  Biso   1.000  H
  H48      1.0000 0.47580  0.55420  0.00210  Biso   1.000  H
  H49      1.0000 0.60700  0.55630  0.02880  Biso   1.000  H
  C47      1.0000 0.44950  0.66840  0.71080  Biso   1.000  C
  H50      1.0000 0.37050  0.66920  0.71200  Biso   1.000  H
  H51      1.0000 0.46160  0.66230  0.63970  Biso   1.000  H
  H52      1.0000 0.48200  0.69410  0.73200  Biso   1.000  H
  C48      1.0000 0.33970  0.60750  0.85790  Biso   1.000  C
  C49      1.0000 0.29000  0.57030  0.85020  Biso   1.000  C
  H53      1.0000 0.33110  0.54800  0.83510  Biso   1.000  H
  C50      1.0000 0.18480  0.56550  0.86380  Biso   1.000  C
  H54      1.0000 0.15360  0.53980  0.85820  Biso   1.000  H
  C51      1.0000 0.12170  0.59680  0.88550  Biso   1.000  C
  C52      1.0000 0.17150  0.63480  0.89370  Biso   1.000  C
  H55      1.0000 0.13120  0.65710  0.90990  Biso   1.000  H
  C53      1.0000 0.27560  0.63900  0.87850  Biso   1.000  C
  H56      1.0000 0.30660  0.66470  0.88210  Biso   1.000  H
  C54      1.0000 0.00700  0.59050  0.89880  Biso   1.000  C
  O8       1.0000 0.97280  0.55505  0.90360  Biso   1.000  O
  O9       1.0000 0.94200  0.61958  0.90010  Biso   1.000  O
  N10      1.0000 0.73590  0.61713  0.68150  Biso   1.000  N
  N11      1.0000 0.78840  0.58395  0.71950  Biso   1.000  N
  C55      1.0000 0.81710  0.56520  0.63870  Biso   1.000  C
  C56      1.0000 0.78650  0.58720  0.54680  Biso   1.000  C
  C57      1.0000 0.73040  0.62010  0.57640  Biso   1.000  C
  C58      1.0000 0.87560  0.52700  0.65260  Biso   1.000  C
  H57      1.0000 0.89750  0.52150  0.72750  Biso   1.000  H
  H58      1.0000 0.94110  0.52820  0.61940  Biso   1.000  H
  H59      1.0000 0.82690  0.50600  0.62000  Biso   1.000  H
  C59      1.0000 0.67300  0.65370  0.51380  Biso   1.000  C
  H60      1.0000 0.67860  0.65040  0.43980  Biso   1.000  H
  H61      1.0000 0.70750  0.67860  0.53970  Biso   1.000  H
  H62      1.0000 0.59540  0.65400  0.52140  Biso   1.000  H
  C60      1.0000 0.80250  0.57700  0.43860  Biso   1.000  C
  C61      1.0000 0.79950  0.53950  0.40210  Biso   1.000  C
  H63      1.0000 0.78550  0.51840  0.44610  Biso   1.000  H
  C62      1.0000 0.81730  0.53140  0.29750  Biso   1.000  C
  H64      1.0000 0.81620  0.50500  0.27290  Biso   1.000  H
  C63      1.0000 0.83590  0.56180  0.23310  Biso   1.000  C
  C64      1.0000 0.83680  0.59940  0.26970  Biso   1.000  C
  H65      1.0000 0.84630  0.62050  0.22390  Biso   1.000  H
  C65      1.0000 0.82430  0.60780  0.37170  Biso   1.000  C
  H66      1.0000 0.83030  0.63420  0.39650  Biso   1.000  H
  C66      1.0000 0.84920  0.55360  0.12370  Biso   1.000  C
  O10      1.0000 0.89460  0.52191  0.10480  Biso   1.000  O
  O11      1.0000 0.81380  0.57925  0.05630  Biso   1.000  O
  N12      1.0000 0.43950  0.28447  0.69490  Biso   1.000  N
  N13      1.0000 0.37710  0.29258  0.76940  Biso   1.000  N
  C67      1.0000 0.41670  0.32760  0.81490  Biso   1.000  C
  C68      1.0000 0.50170  0.34100  0.76440  Biso   1.000  C
  C69      1.0000 0.51520  0.31320  0.69080  Biso   1.000  C
  C70      1.0000 0.37520  0.34620  0.90700  Biso   1.000  C
  H67      1.0000 0.31680  0.36510  0.88120  Biso   1.000  H
  H68      1.0000 0.43570  0.35980  0.95160  Biso   1.000  H
  H69      1.0000 0.34600  0.32560  0.94770  Biso   1.000  H
  C71      1.0000 0.59210  0.31090  0.61250  Biso   1.000  C
  H70      1.0000 0.64670  0.29020  0.63360  Biso   1.000  H
  H71      1.0000 0.62940  0.33620  0.60980  Biso   1.000  H
  H72      1.0000 0.55010  0.30470  0.54310  Biso   1.000  H
  C72      1.0000 0.56780  0.37660  0.78970  Biso   1.000  C
  C73      1.0000 0.67930  0.37440  0.82200  Biso   1.000  C
  H73      1.0000 0.71340  0.34930  0.82350  Biso   1.000  H
  C74      1.0000 0.74340  0.40630  0.85200  Biso   1.000  C
  H74      1.0000 0.81810  0.40290  0.88340  Biso   1.000  H
  C75      1.0000 0.69920  0.44360  0.83650  Biso   1.000  C
  C76      1.0000 0.58460  0.44710  0.79920  Biso   1.000  C
  H75      1.0000 0.55190  0.47250  0.79020  Biso   1.000  H
  C77      1.0000 0.52030  0.41410  0.77570  Biso   1.000  C
  H76      1.0000 0.44390  0.41680  0.75010  Biso   1.000  H
  C78      1.0000 0.76710  0.47830  0.86770  Biso   1.000  C
  O12      1.0000 0.72460  0.51333  0.86020  Biso   1.000  O
  O13      1.0000 0.86970  0.47305  0.89920  Biso   1.000  O
  C79      1.0000 0.17000  0.29000  0.84330  Biso   1.000  C
  C80      1.0000 0.09440  0.30670  0.84750  Biso   1.000  C
  C81      1.0000 0.00460  0.33240  0.88470  Biso   1.000  C
  H77      1.0000 0.03670  0.35750  0.91160  Biso   1.000  H
  H78      1.0000 0.97530  0.31850  0.94030  Biso   1.000  H
  H79      1.0000 0.94520  0.33730  0.82560  Biso   1.000  H
  O14      1.0000 0.15490  0.28320  0.61890  Biso   1.000  O
  C82      1.0000 0.15490  0.21000  0.60340  Biso   1.000  C
  H80      1.0000 0.23070  0.20180  0.60210  Biso   1.000  H
  H81      1.0000 0.12050  0.21860  0.53320  Biso   1.000  H
  H82      1.0000 0.11370  0.18780  0.62540  Biso   1.000  H
  H83      1.0000 0.64240  0.67170  0.56080  Biso   1.000  H
  H84      1.0000 0.61350  0.64340  0.46090  Biso   1.000  H
  H85      1.0000 0.72560  0.66800  0.47920  Biso   1.000  H
  H86      1.0000 0.22850  0.22490  0.03980  Biso   1.000  H
  H87      1.0000 0.21500  0.27170  0.02870  Biso   1.000  H
  H88      1.0000 0.31410  0.25340  0.11060  Biso   1.000  H
  N14      1.0000 0.17000  0.21000  0.84330  Biso   1.000  N
  Mn3      1.0000 0.79857  0.93192  0.89305  Biso   1.000  Mn
  C83      1.0000 0.69830  0.85560  0.75240  Biso   1.000  C
  H89      1.0000 0.67170  0.83140  0.71340  Biso   1.000  H
  H90      1.0000 0.76100  0.84820  0.80720  Biso   1.000  H
  N15      1.0000 0.61180  0.87118  0.80180  Biso   1.000  N
  N16      1.0000 0.63760  0.90140  0.86940  Biso   1.000  N
  C84      1.0000 0.54270  0.91240  0.89670  Biso   1.000  C
  C85      1.0000 0.45730  0.88800  0.84700  Biso   1.000  C
  C86      1.0000 0.50260  0.86270  0.78550  Biso   1.000  C
  C87      1.0000 0.54350  0.94620  0.97230  Biso   1.000  C
  H91      1.0000 0.54830  0.97110  0.93520  Biso   1.000  H
  H92      1.0000 0.47580  0.94580  0.00210  Biso   1.000  H
  H93      1.0000 0.60700  0.94370  0.02880  Biso   1.000  H
  C88      1.0000 0.44950  0.83160  0.71080  Biso   1.000  C
  H94      1.0000 0.37050  0.83080  0.71200  Biso   1.000  H
  H95      1.0000 0.46160  0.83770  0.63970  Biso   1.000  H
  H96      1.0000 0.48200  0.80590  0.73200  Biso   1.000  H
  C89      1.0000 0.33970  0.89250  0.85790  Biso   1.000  C
  C90      1.0000 0.29000  0.92970  0.85020  Biso   1.000  C
  H97      1.0000 0.33110  0.95200  0.83510  Biso   1.000  H
  C91      1.0000 0.18480  0.93450  0.86380  Biso   1.000  C
  H98      1.0000 0.15360  0.96020  0.85820  Biso   1.000  H
  C92      1.0000 0.12170  0.90320  0.88550  Biso   1.000  C
  C93      1.0000 0.17150  0.86520  0.89370  Biso   1.000  C
  H99      1.0000 0.13120  0.84290  0.90990  Biso   1.000  H
  C94      1.0000 0.27560  0.86100  0.87850  Biso   1.000  C
  H100     1.0000 0.30660  0.83530  0.88210  Biso   1.000  H
  C95      1.0000 0.00700  0.90950  0.89880  Biso   1.000  C
  O15      1.0000 0.97280  0.94495  0.90360  Biso   1.000  O
  O16      1.0000 0.94200  0.88042  0.90010  Biso   1.000  O
  N17      1.0000 0.73590  0.88287  0.68150  Biso   1.000  N
  N18      1.0000 0.78840  0.91605  0.71950  Biso   1.000  N
  C96      1.0000 0.81710  0.93480  0.63870  Biso   1.000  C
  C97      1.0000 0.78650  0.91280  0.54680  Biso   1.000  C
  C98      1.0000 0.73040  0.87990  0.57640  Biso   1.000  C
  C99      1.0000 0.87560  0.97300  0.65260  Biso   1.000  C
  H101     1.0000 0.89750  0.97850  0.72750  Biso   1.000  H
  H102     1.0000 0.94110  0.97180  0.61940  Biso   1.000  H
  H103     1.0000 0.82690  0.99400  0.62000  Biso   1.000  H
  C100     1.0000 0.67300  0.84630  0.51380  Biso   1.000  C
  H104     1.0000 0.67860  0.84960  0.43980  Biso   1.000  H
  H105     1.0000 0.70750  0.82140  0.53970  Biso   1.000  H
  H106     1.0000 0.59540  0.84600  0.52140  Biso   1.000  H
  C101     1.0000 0.80250  0.92300  0.43860  Biso   1.000  C
  C102     1.0000 0.79950  0.96050  0.40210  Biso   1.000  C
  H107     1.0000 0.78550  0.98160  0.44610  Biso   1.000  H
  C103     1.0000 0.81730  0.96860  0.29750  Biso   1.000  C
  H108     1.0000 0.81620  0.99500  0.27290  Biso   1.000  H
  C104     1.0000 0.83590  0.93820  0.23310  Biso   1.000  C
  C105     1.0000 0.83680  0.90060  0.26970  Biso   1.000  C
  H109     1.0000 0.84630  0.87950  0.22390  Biso   1.000  H
  C106     1.0000 0.82430  0.89220  0.37170  Biso   1.000  C
  H110     1.0000 0.83030  0.86580  0.39650  Biso   1.000  H
  C107     1.0000 0.84920  0.94640  0.12370  Biso   1.000  C
  O17      1.0000 0.89460  0.97809  0.10480  Biso   1.000  O
  O18      1.0000 0.81380  0.92075  0.05630  Biso   1.000  O
  N19      1.0000 0.43950  0.21553  0.69490  Biso   1.000  N
  N20      1.0000 0.37710  0.20742  0.76940  Biso   1.000  N
  C108     1.0000 0.41670  0.17240  0.81490  Biso   1.000  C
  C109     1.0000 0.50170  0.15900  0.76440  Biso   1.000  C
  C110     1.0000 0.51520  0.18680  0.69080  Biso   1.000  C
  C111     1.0000 0.37520  0.15380  0.90700  Biso   1.000  C
  H111     1.0000 0.31680  0.13490  0.88120  Biso   1.000  H
  H112     1.0000 0.43570  0.14020  0.95160  Biso   1.000  H
  H113     1.0000 0.34600  0.17440  0.94770  Biso   1.000  H
  C112     1.0000 0.59210  0.18910  0.61250  Biso   1.000  C
  H114     1.0000 0.64670  0.20980  0.63360  Biso   1.000  H
  H115     1.0000 0.62940  0.16380  0.60980  Biso   1.000  H
  H116     1.0000 0.55010  0.19530  0.54310  Biso   1.000  H
  C113     1.0000 0.56780  0.12340  0.78970  Biso   1.000  C
  C114     1.0000 0.67930  0.12560  0.82200  Biso   1.000  C
  H117     1.0000 0.71340  0.15070  0.82350  Biso   1.000  H
  C115     1.0000 0.74340  0.09370  0.85200  Biso   1.000  C
  H118     1.0000 0.81810  0.09710  0.88340  Biso   1.000  H
  C116     1.0000 0.69920  0.05640  0.83650  Biso   1.000  C
  C117     1.0000 0.58460  0.05290  0.79920  Biso   1.000  C
  H119     1.0000 0.55190  0.02750  0.79020  Biso   1.000  H
  C118     1.0000 0.52030  0.08590  0.77570  Biso   1.000  C
  H120     1.0000 0.44390  0.08320  0.75010  Biso   1.000  H
  C119     1.0000 0.76710  0.02170  0.86770  Biso   1.000  C
  O19      1.0000 0.72460  0.98667  0.86020  Biso   1.000  O
  O20      1.0000 0.86970  0.02695  0.89920  Biso   1.000  O
  C120     1.0000 0.09440  0.19330  0.84750  Biso   1.000  C
  C121     1.0000 0.00460  0.16760  0.88470  Biso   1.000  C
  H121     1.0000 0.03670  0.14250  0.91160  Biso   1.000  H
  H122     1.0000 0.97530  0.18150  0.94030  Biso   1.000  H
  H123     1.0000 0.94520  0.16270  0.82560  Biso   1.000  H
  O21      1.0000 0.15490  0.21680  0.61890  Biso   1.000  O
  C122     1.0000 0.15490  0.29000  0.60340  Biso   1.000  C
  H124     1.0000 0.23070  0.29820  0.60210  Biso   1.000  H
  H125     1.0000 0.12050  0.28140  0.53320  Biso   1.000  H
  H126     1.0000 0.11370  0.31220  0.62540  Biso   1.000  H
  H127     1.0000 0.64240  0.82830  0.56080  Biso   1.000  H
  H128     1.0000 0.61350  0.85660  0.46090  Biso   1.000  H
  H129     1.0000 0.72560  0.83200  0.47920  Biso   1.000  H
  H130     1.0000 0.22850  0.27510  0.03980  Biso   1.000  H
  H131     1.0000 0.21500  0.22830  0.02870  Biso   1.000  H
  H132     1.0000 0.31410  0.24660  0.11060  Biso   1.000  H
  Mn4      1.0000 0.20143  0.43192  0.10695  Biso   1.000  Mn
  C123     1.0000 0.30170  0.35560  0.24760  Biso   1.000  C
  H133     1.0000 0.32830  0.33140  0.28660  Biso   1.000  H
  H134     1.0000 0.23900  0.34820  0.19280  Biso   1.000  H
  N21      1.0000 0.38820  0.37118  0.19820  Biso   1.000  N
  N22      1.0000 0.36240  0.40140  0.13060  Biso   1.000  N
  C124     1.0000 0.45730  0.41240  0.10330  Biso   1.000  C
  C125     1.0000 0.54270  0.38800  0.15300  Biso   1.000  C
  C126     1.0000 0.49740  0.36270  0.21450  Biso   1.000  C
  C127     1.0000 0.45650  0.44620  0.02770  Biso   1.000  C
  H135     1.0000 0.45170  0.47110  0.06480  Biso   1.000  H
  H136     1.0000 0.52420  0.44580  0.99790  Biso   1.000  H
  H137     1.0000 0.39300  0.44370  0.97120  Biso   1.000  H
  C128     1.0000 0.55050  0.33160  0.28920  Biso   1.000  C
  H138     1.0000 0.62950  0.33080  0.28800  Biso   1.000  H
  H139     1.0000 0.53840  0.33770  0.36030  Biso   1.000  H
  H140     1.0000 0.51800  0.30590  0.26800  Biso   1.000  H
  C129     1.0000 0.66030  0.39250  0.14210  Biso   1.000  C
  C130     1.0000 0.71000  0.42970  0.14980  Biso   1.000  C
  H141     1.0000 0.66890  0.45200  0.16490  Biso   1.000  H
  C131     1.0000 0.81520  0.43450  0.13620  Biso   1.000  C
  H142     1.0000 0.84640  0.46020  0.14180  Biso   1.000  H
  C132     1.0000 0.87830  0.40320  0.11450  Biso   1.000  C
  C133     1.0000 0.82850  0.36520  0.10630  Biso   1.000  C
  H143     1.0000 0.86880  0.34290  0.09010  Biso   1.000  H
  C134     1.0000 0.72440  0.36100  0.12150  Biso   1.000  C
  H144     1.0000 0.69340  0.33530  0.11790  Biso   1.000  H
  C135     1.0000 0.99300  0.40950  0.10120  Biso   1.000  C
  O22      1.0000 0.02720  0.44495  0.09640  Biso   1.000  O
  O23      1.0000 0.05800  0.38042  0.09990  Biso   1.000  O
  N23      1.0000 0.26410  0.38287  0.31850  Biso   1.000  N
  N24      1.0000 0.21160  0.41605  0.28050  Biso   1.000  N
  C136     1.0000 0.18290  0.43480  0.36130  Biso   1.000  C
  C137     1.0000 0.21350  0.41280  0.45320  Biso   1.000  C
  C138     1.0000 0.26960  0.37990  0.42360  Biso   1.000  C
  C139     1.0000 0.12440  0.47300  0.34740  Biso   1.000  C
  H145     1.0000 0.10250  0.47850  0.27250  Biso   1.000  H
  H146     1.0000 0.05890  0.47180  0.38060  Biso   1.000  H
  H147     1.0000 0.17310  0.49400  0.38000  Biso   1.000  H
  C140     1.0000 0.32700  0.34630  0.48620  Biso   1.000  C
  H148     1.0000 0.32140  0.34960  0.56020  Biso   1.000  H
  H149     1.0000 0.29250  0.32140  0.46030  Biso   1.000  H
  H150     1.0000 0.40460  0.34600  0.47860  Biso   1.000  H
  C141     1.0000 0.19750  0.42300  0.56140  Biso   1.000  C
  C142     1.0000 0.20050  0.46050  0.59790  Biso   1.000  C
  H151     1.0000 0.21450  0.48160  0.55390  Biso   1.000  H
  C143     1.0000 0.18270  0.46860  0.70250  Biso   1.000  C
  H152     1.0000 0.18380  0.49500  0.72710  Biso   1.000  H
  C144     1.0000 0.16410  0.43820  0.76690  Biso   1.000  C
  C145     1.0000 0.16320  0.40060  0.73030  Biso   1.000  C
  H153     1.0000 0.15370  0.37950  0.77610  Biso   1.000  H
  C146     1.0000 0.17570  0.39220  0.62830  Biso   1.000  C
  H154     1.0000 0.16970  0.36580  0.60350  Biso   1.000  H
  C147     1.0000 0.15080  0.44640  0.87630  Biso   1.000  C
  O24      1.0000 0.10540  0.47809  0.89520  Biso   1.000  O
  O25      1.0000 0.18620  0.42075  0.94370  Biso   1.000  O
  N25      1.0000 0.56050  0.71553  0.30510  Biso   1.000  N
  N26      1.0000 0.62290  0.70742  0.23060  Biso   1.000  N
  C148     1.0000 0.58330  0.67240  0.18510  Biso   1.000  C
  C149     1.0000 0.49830  0.65900  0.23560  Biso   1.000  C
  C150     1.0000 0.48480  0.68680  0.30920  Biso   1.000  C
  C151     1.0000 0.62480  0.65380  0.09300  Biso   1.000  C
  H155     1.0000 0.68320  0.63490  0.11880  Biso   1.000  H
  H156     1.0000 0.56430  0.64020  0.04840  Biso   1.000  H
  H157     1.0000 0.65400  0.67440  0.05230  Biso   1.000  H
  C152     1.0000 0.40790  0.68910  0.38750  Biso   1.000  C
  H158     1.0000 0.35330  0.70980  0.36640  Biso   1.000  H
  H159     1.0000 0.37060  0.66380  0.39020  Biso   1.000  H
  H160     1.0000 0.44990  0.69530  0.45690  Biso   1.000  H
  C153     1.0000 0.43220  0.62340  0.21030  Biso   1.000  C
  C154     1.0000 0.32070  0.62560  0.17800  Biso   1.000  C
  H161     1.0000 0.28660  0.65070  0.17650  Biso   1.000  H
  C155     1.0000 0.25660  0.59370  0.14800  Biso   1.000  C
  H162     1.0000 0.18190  0.59710  0.11660  Biso   1.000  H
  C156     1.0000 0.30080  0.55640  0.16350  Biso   1.000  C
  C157     1.0000 0.41540  0.55290  0.20080  Biso   1.000  C
  H163     1.0000 0.44810  0.52750  0.20980  Biso   1.000  H
  C158     1.0000 0.47970  0.58590  0.22430  Biso   1.000  C
  H164     1.0000 0.55610  0.58320  0.24990  Biso   1.000  H
  C159     1.0000 0.23290  0.52170  0.13230  Biso   1.000  C
  O26      1.0000 0.27540  0.48667  0.13980  Biso   1.000  O
  O27      1.0000 0.13030  0.52695  0.10080  Biso   1.000  O
  C160     1.0000 0.90560  0.69330  0.15250  Biso   1.000  C
  C161     1.0000 0.99540  0.66760  0.11530  Biso   1.000  C
  H165     1.0000 0.96330  0.64250  0.08840  Biso   1.000  H
  H166     1.0000 0.02470  0.68150  0.05970  Biso   1.000  H
  H167     1.0000 0.05480  0.66270  0.17440  Biso   1.000  H
  O28      1.0000 0.84510  0.71680  0.38110  Biso   1.000  O
  C162     1.0000 0.84510  0.79000  0.39660  Biso   1.000  C
  H168     1.0000 0.76930  0.79820  0.39790  Biso   1.000  H
  H169     1.0000 0.87950  0.78140  0.46680  Biso   1.000  H
  H170     1.0000 0.88630  0.81220  0.37460  Biso   1.000  H
  H171     1.0000 0.35760  0.32830  0.43920  Biso   1.000  H
  H172     1.0000 0.38650  0.35660  0.53910  Biso   1.000  H
  H173     1.0000 0.27440  0.33200  0.52080  Biso   1.000  H
  H174     1.0000 0.77150  0.77510  0.96020  Biso   1.000  H
  H175     1.0000 0.78500  0.72830  0.97130  Biso   1.000  H
  H176     1.0000 0.68590  0.74660  0.88940  Biso   1.000  H
  Mn5      1.0000 0.00000  0.00000  0.00000  Biso   1.000  Mn
  Mn6      1.0000 0.00000  0.50000  0.00000  Biso   1.000  Mn
  Rh1      1.0000 0.72855  0.75000  0.19066  Biso   1.000  Rh
  I1       1.0000 0.87112  0.75000  0.40123  Biso   1.000  I
  C163     1.0000 0.58230  0.75000  0.36520  Biso   1.000  C
  H177     1.0000 0.66030  0.75000  0.39940  Biso   1.000  H
  H178     1.0000 0.53680  0.75000  0.42110  Biso   1.000  H
  C164     1.0000 0.65800  0.75000  0.04500  Biso   1.000  C
  C165     1.0000 0.73200  0.75000  0.95840  Biso   1.000  C
  O29      1.0000 0.55720  0.75000  0.05210  Biso   1.000  O
  I2       1.0000 0.60280  0.75000  0.97010  Biso   1.000  I
  C166     1.0000 0.80580  0.75000  0.34440  Biso   1.000  C
  Rh2      1.0000 0.27145  0.25000  0.80934  Biso   1.000  Rh
  I3       1.0000 0.12888  0.25000  0.59877  Biso   1.000  I
  C167     1.0000 0.41770  0.25000  0.63480  Biso   1.000  C
  H179     1.0000 0.33970  0.25000  0.60060  Biso   1.000  H
  H180     1.0000 0.46320  0.25000  0.57890  Biso   1.000  H
  C168     1.0000 0.34200  0.25000  0.95500  Biso   1.000  C
  C169     1.0000 0.26800  0.25000  0.04160  Biso   1.000  C
  O30      1.0000 0.44280  0.25000  0.94790  Biso   1.000  O
  I4       1.0000 0.39720  0.25000  0.02990  Biso   1.000  I
  C170     1.0000 0.19420  0.25000  0.65560  Biso   1.000  C
