data_image0
_cell_length_a       12.359
_cell_length_b       33.229
_cell_length_c       12.887
_cell_angle_alpha    90
_cell_angle_beta     96.42
_cell_angle_gamma    90

_symmetry_space_group_name_H-M    "P 1"
_symmetry_int_tables_number       1

loop_
  _symmetry_equiv_pos_as_xyz
  'x, y, z'

loop_
  _atom_site_label
  _atom_site_occupancy
  _atom_site_fract_x
  _atom_site_fract_y
  _atom_site_fract_z
  _atom_site_thermal_displace_type
  _atom_site_B_iso_or_equiv
  _atom_site_type_symbol
  Mn1      1.0000 0.20042  0.06984  0.60195  Biso   1.000  Mn
  C1       1.0000 0.40050  0.94832  0.71120  Biso   1.000  C
  H1       1.0000 0.43000  0.97450  0.72360  Biso   1.000  H
  C2       1.0000 0.46330  0.91553  0.74090  Biso   1.000  C
  H2       1.0000 0.53390  0.91960  0.77690  Biso   1.000  H
  C3       1.0000 0.32200  0.87345  0.67770  Biso   1.000  C
  H3       1.0000 0.29230  0.84730  0.66540  Biso   1.000  H
  C4       1.0000 0.25710  0.90603  0.65210  Biso   1.000  C
  H4       1.0000 0.18320  0.90210  0.62510  Biso   1.000  H
  C5       1.0000 0.49750  0.84075  0.74590  Biso   1.000  C
  C6       1.0000 0.48280  0.81384  0.82450  Biso   1.000  C
  N1       1.0000 0.56400  0.78603  0.81960  Biso   1.000  N
  C7       1.0000 0.58330  0.82623  0.69450  Biso   1.000  C
  C8       1.0000 0.42760  0.87688  0.72030  Biso   1.000  C
  N2       1.0000 0.35930  0.10107  0.62220  Biso   1.000  N
  N3       1.0000 0.19720  0.08994  0.76990  Biso   1.000  N
  N4       1.0000 0.37980  0.13386  0.68450  Biso   1.000  N
  C9       1.0000 0.48820  0.14256  0.69940  Biso   1.000  C
  C10      1.0000 0.53880  0.11403  0.64410  Biso   1.000  C
  C11      1.0000 0.45620  0.08859  0.59860  Biso   1.000  C
  C12      1.0000 0.46400  0.05317  0.52920  Biso   1.000  C
  H5       1.0000 0.45210  0.02850  0.56780  Biso   1.000  H
  H6       1.0000 0.53650  0.05240  0.50520  Biso   1.000  H
  H7       1.0000 0.40860  0.05530  0.46880  Biso   1.000  H
  C13      1.0000 0.53370  0.17727  0.76320  Biso   1.000  C
  H8       1.0000 0.52810  0.20170  0.72050  Biso   1.000  H
  H9       1.0000 0.61030  0.17210  0.78780  Biso   1.000  H
  H10      1.0000 0.49250  0.18080  0.82330  Biso   1.000  H
  C14      1.0000 0.65620  0.10976  0.63430  Biso   1.000  C
  C15      1.0000 0.70650  0.07232  0.65170  Biso   1.000  C
  H11      1.0000 0.66560  0.05020  0.67330  Biso   1.000  H
  C16      1.0000 0.71850  0.14236  0.60710  Biso   1.000  C
  H12      1.0000 0.68630  0.16820  0.59690  Biso   1.000  H
  C17      1.0000 0.28890  0.15139  0.73100  Biso   1.000  C
  H13      1.0000 0.31230  0.17690  0.76620  Biso   1.000  H
  H14      1.0000 0.22910  0.15750  0.67560  Biso   1.000  H
  N5       1.0000 0.25020  0.12417  0.80580  Biso   1.000  N
  C18      1.0000 0.25690  0.12662  0.91140  Biso   1.000  C
  C19      1.0000 0.20490  0.09291  0.94460  Biso   1.000  C
  C20      1.0000 0.16860  0.07121  0.85330  Biso   1.000  C
  C21      1.0000 0.10720  0.03247  0.84300  Biso   1.000  C
  H15      1.0000 0.07260  0.02950  0.77120  Biso   1.000  H
  H16      1.0000 0.05120  0.03240  0.89120  Biso   1.000  H
  H17      1.0000 0.15750  0.01000  0.85990  Biso   1.000  H
  C22      1.0000 0.31290  0.16039  0.97070  Biso   1.000  C
  H18      1.0000 0.38630  0.16360  0.94990  Biso   1.000  H
  H19      1.0000 0.31780  0.15460  0.04560  Biso   1.000  H
  H20      1.0000 0.27150  0.18530  0.95570  Biso   1.000  H
  O1       1.0000 0.02694  0.05648  0.59437  Biso   1.000  O
  O2       1.0000 0.05470  0.12174  0.58240  Biso   1.000  O
  C23      1.0000 0.99200  0.09279  0.59280  Biso   1.000  C
  C24      1.0000 0.87480  0.09910  0.60770  Biso   1.000  C
  C25      1.0000 0.81430  0.06699  0.63800  Biso   1.000  C
  H21      1.0000 0.84720  0.04130  0.64930  Biso   1.000  H
  C26      1.0000 0.82720  0.13689  0.59500  Biso   1.000  C
  H22      1.0000 0.86990  0.15920  0.57780  Biso   1.000  H
  C27      1.0000 0.29740  0.94445  0.66470  Biso   1.000  C
  C28      1.0000 0.22850  0.97996  0.63090  Biso   1.000  C
  O3       1.0000 0.26830  0.01414  0.64510  Biso   1.000  O
  C29      1.0000 0.19030  0.08259  0.05340  Biso   1.000  C
  O4       1.0000 0.13220  0.97290  0.59000  Biso   1.000  O
  N6       1.0000 0.62380  0.79315  0.73990  Biso   1.000  N
  C30      1.0000 0.62580  0.84390  0.60170  Biso   1.000  C
  H23      1.0000 0.69730  0.83230  0.59380  Biso   1.000  H
  H24      1.0000 0.63270  0.87310  0.61050  Biso   1.000  H
  H25      1.0000 0.57540  0.83800  0.53930  Biso   1.000  H
  C31      1.0000 0.40370  0.81295  0.89820  Biso   1.000  C
  H26      1.0000 0.34890  0.79230  0.87730  Biso   1.000  H
  H27      1.0000 0.36820  0.83930  0.89960  Biso   1.000  H
  H28      1.0000 0.44000  0.80670  0.96780  Biso   1.000  H
  O5       1.0000 0.20130  0.07439  0.44010  Biso   1.000  O
  O6       1.0000 0.09750  0.02333  0.38750  Biso   1.000  O
  C32      1.0000 0.16560  0.06284  0.26050  Biso   1.000  C
  C33      1.0000 0.15170  0.05257  0.37140  Biso   1.000  C
  C34      1.0000 0.20440  0.04196  0.09150  Biso   1.000  C
  H29      1.0000 0.22450  0.02150  0.04590  Biso   1.000  H
  C35      1.0000 0.17750  0.11132  0.12740  Biso   1.000  C
  H30      1.0000 0.17560  0.13880  0.10700  Biso   1.000  H
  C36      1.0000 0.18930  0.03215  0.19420  Biso   1.000  C
  H31      1.0000 0.19500  0.00510  0.21790  Biso   1.000  H
  C37      1.0000 0.16710  0.10201  0.23080  Biso   1.000  C
  H32      1.0000 0.16110  0.12280  0.28030  Biso   1.000  H
  C38      1.0000 0.08330  0.06870  0.07590  Biso   1.000  C
  H33      1.0000 0.02370  0.06650  0.02290  Biso   1.000  H
  C39      1.0000 0.07350  0.05890  0.17950  Biso   1.000  C
  H34      1.0000 0.00560  0.04940  0.19790  Biso   1.000  H
  C40      1.0000 0.25530  0.07910  0.22710  Biso   1.000  C
  H35      1.0000 0.31780  0.08200  0.27660  Biso   1.000  H
  C41      1.0000 0.26300  0.09180  0.12630  Biso   1.000  C
  H36      1.0000 0.32360  0.10750  0.11160  Biso   1.000  H
  Mn2      1.0000 0.79958  0.56984  0.39805  Biso   1.000  Mn
  C42      1.0000 0.59950  0.44832  0.28880  Biso   1.000  C
  H37      1.0000 0.57000  0.47450  0.27640  Biso   1.000  H
  C43      1.0000 0.53670  0.41553  0.25910  Biso   1.000  C
  H38      1.0000 0.46610  0.41960  0.22310  Biso   1.000  H
  C44      1.0000 0.67800  0.37345  0.32230  Biso   1.000  C
  H39      1.0000 0.70770  0.34730  0.33460  Biso   1.000  H
  C45      1.0000 0.74290  0.40603  0.34790  Biso   1.000  C
  H40      1.0000 0.81680  0.40210  0.37490  Biso   1.000  H
  C46      1.0000 0.50250  0.34075  0.25410  Biso   1.000  C
  C47      1.0000 0.51720  0.31384  0.17550  Biso   1.000  C
  N7       1.0000 0.43600  0.28603  0.18040  Biso   1.000  N
  C48      1.0000 0.41670  0.32623  0.30550  Biso   1.000  C
  C49      1.0000 0.57240  0.37688  0.27970  Biso   1.000  C
  N8       1.0000 0.64070  0.60107  0.37780  Biso   1.000  N
  N9       1.0000 0.80280  0.58994  0.23010  Biso   1.000  N
  N10      1.0000 0.62020  0.63386  0.31550  Biso   1.000  N
  C50      1.0000 0.51180  0.64256  0.30060  Biso   1.000  C
  C51      1.0000 0.46120  0.61403  0.35590  Biso   1.000  C
  C52      1.0000 0.54380  0.58859  0.40140  Biso   1.000  C
  C53      1.0000 0.53600  0.55317  0.47080  Biso   1.000  C
  H41      1.0000 0.54790  0.52850  0.43220  Biso   1.000  H
  H42      1.0000 0.46350  0.55240  0.49480  Biso   1.000  H
  H43      1.0000 0.59140  0.55530  0.53120  Biso   1.000  H
  C54      1.0000 0.46630  0.67727  0.23680  Biso   1.000  C
  H44      1.0000 0.47190  0.70170  0.27950  Biso   1.000  H
  H45      1.0000 0.38970  0.67210  0.21220  Biso   1.000  H
  H46      1.0000 0.50750  0.68080  0.17670  Biso   1.000  H
  C55      1.0000 0.34380  0.60976  0.36570  Biso   1.000  C
  C56      1.0000 0.29350  0.57232  0.34830  Biso   1.000  C
  H47      1.0000 0.33440  0.55020  0.32670  Biso   1.000  H
  C57      1.0000 0.28150  0.64236  0.39290  Biso   1.000  C
  H48      1.0000 0.31370  0.66820  0.40310  Biso   1.000  H
  C58      1.0000 0.71110  0.65139  0.26900  Biso   1.000  C
  H49      1.0000 0.68770  0.67690  0.23380  Biso   1.000  H
  H50      1.0000 0.77090  0.65750  0.32440  Biso   1.000  H
  N11      1.0000 0.74980  0.62417  0.19420  Biso   1.000  N
  C59      1.0000 0.74310  0.62662  0.08860  Biso   1.000  C
  C60      1.0000 0.79510  0.59291  0.05540  Biso   1.000  C
  C61      1.0000 0.83140  0.57121  0.14670  Biso   1.000  C
  C62      1.0000 0.89280  0.53247  0.15700  Biso   1.000  C
  H51      1.0000 0.92740  0.52950  0.22880  Biso   1.000  H
  H52      1.0000 0.94880  0.53240  0.10880  Biso   1.000  H
  H53      1.0000 0.84250  0.51000  0.14010  Biso   1.000  H
  C63      1.0000 0.68710  0.66039  0.02930  Biso   1.000  C
  H54      1.0000 0.61370  0.66360  0.05010  Biso   1.000  H
  H55      1.0000 0.68220  0.65460  0.95440  Biso   1.000  H
  H56      1.0000 0.72850  0.68530  0.04430  Biso   1.000  H
  O7       1.0000 0.97306  0.55648  0.40563  Biso   1.000  O
  O8       1.0000 0.94530  0.62174  0.41760  Biso   1.000  O
  C64      1.0000 0.00800  0.59279  0.40720  Biso   1.000  C
  C65      1.0000 0.12520  0.59910  0.39230  Biso   1.000  C
  C66      1.0000 0.18570  0.56699  0.36200  Biso   1.000  C
  H57      1.0000 0.15280  0.54130  0.35070  Biso   1.000  H
  C67      1.0000 0.17280  0.63689  0.40500  Biso   1.000  C
  H58      1.0000 0.13010  0.65920  0.42220  Biso   1.000  H
  C68      1.0000 0.70260  0.44445  0.33530  Biso   1.000  C
  C69      1.0000 0.77150  0.47996  0.36910  Biso   1.000  C
  O9       1.0000 0.73170  0.51414  0.35490  Biso   1.000  O
  C70      1.0000 0.80970  0.58259  0.94660  Biso   1.000  C
  O10      1.0000 0.86780  0.47290  0.41000  Biso   1.000  O
  N12      1.0000 0.37620  0.29315  0.26010  Biso   1.000  N
  C71      1.0000 0.37420  0.34390  0.39830  Biso   1.000  C
  H59      1.0000 0.30270  0.33230  0.40620  Biso   1.000  H
  H60      1.0000 0.36730  0.37310  0.38950  Biso   1.000  H
  H61      1.0000 0.42460  0.33800  0.46070  Biso   1.000  H
  C72      1.0000 0.59630  0.31295  0.10180  Biso   1.000  C
  H62      1.0000 0.65110  0.29230  0.12270  Biso   1.000  H
  H63      1.0000 0.63180  0.33930  0.10040  Biso   1.000  H
  H64      1.0000 0.56000  0.30670  0.03220  Biso   1.000  H
  O11      1.0000 0.79870  0.57439  0.55990  Biso   1.000  O
  O12      1.0000 0.90250  0.52333  0.61250  Biso   1.000  O
  C73      1.0000 0.83440  0.56284  0.73950  Biso   1.000  C
  C74      1.0000 0.84830  0.55257  0.62860  Biso   1.000  C
  C75      1.0000 0.79560  0.54196  0.90850  Biso   1.000  C
  H65      1.0000 0.77550  0.52150  0.95410  Biso   1.000  H
  C76      1.0000 0.82250  0.61132  0.87260  Biso   1.000  C
  H66      1.0000 0.82440  0.63880  0.89300  Biso   1.000  H
  C77      1.0000 0.81070  0.53215  0.80580  Biso   1.000  C
  H67      1.0000 0.80500  0.50510  0.78210  Biso   1.000  H
  C78      1.0000 0.83290  0.60201  0.76920  Biso   1.000  C
  H68      1.0000 0.83890  0.62280  0.71970  Biso   1.000  H
  C79      1.0000 0.91670  0.56870  0.92410  Biso   1.000  C
  H69      1.0000 0.97630  0.56650  0.97710  Biso   1.000  H
  C80      1.0000 0.92650  0.55890  0.82050  Biso   1.000  C
  H70      1.0000 0.99440  0.54940  0.80210  Biso   1.000  H
  C81      1.0000 0.74470  0.57910  0.77290  Biso   1.000  C
  H71      1.0000 0.68220  0.58200  0.72340  Biso   1.000  H
  C82      1.0000 0.73700  0.59180  0.87370  Biso   1.000  C
  H72      1.0000 0.67640  0.60750  0.88840  Biso   1.000  H
  Mn3      1.0000 0.79958  0.93016  0.39805  Biso   1.000  Mn
  C83      1.0000 0.59950  0.05168  0.28880  Biso   1.000  C
  H73      1.0000 0.57000  0.02550  0.27640  Biso   1.000  H
  C84      1.0000 0.53670  0.08447  0.25910  Biso   1.000  C
  H74      1.0000 0.46610  0.08040  0.22310  Biso   1.000  H
  C85      1.0000 0.67800  0.12655  0.32230  Biso   1.000  C
  H75      1.0000 0.70770  0.15270  0.33460  Biso   1.000  H
  C86      1.0000 0.74290  0.09397  0.34790  Biso   1.000  C
  H76      1.0000 0.81680  0.09790  0.37490  Biso   1.000  H
  C87      1.0000 0.50250  0.15925  0.25410  Biso   1.000  C
  C88      1.0000 0.51720  0.18616  0.17550  Biso   1.000  C
  N13      1.0000 0.43600  0.21397  0.18040  Biso   1.000  N
  C89      1.0000 0.41670  0.17377  0.30550  Biso   1.000  C
  C90      1.0000 0.57240  0.12312  0.27970  Biso   1.000  C
  N14      1.0000 0.64070  0.89893  0.37780  Biso   1.000  N
  N15      1.0000 0.80280  0.91006  0.23010  Biso   1.000  N
  N16      1.0000 0.62020  0.86614  0.31550  Biso   1.000  N
  C91      1.0000 0.51180  0.85744  0.30060  Biso   1.000  C
  C92      1.0000 0.46120  0.88597  0.35590  Biso   1.000  C
  C93      1.0000 0.54380  0.91141  0.40140  Biso   1.000  C
  C94      1.0000 0.53600  0.94683  0.47080  Biso   1.000  C
  H77      1.0000 0.54790  0.97150  0.43220  Biso   1.000  H
  H78      1.0000 0.46350  0.94760  0.49480  Biso   1.000  H
  H79      1.0000 0.59140  0.94470  0.53120  Biso   1.000  H
  C95      1.0000 0.46630  0.82273  0.23680  Biso   1.000  C
  H80      1.0000 0.47190  0.79830  0.27950  Biso   1.000  H
  H81      1.0000 0.38970  0.82790  0.21220  Biso   1.000  H
  H82      1.0000 0.50750  0.81920  0.17670  Biso   1.000  H
  C96      1.0000 0.34380  0.89024  0.36570  Biso   1.000  C
  C97      1.0000 0.29350  0.92768  0.34830  Biso   1.000  C
  H83      1.0000 0.33440  0.94980  0.32670  Biso   1.000  H
  C98      1.0000 0.28150  0.85764  0.39290  Biso   1.000  C
  H84      1.0000 0.31370  0.83180  0.40310  Biso   1.000  H
  C99      1.0000 0.71110  0.84861  0.26900  Biso   1.000  C
  H85      1.0000 0.68770  0.82310  0.23380  Biso   1.000  H
  H86      1.0000 0.77090  0.84250  0.32440  Biso   1.000  H
  N17      1.0000 0.74980  0.87583  0.19420  Biso   1.000  N
  C100     1.0000 0.74310  0.87338  0.08860  Biso   1.000  C
  C101     1.0000 0.79510  0.90709  0.05540  Biso   1.000  C
  C102     1.0000 0.83140  0.92879  0.14670  Biso   1.000  C
  C103     1.0000 0.89280  0.96753  0.15700  Biso   1.000  C
  H87      1.0000 0.92740  0.97050  0.22880  Biso   1.000  H
  H88      1.0000 0.94880  0.96760  0.10880  Biso   1.000  H
  H89      1.0000 0.84250  0.99000  0.14010  Biso   1.000  H
  C104     1.0000 0.68710  0.83961  0.02930  Biso   1.000  C
  H90      1.0000 0.61370  0.83640  0.05010  Biso   1.000  H
  H91      1.0000 0.68220  0.84540  0.95440  Biso   1.000  H
  H92      1.0000 0.72850  0.81470  0.04430  Biso   1.000  H
  O13      1.0000 0.97306  0.94352  0.40563  Biso   1.000  O
  O14      1.0000 0.94530  0.87826  0.41760  Biso   1.000  O
  C105     1.0000 0.00800  0.90721  0.40720  Biso   1.000  C
  C106     1.0000 0.12520  0.90090  0.39230  Biso   1.000  C
  C107     1.0000 0.18570  0.93301  0.36200  Biso   1.000  C
  H93      1.0000 0.15280  0.95870  0.35070  Biso   1.000  H
  C108     1.0000 0.17280  0.86311  0.40500  Biso   1.000  C
  H94      1.0000 0.13010  0.84080  0.42220  Biso   1.000  H
  C109     1.0000 0.70260  0.05555  0.33530  Biso   1.000  C
  C110     1.0000 0.77150  0.02004  0.36910  Biso   1.000  C
  O15      1.0000 0.73170  0.98586  0.35490  Biso   1.000  O
  C111     1.0000 0.80970  0.91741  0.94660  Biso   1.000  C
  O16      1.0000 0.86780  0.02710  0.41000  Biso   1.000  O
  N18      1.0000 0.37620  0.20685  0.26010  Biso   1.000  N
  C112     1.0000 0.37420  0.15610  0.39830  Biso   1.000  C
  H95      1.0000 0.30270  0.16770  0.40620  Biso   1.000  H
  H96      1.0000 0.36730  0.12690  0.38950  Biso   1.000  H
  H97      1.0000 0.42460  0.16200  0.46070  Biso   1.000  H
  C113     1.0000 0.59630  0.18705  0.10180  Biso   1.000  C
  H98      1.0000 0.65110  0.20770  0.12270  Biso   1.000  H
  H99      1.0000 0.63180  0.16070  0.10040  Biso   1.000  H
  H100     1.0000 0.56000  0.19330  0.03220  Biso   1.000  H
  O17      1.0000 0.79870  0.92561  0.55990  Biso   1.000  O
  O18      1.0000 0.90250  0.97667  0.61250  Biso   1.000  O
  C114     1.0000 0.83440  0.93716  0.73950  Biso   1.000  C
  C115     1.0000 0.84830  0.94743  0.62860  Biso   1.000  C
  C116     1.0000 0.79560  0.95804  0.90850  Biso   1.000  C
  H101     1.0000 0.77550  0.97850  0.95410  Biso   1.000  H
  C117     1.0000 0.82250  0.88868  0.87260  Biso   1.000  C
  H102     1.0000 0.82440  0.86120  0.89300  Biso   1.000  H
  C118     1.0000 0.81070  0.96785  0.80580  Biso   1.000  C
  H103     1.0000 0.80500  0.99490  0.78210  Biso   1.000  H
  C119     1.0000 0.83290  0.89799  0.76920  Biso   1.000  C
  H104     1.0000 0.83890  0.87720  0.71970  Biso   1.000  H
  C120     1.0000 0.91670  0.93130  0.92410  Biso   1.000  C
  H105     1.0000 0.97630  0.93350  0.97710  Biso   1.000  H
  C121     1.0000 0.92650  0.94110  0.82050  Biso   1.000  C
  H106     1.0000 0.99440  0.95060  0.80210  Biso   1.000  H
  C122     1.0000 0.74470  0.92090  0.77290  Biso   1.000  C
  H107     1.0000 0.68220  0.91800  0.72340  Biso   1.000  H
  C123     1.0000 0.73700  0.90820  0.87370  Biso   1.000  C
  H108     1.0000 0.67640  0.89250  0.88840  Biso   1.000  H
  Mn4      1.0000 0.20042  0.43016  0.60195  Biso   1.000  Mn
  C124     1.0000 0.40050  0.55168  0.71120  Biso   1.000  C
  H109     1.0000 0.43000  0.52550  0.72360  Biso   1.000  H
  C125     1.0000 0.46330  0.58447  0.74090  Biso   1.000  C
  H110     1.0000 0.53390  0.58040  0.77690  Biso   1.000  H
  C126     1.0000 0.32200  0.62655  0.67770  Biso   1.000  C
  H111     1.0000 0.29230  0.65270  0.66540  Biso   1.000  H
  C127     1.0000 0.25710  0.59397  0.65210  Biso   1.000  C
  H112     1.0000 0.18320  0.59790  0.62510  Biso   1.000  H
  C128     1.0000 0.49750  0.65925  0.74590  Biso   1.000  C
  C129     1.0000 0.48280  0.68616  0.82450  Biso   1.000  C
  N19      1.0000 0.56400  0.71397  0.81960  Biso   1.000  N
  C130     1.0000 0.58330  0.67377  0.69450  Biso   1.000  C
  C131     1.0000 0.42760  0.62312  0.72030  Biso   1.000  C
  N20      1.0000 0.35930  0.39893  0.62220  Biso   1.000  N
  N21      1.0000 0.19720  0.41006  0.76990  Biso   1.000  N
  N22      1.0000 0.37980  0.36614  0.68450  Biso   1.000  N
  C132     1.0000 0.48820  0.35744  0.69940  Biso   1.000  C
  C133     1.0000 0.53880  0.38597  0.64410  Biso   1.000  C
  C134     1.0000 0.45620  0.41141  0.59860  Biso   1.000  C
  C135     1.0000 0.46400  0.44683  0.52920  Biso   1.000  C
  H113     1.0000 0.45210  0.47150  0.56780  Biso   1.000  H
  H114     1.0000 0.53650  0.44760  0.50520  Biso   1.000  H
  H115     1.0000 0.40860  0.44470  0.46880  Biso   1.000  H
  C136     1.0000 0.53370  0.32273  0.76320  Biso   1.000  C
  H116     1.0000 0.52810  0.29830  0.72050  Biso   1.000  H
  H117     1.0000 0.61030  0.32790  0.78780  Biso   1.000  H
  H118     1.0000 0.49250  0.31920  0.82330  Biso   1.000  H
  C137     1.0000 0.65620  0.39024  0.63430  Biso   1.000  C
  C138     1.0000 0.70650  0.42768  0.65170  Biso   1.000  C
  H119     1.0000 0.66560  0.44980  0.67330  Biso   1.000  H
  C139     1.0000 0.71850  0.35764  0.60710  Biso   1.000  C
  H120     1.0000 0.68630  0.33180  0.59690  Biso   1.000  H
  C140     1.0000 0.28890  0.34861  0.73100  Biso   1.000  C
  H121     1.0000 0.31230  0.32310  0.76620  Biso   1.000  H
  H122     1.0000 0.22910  0.34250  0.67560  Biso   1.000  H
  N23      1.0000 0.25020  0.37583  0.80580  Biso   1.000  N
  C141     1.0000 0.25690  0.37338  0.91140  Biso   1.000  C
  C142     1.0000 0.20490  0.40709  0.94460  Biso   1.000  C
  C143     1.0000 0.16860  0.42879  0.85330  Biso   1.000  C
  C144     1.0000 0.10720  0.46753  0.84300  Biso   1.000  C
  H123     1.0000 0.07260  0.47050  0.77120  Biso   1.000  H
  H124     1.0000 0.05120  0.46760  0.89120  Biso   1.000  H
  H125     1.0000 0.15750  0.49000  0.85990  Biso   1.000  H
  C145     1.0000 0.31290  0.33961  0.97070  Biso   1.000  C
  H126     1.0000 0.38630  0.33640  0.94990  Biso   1.000  H
  H127     1.0000 0.31780  0.34540  0.04560  Biso   1.000  H
  H128     1.0000 0.27150  0.31470  0.95570  Biso   1.000  H
  O19      1.0000 0.02694  0.44352  0.59437  Biso   1.000  O
  O20      1.0000 0.05470  0.37826  0.58240  Biso   1.000  O
  C146     1.0000 0.99200  0.40721  0.59280  Biso   1.000  C
  C147     1.0000 0.87480  0.40090  0.60770  Biso   1.000  C
  C148     1.0000 0.81430  0.43301  0.63800  Biso   1.000  C
  H129     1.0000 0.84720  0.45870  0.64930  Biso   1.000  H
  C149     1.0000 0.82720  0.36311  0.59500  Biso   1.000  C
  H130     1.0000 0.86990  0.34080  0.57780  Biso   1.000  H
  C150     1.0000 0.29740  0.55555  0.66470  Biso   1.000  C
  C151     1.0000 0.22850  0.52004  0.63090  Biso   1.000  C
  O21      1.0000 0.26830  0.48586  0.64510  Biso   1.000  O
  C152     1.0000 0.19030  0.41741  0.05340  Biso   1.000  C
  O22      1.0000 0.13220  0.52710  0.59000  Biso   1.000  O
  N24      1.0000 0.62380  0.70685  0.73990  Biso   1.000  N
  C153     1.0000 0.62580  0.65610  0.60170  Biso   1.000  C
  H131     1.0000 0.69730  0.66770  0.59380  Biso   1.000  H
  H132     1.0000 0.63270  0.62690  0.61050  Biso   1.000  H
  H133     1.0000 0.57540  0.66200  0.53930  Biso   1.000  H
  C154     1.0000 0.40370  0.68705  0.89820  Biso   1.000  C
  H134     1.0000 0.34890  0.70770  0.87730  Biso   1.000  H
  H135     1.0000 0.36820  0.66070  0.89960  Biso   1.000  H
  H136     1.0000 0.44000  0.69330  0.96780  Biso   1.000  H
  O23      1.0000 0.20130  0.42561  0.44010  Biso   1.000  O
  O24      1.0000 0.09750  0.47667  0.38750  Biso   1.000  O
  C155     1.0000 0.16560  0.43716  0.26050  Biso   1.000  C
  C156     1.0000 0.15170  0.44743  0.37140  Biso   1.000  C
  C157     1.0000 0.20440  0.45804  0.09150  Biso   1.000  C
  H137     1.0000 0.22450  0.47850  0.04590  Biso   1.000  H
  C158     1.0000 0.17750  0.38868  0.12740  Biso   1.000  C
  H138     1.0000 0.17560  0.36120  0.10700  Biso   1.000  H
  C159     1.0000 0.18930  0.46785  0.19420  Biso   1.000  C
  H139     1.0000 0.19500  0.49490  0.21790  Biso   1.000  H
  C160     1.0000 0.16710  0.39799  0.23080  Biso   1.000  C
  H140     1.0000 0.16110  0.37720  0.28030  Biso   1.000  H
  C161     1.0000 0.08330  0.43130  0.07590  Biso   1.000  C
  H141     1.0000 0.02370  0.43350  0.02290  Biso   1.000  H
  C162     1.0000 0.07350  0.44110  0.17950  Biso   1.000  C
  H142     1.0000 0.00560  0.45060  0.19790  Biso   1.000  H
  C163     1.0000 0.25530  0.42090  0.22710  Biso   1.000  C
  H143     1.0000 0.31780  0.41800  0.27660  Biso   1.000  H
  C164     1.0000 0.26300  0.40820  0.12630  Biso   1.000  C
  H144     1.0000 0.32360  0.39250  0.11160  Biso   1.000  H
  Mn5      1.0000 0.00000  0.00000  0.50000  Biso   1.000  Mn
  Mn6      1.0000 0.00000  0.50000  0.50000  Biso   1.000  Mn
  Rh1      1.0000 0.72975  0.75000  0.70573  Biso   1.000  Rh
  C165     1.0000 0.58180  0.75000  0.88530  Biso   1.000  C
  H145     1.0000 0.65710  0.75000  0.92090  Biso   1.000  H
  H146     1.0000 0.53090  0.75000  0.93930  Biso   1.000  H
  Rh2      1.0000 0.27025  0.25000  0.29427  Biso   1.000  Rh
  C166     1.0000 0.41820  0.25000  0.11470  Biso   1.000  C
  H147     1.0000 0.34290  0.25000  0.07910  Biso   1.000  H
  H148     1.0000 0.46910  0.25000  0.06070  Biso   1.000  H
