data_image0
_cell_length_a       12.352
_cell_length_b       33.725
_cell_length_c       13.03
_cell_angle_alpha    90
_cell_angle_beta     96.63
_cell_angle_gamma    90

_symmetry_space_group_name_H-M    "P 1"
_symmetry_int_tables_number       1

loop_
  _symmetry_equiv_pos_as_xyz
  'x, y, z'

loop_
  _atom_site_label
  _atom_site_occupancy
  _atom_site_fract_x
  _atom_site_fract_y
  _atom_site_fract_z
  _atom_site_thermal_displace_type
  _atom_site_B_iso_or_equiv
  _atom_site_type_symbol
  Mn1      1.0000 0.70928  0.43455  0.10627  Biso   1.000  Mn
  C1       1.0000 0.79690  0.35593  0.24050  Biso   1.000  C
  H1       1.0000 0.81800  0.33040  0.27440  Biso   1.000  H
  H2       1.0000 0.73750  0.35070  0.18440  Biso   1.000  H
  N1       1.0000 0.71580  0.41798  0.28130  Biso   1.000  N
  N2       1.0000 0.75820  0.38267  0.31510  Biso   1.000  N
  C2       1.0000 0.75490  0.37867  0.41770  Biso   1.000  C
  C3       1.0000 0.70870  0.41221  0.45150  Biso   1.000  C
  C4       1.0000 0.68530  0.43627  0.36320  Biso   1.000  C
  C5       1.0000 0.63080  0.47544  0.35410  Biso   1.000  C
  H3       1.0000 0.68470  0.49610  0.34480  Biso   1.000  H
  H4       1.0000 0.59680  0.48090  0.41690  Biso   1.000  H
  H5       1.0000 0.57480  0.47530  0.29430  Biso   1.000  H
  C6       1.0000 0.79100  0.34120  0.47380  Biso   1.000  C
  H6       1.0000 0.74690  0.31900  0.44420  Biso   1.000  H
  H7       1.0000 0.78160  0.34400  0.54710  Biso   1.000  H
  H8       1.0000 0.86790  0.33630  0.46660  Biso   1.000  H
  C7       1.0000 0.65150  0.44643  0.87710  Biso   1.000  C
  C8       1.0000 0.69060  0.42113  0.55690  Biso   1.000  C
  C9       1.0000 0.77290  0.41670  0.63780  Biso   1.000  C
  H9       1.0000 0.84340  0.40940  0.62200  Biso   1.000  H
  C10      1.0000 0.75840  0.42220  0.73800  Biso   1.000  C
  H10      1.0000 0.81540  0.41550  0.79050  Biso   1.000  H
  C11      1.0000 0.57850  0.44100  0.68850  Biso   1.000  C
  H11      1.0000 0.50950  0.44950  0.70540  Biso   1.000  H
  C12      1.0000 0.59130  0.43270  0.58620  Biso   1.000  C
  H12      1.0000 0.53030  0.43500  0.53500  Biso   1.000  H
  C13      1.0000 0.66290  0.43728  0.76490  Biso   1.000  C
  O1       1.0000 0.71390  0.43005  0.94530  Biso   1.000  O
  O2       1.0000 0.57750  0.46896  0.88970  Biso   1.000  O
  N3       1.0000 0.87070  0.40290  0.12970  Biso   1.000  N
  N4       1.0000 0.88940  0.37259  0.19710  Biso   1.000  N
  C14      1.0000 0.99660  0.36477  0.21890  Biso   1.000  C
  C15      1.0000 0.05030  0.39186  0.16360  Biso   1.000  C
  C16      1.0000 0.96810  0.41504  0.10940  Biso   1.000  C
  C17      1.0000 0.04110  0.33420  0.29230  Biso   1.000  C
  H13      1.0000 0.99250  0.33080  0.34590  Biso   1.000  H
  H14      1.0000 0.11340  0.34240  0.32430  Biso   1.000  H
  H15      1.0000 0.04720  0.30910  0.25560  Biso   1.000  H
  C18      1.0000 0.97900  0.44876  0.03630  Biso   1.000  C
  H16      1.0000 0.91170  0.45130  0.98900  Biso   1.000  H
  H17      1.0000 0.04020  0.44360  0.99660  Biso   1.000  H
  H18      1.0000 0.99220  0.47340  0.07560  Biso   1.000  H
  C19      1.0000 0.16940  0.39605  0.15960  Biso   1.000  C
  C20      1.0000 0.23380  0.36390  0.13670  Biso   1.000  C
  H19      1.0000 0.20300  0.33810  0.12930  Biso   1.000  H
  C21      1.0000 0.34280  0.36966  0.12480  Biso   1.000  C
  H20      1.0000 0.38580  0.34760  0.10900  Biso   1.000  H
  C22      1.0000 0.38950  0.40626  0.13540  Biso   1.000  C
  C23      1.0000 0.32790  0.43798  0.16190  Biso   1.000  C
  H21      1.0000 0.36040  0.46340  0.17310  Biso   1.000  H
  C24      1.0000 0.21720  0.43264  0.17230  Biso   1.000  C
  H22      1.0000 0.17450  0.45480  0.18830  Biso   1.000  H
  C25      1.0000 0.50460  0.41324  0.11540  Biso   1.000  C
  O3       1.0000 0.53770  0.44928  0.11000  Biso   1.000  O
  O4       1.0000 0.56720  0.38480  0.10540  Biso   1.000  O
  N5       1.0000 0.12080  0.70858  0.22140  Biso   1.000  N
  N6       1.0000 0.06860  0.71495  0.30670  Biso   1.000  N
  C26      1.0000 0.98820  0.68818  0.31410  Biso   1.000  C
  C27      1.0000 0.99020  0.66227  0.23100  Biso   1.000  C
  C28      1.0000 0.07410  0.67611  0.17610  Biso   1.000  C
  C29      1.0000 0.10710  0.65980  0.07620  Biso   1.000  C
  H23      1.0000 0.06080  0.67140  0.01770  Biso   1.000  H
  H24      1.0000 0.09850  0.63090  0.07510  Biso   1.000  H
  H25      1.0000 0.18350  0.66660  0.07090  Biso   1.000  H
  C30      1.0000 0.91240  0.68910  0.39340  Biso   1.000  C
  H26      1.0000 0.95330  0.68540  0.46180  Biso   1.000  H
  H27      1.0000 0.85880  0.66780  0.38030  Biso   1.000  H
  H28      1.0000 0.87480  0.71470  0.39100  Biso   1.000  H
  C31      1.0000 0.92090  0.62717  0.20740  Biso   1.000  C
  C32      1.0000 0.82380  0.62957  0.14850  Biso   1.000  C
  H29      1.0000 0.79820  0.65480  0.12410  Biso   1.000  H
  C33      1.0000 0.76000  0.59629  0.12240  Biso   1.000  C
  H30      1.0000 0.69120  0.59920  0.08240  Biso   1.000  H
  C34      1.0000 0.79580  0.55966  0.15380  Biso   1.000  C
  C35      1.0000 0.89210  0.55737  0.21410  Biso   1.000  C
  H31      1.0000 0.91820  0.53230  0.23900  Biso   1.000  H
  C36      1.0000 0.95210  0.59038  0.23980  Biso   1.000  C
  H32      1.0000 0.01920  0.58750  0.28270  Biso   1.000  H
  C37      1.0000 0.73090  0.52336  0.11880  Biso   1.000  C
  O5       1.0000 0.64250  0.52818  0.06700  Biso   1.000  O
  O6       1.0000 0.77340  0.49076  0.14320  Biso   1.000  O
  C38      1.0000 0.33070  0.71150  0.15140  Biso   1.000  C
  O7       1.0000 0.39490  0.68840  0.13780  Biso   1.000  O
  C39      1.0000 0.69720  0.42107  0.56350  Biso   1.000  C
  C40      1.0000 0.65470  0.39212  0.62330  Biso   1.000  C
  H33      1.0000 0.62620  0.36830  0.59210  Biso   1.000  H
  C41      1.0000 0.65370  0.39806  0.72880  Biso   1.000  C
  H34      1.0000 0.62460  0.37830  0.76960  Biso   1.000  H
  C42      1.0000 0.69540  0.43295  0.77440  Biso   1.000  C
  C43      1.0000 0.73790  0.46190  0.71460  Biso   1.000  C
  H35      1.0000 0.76640  0.48570  0.74580  Biso   1.000  H
  C44      1.0000 0.73890  0.45600  0.60910  Biso   1.000  C
  H36      1.0000 0.76800  0.47570  0.56820  Biso   1.000  H
  Mn2      1.0000 0.29072  0.93455  0.89373  Biso   1.000  Mn
  C45      1.0000 0.20310  0.85593  0.75950  Biso   1.000  C
  H37      1.0000 0.18200  0.83040  0.72560  Biso   1.000  H
  H38      1.0000 0.26250  0.85070  0.81560  Biso   1.000  H
  N7       1.0000 0.28420  0.91798  0.71870  Biso   1.000  N
  N8       1.0000 0.24180  0.88267  0.68490  Biso   1.000  N
  C46      1.0000 0.24510  0.87867  0.58230  Biso   1.000  C
  C47      1.0000 0.29130  0.91221  0.54850  Biso   1.000  C
  C48      1.0000 0.31470  0.93627  0.63680  Biso   1.000  C
  C49      1.0000 0.36920  0.97544  0.64590  Biso   1.000  C
  H39      1.0000 0.31530  0.99610  0.65520  Biso   1.000  H
  H40      1.0000 0.40320  0.98090  0.58310  Biso   1.000  H
  H41      1.0000 0.42520  0.97530  0.70570  Biso   1.000  H
  C50      1.0000 0.20900  0.84120  0.52620  Biso   1.000  C
  H42      1.0000 0.25310  0.81900  0.55580  Biso   1.000  H
  H43      1.0000 0.21840  0.84400  0.45290  Biso   1.000  H
  H44      1.0000 0.13210  0.83630  0.53340  Biso   1.000  H
  C51      1.0000 0.34850  0.94643  0.12290  Biso   1.000  C
  C52      1.0000 0.30940  0.92113  0.44310  Biso   1.000  C
  C53      1.0000 0.22710  0.91670  0.36220  Biso   1.000  C
  H45      1.0000 0.15660  0.90940  0.37800  Biso   1.000  H
  C54      1.0000 0.24160  0.92220  0.26200  Biso   1.000  C
  H46      1.0000 0.18460  0.91550  0.20950  Biso   1.000  H
  C55      1.0000 0.42150  0.94100  0.31150  Biso   1.000  C
  H47      1.0000 0.49050  0.94950  0.29460  Biso   1.000  H
  C56      1.0000 0.40870  0.93270  0.41380  Biso   1.000  C
  H48      1.0000 0.46970  0.93500  0.46500  Biso   1.000  H
  C57      1.0000 0.33710  0.93728  0.23510  Biso   1.000  C
  O8       1.0000 0.28610  0.93005  0.05470  Biso   1.000  O
  O9       1.0000 0.42250  0.96896  0.11030  Biso   1.000  O
  N9       1.0000 0.12930  0.90290  0.87030  Biso   1.000  N
  N10      1.0000 0.11060  0.87259  0.80290  Biso   1.000  N
  C58      1.0000 0.00340  0.86477  0.78110  Biso   1.000  C
  C59      1.0000 0.94970  0.89186  0.83640  Biso   1.000  C
  C60      1.0000 0.03190  0.91504  0.89060  Biso   1.000  C
  C61      1.0000 0.95890  0.83420  0.70770  Biso   1.000  C
  H49      1.0000 0.00750  0.83080  0.65410  Biso   1.000  H
  H50      1.0000 0.88660  0.84240  0.67570  Biso   1.000  H
  H51      1.0000 0.95280  0.80910  0.74440  Biso   1.000  H
  C62      1.0000 0.02100  0.94876  0.96370  Biso   1.000  C
  H52      1.0000 0.08830  0.95130  0.01100  Biso   1.000  H
  H53      1.0000 0.95980  0.94360  0.00340  Biso   1.000  H
  H54      1.0000 0.00780  0.97340  0.92440  Biso   1.000  H
  C63      1.0000 0.83060  0.89605  0.84040  Biso   1.000  C
  C64      1.0000 0.76620  0.86390  0.86330  Biso   1.000  C
  H55      1.0000 0.79700  0.83810  0.87070  Biso   1.000  H
  C65      1.0000 0.65720  0.86966  0.87520  Biso   1.000  C
  H56      1.0000 0.61420  0.84760  0.89100  Biso   1.000  H
  C66      1.0000 0.61050  0.90626  0.86460  Biso   1.000  C
  C67      1.0000 0.67210  0.93798  0.83810  Biso   1.000  C
  H57      1.0000 0.63960  0.96340  0.82690  Biso   1.000  H
  C68      1.0000 0.78280  0.93264  0.82770  Biso   1.000  C
  H58      1.0000 0.82550  0.95480  0.81170  Biso   1.000  H
  C69      1.0000 0.49540  0.91324  0.88460  Biso   1.000  C
  O10      1.0000 0.46230  0.94928  0.89000  Biso   1.000  O
  O11      1.0000 0.43280  0.88480  0.89460  Biso   1.000  O
  N11      1.0000 0.87920  0.20858  0.77860  Biso   1.000  N
  N12      1.0000 0.93140  0.21495  0.69330  Biso   1.000  N
  C70      1.0000 0.01180  0.18818  0.68590  Biso   1.000  C
  C71      1.0000 0.00980  0.16227  0.76900  Biso   1.000  C
  C72      1.0000 0.92590  0.17611  0.82390  Biso   1.000  C
  C73      1.0000 0.89290  0.15980  0.92380  Biso   1.000  C
  H59      1.0000 0.93920  0.17140  0.98230  Biso   1.000  H
  H60      1.0000 0.90150  0.13090  0.92490  Biso   1.000  H
  H61      1.0000 0.81650  0.16660  0.92910  Biso   1.000  H
  C74      1.0000 0.08760  0.18910  0.60660  Biso   1.000  C
  H62      1.0000 0.04670  0.18540  0.53820  Biso   1.000  H
  H63      1.0000 0.14120  0.16780  0.61970  Biso   1.000  H
  H64      1.0000 0.12520  0.21470  0.60900  Biso   1.000  H
  C75      1.0000 0.07910  0.12717  0.79260  Biso   1.000  C
  C76      1.0000 0.17620  0.12957  0.85150  Biso   1.000  C
  H65      1.0000 0.20180  0.15480  0.87590  Biso   1.000  H
  C77      1.0000 0.24000  0.09629  0.87760  Biso   1.000  C
  H66      1.0000 0.30880  0.09920  0.91760  Biso   1.000  H
  C78      1.0000 0.20420  0.05966  0.84620  Biso   1.000  C
  C79      1.0000 0.10790  0.05737  0.78590  Biso   1.000  C
  H67      1.0000 0.08180  0.03230  0.76100  Biso   1.000  H
  C80      1.0000 0.04790  0.09038  0.76020  Biso   1.000  C
  H68      1.0000 0.98080  0.08750  0.71730  Biso   1.000  H
  C81      1.0000 0.26910  0.02336  0.88120  Biso   1.000  C
  O12      1.0000 0.35750  0.02818  0.93300  Biso   1.000  O
  O13      1.0000 0.22660  0.99076  0.85680  Biso   1.000  O
  C82      1.0000 0.66930  0.21150  0.84860  Biso   1.000  C
  O14      1.0000 0.60510  0.18840  0.86220  Biso   1.000  O
  C83      1.0000 0.30280  0.92107  0.43650  Biso   1.000  C
  C84      1.0000 0.34530  0.89212  0.37670  Biso   1.000  C
  H69      1.0000 0.37380  0.86830  0.40790  Biso   1.000  H
  C85      1.0000 0.34630  0.89806  0.27120  Biso   1.000  C
  H70      1.0000 0.37540  0.87830  0.23040  Biso   1.000  H
  C86      1.0000 0.30460  0.93295  0.22560  Biso   1.000  C
  C87      1.0000 0.26210  0.96190  0.28540  Biso   1.000  C
  H71      1.0000 0.23360  0.98570  0.25420  Biso   1.000  H
  C88      1.0000 0.26110  0.95600  0.39090  Biso   1.000  C
  H72      1.0000 0.23200  0.97570  0.43180  Biso   1.000  H
  Mn3      1.0000 0.29072  0.56545  0.89373  Biso   1.000  Mn
  C89      1.0000 0.20310  0.64407  0.75950  Biso   1.000  C
  H73      1.0000 0.18200  0.66960  0.72560  Biso   1.000  H
  H74      1.0000 0.26250  0.64930  0.81560  Biso   1.000  H
  N13      1.0000 0.28420  0.58202  0.71870  Biso   1.000  N
  N14      1.0000 0.24180  0.61733  0.68490  Biso   1.000  N
  C90      1.0000 0.24510  0.62133  0.58230  Biso   1.000  C
  C91      1.0000 0.29130  0.58779  0.54850  Biso   1.000  C
  C92      1.0000 0.31470  0.56373  0.63680  Biso   1.000  C
  C93      1.0000 0.36920  0.52456  0.64590  Biso   1.000  C
  H75      1.0000 0.31530  0.50390  0.65520  Biso   1.000  H
  H76      1.0000 0.40320  0.51910  0.58310  Biso   1.000  H
  H77      1.0000 0.42520  0.52470  0.70570  Biso   1.000  H
  C94      1.0000 0.20900  0.65880  0.52620  Biso   1.000  C
  H78      1.0000 0.25310  0.68100  0.55580  Biso   1.000  H
  H79      1.0000 0.21840  0.65600  0.45290  Biso   1.000  H
  H80      1.0000 0.13210  0.66370  0.53340  Biso   1.000  H
  C95      1.0000 0.34850  0.55357  0.12290  Biso   1.000  C
  C96      1.0000 0.30940  0.57887  0.44310  Biso   1.000  C
  C97      1.0000 0.22710  0.58330  0.36220  Biso   1.000  C
  H81      1.0000 0.15660  0.59060  0.37800  Biso   1.000  H
  C98      1.0000 0.24160  0.57780  0.26200  Biso   1.000  C
  H82      1.0000 0.18460  0.58450  0.20950  Biso   1.000  H
  C99      1.0000 0.42150  0.55900  0.31150  Biso   1.000  C
  H83      1.0000 0.49050  0.55050  0.29460  Biso   1.000  H
  C100     1.0000 0.40870  0.56730  0.41380  Biso   1.000  C
  H84      1.0000 0.46970  0.56500  0.46500  Biso   1.000  H
  C101     1.0000 0.33710  0.56272  0.23510  Biso   1.000  C
  O15      1.0000 0.28610  0.56995  0.05470  Biso   1.000  O
  O16      1.0000 0.42250  0.53104  0.11030  Biso   1.000  O
  N15      1.0000 0.12930  0.59710  0.87030  Biso   1.000  N
  N16      1.0000 0.11060  0.62741  0.80290  Biso   1.000  N
  C102     1.0000 0.00340  0.63523  0.78110  Biso   1.000  C
  C103     1.0000 0.94970  0.60814  0.83640  Biso   1.000  C
  C104     1.0000 0.03190  0.58496  0.89060  Biso   1.000  C
  C105     1.0000 0.95890  0.66580  0.70770  Biso   1.000  C
  H85      1.0000 0.00750  0.66920  0.65410  Biso   1.000  H
  H86      1.0000 0.88660  0.65760  0.67570  Biso   1.000  H
  H87      1.0000 0.95280  0.69090  0.74440  Biso   1.000  H
  C106     1.0000 0.02100  0.55124  0.96370  Biso   1.000  C
  H88      1.0000 0.08830  0.54870  0.01100  Biso   1.000  H
  H89      1.0000 0.95980  0.55640  0.00340  Biso   1.000  H
  H90      1.0000 0.00780  0.52660  0.92440  Biso   1.000  H
  C107     1.0000 0.83060  0.60395  0.84040  Biso   1.000  C
  C108     1.0000 0.76620  0.63610  0.86330  Biso   1.000  C
  H91      1.0000 0.79700  0.66190  0.87070  Biso   1.000  H
  C109     1.0000 0.65720  0.63034  0.87520  Biso   1.000  C
  H92      1.0000 0.61420  0.65240  0.89100  Biso   1.000  H
  C110     1.0000 0.61050  0.59374  0.86460  Biso   1.000  C
  C111     1.0000 0.67210  0.56202  0.83810  Biso   1.000  C
  H93      1.0000 0.63960  0.53660  0.82690  Biso   1.000  H
  C112     1.0000 0.78280  0.56736  0.82770  Biso   1.000  C
  H94      1.0000 0.82550  0.54520  0.81170  Biso   1.000  H
  C113     1.0000 0.49540  0.58676  0.88460  Biso   1.000  C
  O17      1.0000 0.46230  0.55072  0.89000  Biso   1.000  O
  O18      1.0000 0.43280  0.61520  0.89460  Biso   1.000  O
  N17      1.0000 0.87920  0.29142  0.77860  Biso   1.000  N
  N18      1.0000 0.93140  0.28505  0.69330  Biso   1.000  N
  C114     1.0000 0.01180  0.31182  0.68590  Biso   1.000  C
  C115     1.0000 0.00980  0.33773  0.76900  Biso   1.000  C
  C116     1.0000 0.92590  0.32389  0.82390  Biso   1.000  C
  C117     1.0000 0.89290  0.34020  0.92380  Biso   1.000  C
  H95      1.0000 0.93920  0.32860  0.98230  Biso   1.000  H
  H96      1.0000 0.90150  0.36910  0.92490  Biso   1.000  H
  H97      1.0000 0.81650  0.33340  0.92910  Biso   1.000  H
  C118     1.0000 0.08760  0.31090  0.60660  Biso   1.000  C
  H98      1.0000 0.04670  0.31460  0.53820  Biso   1.000  H
  H99      1.0000 0.14120  0.33220  0.61970  Biso   1.000  H
  H100     1.0000 0.12520  0.28530  0.60900  Biso   1.000  H
  C119     1.0000 0.07910  0.37283  0.79260  Biso   1.000  C
  C120     1.0000 0.17620  0.37043  0.85150  Biso   1.000  C
  H101     1.0000 0.20180  0.34520  0.87590  Biso   1.000  H
  C121     1.0000 0.24000  0.40371  0.87760  Biso   1.000  C
  H102     1.0000 0.30880  0.40080  0.91760  Biso   1.000  H
  C122     1.0000 0.20420  0.44034  0.84620  Biso   1.000  C
  C123     1.0000 0.10790  0.44263  0.78590  Biso   1.000  C
  H103     1.0000 0.08180  0.46770  0.76100  Biso   1.000  H
  C124     1.0000 0.04790  0.40962  0.76020  Biso   1.000  C
  H104     1.0000 0.98080  0.41250  0.71730  Biso   1.000  H
  C125     1.0000 0.26910  0.47664  0.88120  Biso   1.000  C
  O19      1.0000 0.35750  0.47182  0.93300  Biso   1.000  O
  O20      1.0000 0.22660  0.50924  0.85680  Biso   1.000  O
  C126     1.0000 0.66930  0.28850  0.84860  Biso   1.000  C
  O21      1.0000 0.60510  0.31160  0.86220  Biso   1.000  O
  C127     1.0000 0.30280  0.57893  0.43650  Biso   1.000  C
  C128     1.0000 0.34530  0.60788  0.37670  Biso   1.000  C
  H105     1.0000 0.37380  0.63170  0.40790  Biso   1.000  H
  C129     1.0000 0.34630  0.60194  0.27120  Biso   1.000  C
  H106     1.0000 0.37540  0.62170  0.23040  Biso   1.000  H
  C130     1.0000 0.30460  0.56705  0.22560  Biso   1.000  C
  C131     1.0000 0.26210  0.53810  0.28540  Biso   1.000  C
  H107     1.0000 0.23360  0.51430  0.25420  Biso   1.000  H
  C132     1.0000 0.26110  0.54400  0.39090  Biso   1.000  C
  H108     1.0000 0.23200  0.52430  0.43180  Biso   1.000  H
  Mn4      1.0000 0.70928  0.06545  0.10627  Biso   1.000  Mn
  C133     1.0000 0.79690  0.14407  0.24050  Biso   1.000  C
  H109     1.0000 0.81800  0.16960  0.27440  Biso   1.000  H
  H110     1.0000 0.73750  0.14930  0.18440  Biso   1.000  H
  N19      1.0000 0.71580  0.08202  0.28130  Biso   1.000  N
  N20      1.0000 0.75820  0.11733  0.31510  Biso   1.000  N
  C134     1.0000 0.75490  0.12133  0.41770  Biso   1.000  C
  C135     1.0000 0.70870  0.08779  0.45150  Biso   1.000  C
  C136     1.0000 0.68530  0.06373  0.36320  Biso   1.000  C
  C137     1.0000 0.63080  0.02456  0.35410  Biso   1.000  C
  H111     1.0000 0.68470  0.00390  0.34480  Biso   1.000  H
  H112     1.0000 0.59680  0.01910  0.41690  Biso   1.000  H
  H113     1.0000 0.57480  0.02470  0.29430  Biso   1.000  H
  C138     1.0000 0.79100  0.15880  0.47380  Biso   1.000  C
  H114     1.0000 0.74690  0.18100  0.44420  Biso   1.000  H
  H115     1.0000 0.78160  0.15600  0.54710  Biso   1.000  H
  H116     1.0000 0.86790  0.16370  0.46660  Biso   1.000  H
  C139     1.0000 0.65150  0.05357  0.87710  Biso   1.000  C
  C140     1.0000 0.69060  0.07887  0.55690  Biso   1.000  C
  C141     1.0000 0.77290  0.08330  0.63780  Biso   1.000  C
  H117     1.0000 0.84340  0.09060  0.62200  Biso   1.000  H
  C142     1.0000 0.75840  0.07780  0.73800  Biso   1.000  C
  H118     1.0000 0.81540  0.08450  0.79050  Biso   1.000  H
  C143     1.0000 0.57850  0.05900  0.68850  Biso   1.000  C
  H119     1.0000 0.50950  0.05050  0.70540  Biso   1.000  H
  C144     1.0000 0.59130  0.06730  0.58620  Biso   1.000  C
  H120     1.0000 0.53030  0.06500  0.53500  Biso   1.000  H
  C145     1.0000 0.66290  0.06272  0.76490  Biso   1.000  C
  O22      1.0000 0.71390  0.06995  0.94530  Biso   1.000  O
  O23      1.0000 0.57750  0.03104  0.88970  Biso   1.000  O
  N21      1.0000 0.87070  0.09710  0.12970  Biso   1.000  N
  N22      1.0000 0.88940  0.12741  0.19710  Biso   1.000  N
  C146     1.0000 0.99660  0.13523  0.21890  Biso   1.000  C
  C147     1.0000 0.05030  0.10814  0.16360  Biso   1.000  C
  C148     1.0000 0.96810  0.08496  0.10940  Biso   1.000  C
  C149     1.0000 0.04110  0.16580  0.29230  Biso   1.000  C
  H121     1.0000 0.99250  0.16920  0.34590  Biso   1.000  H
  H122     1.0000 0.11340  0.15760  0.32430  Biso   1.000  H
  H123     1.0000 0.04720  0.19090  0.25560  Biso   1.000  H
  C150     1.0000 0.97900  0.05124  0.03630  Biso   1.000  C
  H124     1.0000 0.91170  0.04870  0.98900  Biso   1.000  H
  H125     1.0000 0.04020  0.05640  0.99660  Biso   1.000  H
  H126     1.0000 0.99220  0.02660  0.07560  Biso   1.000  H
  C151     1.0000 0.16940  0.10395  0.15960  Biso   1.000  C
  C152     1.0000 0.23380  0.13610  0.13670  Biso   1.000  C
  H127     1.0000 0.20300  0.16190  0.12930  Biso   1.000  H
  C153     1.0000 0.34280  0.13034  0.12480  Biso   1.000  C
  H128     1.0000 0.38580  0.15240  0.10900  Biso   1.000  H
  C154     1.0000 0.38950  0.09374  0.13540  Biso   1.000  C
  C155     1.0000 0.32790  0.06202  0.16190  Biso   1.000  C
  H129     1.0000 0.36040  0.03660  0.17310  Biso   1.000  H
  C156     1.0000 0.21720  0.06736  0.17230  Biso   1.000  C
  H130     1.0000 0.17450  0.04520  0.18830  Biso   1.000  H
  C157     1.0000 0.50460  0.08676  0.11540  Biso   1.000  C
  O24      1.0000 0.53770  0.05072  0.11000  Biso   1.000  O
  O25      1.0000 0.56720  0.11520  0.10540  Biso   1.000  O
  N23      1.0000 0.12080  0.79142  0.22140  Biso   1.000  N
  N24      1.0000 0.06860  0.78505  0.30670  Biso   1.000  N
  C158     1.0000 0.98820  0.81182  0.31410  Biso   1.000  C
  C159     1.0000 0.99020  0.83773  0.23100  Biso   1.000  C
  C160     1.0000 0.07410  0.82389  0.17610  Biso   1.000  C
  C161     1.0000 0.10710  0.84020  0.07620  Biso   1.000  C
  H131     1.0000 0.06080  0.82860  0.01770  Biso   1.000  H
  H132     1.0000 0.09850  0.86910  0.07510  Biso   1.000  H
  H133     1.0000 0.18350  0.83340  0.07090  Biso   1.000  H
  C162     1.0000 0.91240  0.81090  0.39340  Biso   1.000  C
  H134     1.0000 0.95330  0.81460  0.46180  Biso   1.000  H
  H135     1.0000 0.85880  0.83220  0.38030  Biso   1.000  H
  H136     1.0000 0.87480  0.78530  0.39100  Biso   1.000  H
  C163     1.0000 0.92090  0.87283  0.20740  Biso   1.000  C
  C164     1.0000 0.82380  0.87043  0.14850  Biso   1.000  C
  H137     1.0000 0.79820  0.84520  0.12410  Biso   1.000  H
  C165     1.0000 0.76000  0.90371  0.12240  Biso   1.000  C
  H138     1.0000 0.69120  0.90080  0.08240  Biso   1.000  H
  C166     1.0000 0.79580  0.94034  0.15380  Biso   1.000  C
  C167     1.0000 0.89210  0.94263  0.21410  Biso   1.000  C
  H139     1.0000 0.91820  0.96770  0.23900  Biso   1.000  H
  C168     1.0000 0.95210  0.90962  0.23980  Biso   1.000  C
  H140     1.0000 0.01920  0.91250  0.28270  Biso   1.000  H
  C169     1.0000 0.73090  0.97664  0.11880  Biso   1.000  C
  O26      1.0000 0.64250  0.97182  0.06700  Biso   1.000  O
  O27      1.0000 0.77340  0.00924  0.14320  Biso   1.000  O
  C170     1.0000 0.33070  0.78850  0.15140  Biso   1.000  C
  O28      1.0000 0.39490  0.81160  0.13780  Biso   1.000  O
  C171     1.0000 0.69720  0.07893  0.56350  Biso   1.000  C
  C172     1.0000 0.65470  0.10788  0.62330  Biso   1.000  C
  H141     1.0000 0.62620  0.13170  0.59210  Biso   1.000  H
  C173     1.0000 0.65370  0.10194  0.72880  Biso   1.000  C
  H142     1.0000 0.62460  0.12170  0.76960  Biso   1.000  H
  C174     1.0000 0.69540  0.06705  0.77440  Biso   1.000  C
  C175     1.0000 0.73790  0.03810  0.71460  Biso   1.000  C
  H143     1.0000 0.76640  0.01430  0.74580  Biso   1.000  H
  C176     1.0000 0.73890  0.04400  0.60910  Biso   1.000  C
  H144     1.0000 0.76800  0.02430  0.56820  Biso   1.000  H
  Rh1      1.0000 0.23321  0.75000  0.18148  Biso   1.000  Rh
  C177     1.0000 0.10060  0.75000  0.36610  Biso   1.000  C
  H145     1.0000 0.18050  0.75000  0.38500  Biso   1.000  H
  H146     1.0000 0.06540  0.75000  0.43060  Biso   1.000  H
  Rh2      1.0000 0.76679  0.25000  0.81852  Biso   1.000  Rh
  C178     1.0000 0.89940  0.25000  0.63390  Biso   1.000  C
  H147     1.0000 0.81950  0.25000  0.61500  Biso   1.000  H
  H148     1.0000 0.93460  0.25000  0.56940  Biso   1.000  H
  Mn5      1.0000 0.50000  0.50000  0.00000  Biso   1.000  Mn
  Mn6      1.0000 0.50000  0.00000  0.00000  Biso   1.000  Mn
