data_image0
_cell_length_a       24.148
_cell_length_b       15.173
_cell_length_c       15.497
_cell_angle_alpha    90
_cell_angle_beta     118.979
_cell_angle_gamma    90

_symmetry_space_group_name_H-M    "P 1"
_symmetry_int_tables_number       1

loop_
  _symmetry_equiv_pos_as_xyz
  'x, y, z'

loop_
  _atom_site_label
  _atom_site_occupancy
  _atom_site_fract_x
  _atom_site_fract_y
  _atom_site_fract_z
  _atom_site_thermal_displace_type
  _atom_site_B_iso_or_equiv
  _atom_site_type_symbol
  Cu1      1.0000 0.23574  0.14314  0.45470  Biso   1.000  Cu
  Cu2      1.0000 0.31542  0.23144  0.32811  Biso   1.000  Cu
  Cu3      1.0000 0.56792  0.38922  0.51369  Biso   1.000  Cu
  N1       1.0000 0.42210  0.20740  0.63590  Biso   1.000  N
  N2       1.0000 0.32170  0.18140  0.52690  Biso   1.000  N
  N3       1.0000 0.35020  0.21720  0.47890  Biso   1.000  N
  N4       1.0000 0.39140  0.28460  0.34300  Biso   1.000  N
  N5       1.0000 0.48580  0.34680  0.41700  Biso   1.000  N
  N6       1.0000 0.46020  0.36150  0.31620  Biso   1.000  N
  N7       1.0000 0.57260  0.50260  0.35950  Biso   1.000  N
  N8       1.0000 0.59940  0.48730  0.46270  Biso   1.000  N
  N9       1.0000 0.66060  0.58090  0.43680  Biso   1.000  N
  N10      1.0000 0.63560  0.64700  0.14260  Biso   1.000  N
  N11      1.0000 0.73110  0.69030  0.25650  Biso   1.000  N
  N12      1.0000 0.70130  0.65400  0.30380  Biso   1.000  N
  C1       1.0000 0.35620  0.13760  0.70360  Biso   1.000  C
  H1       1.0000 0.31070  0.13360  0.68050  Biso   1.000  H
  H2       1.0000 0.37610  0.17520  0.76240  Biso   1.000  H
  H3       1.0000 0.37500  0.07860  0.72000  Biso   1.000  H
  C2       1.0000 0.36710  0.17730  0.62280  Biso   1.000  C
  C3       1.0000 0.40950  0.23270  0.54490  Biso   1.000  C
  C4       1.0000 0.45780  0.27900  0.53040  Biso   1.000  C
  H4       1.0000 0.49620  0.24220  0.55820  Biso   1.000  H
  H5       1.0000 0.46880  0.33410  0.57010  Biso   1.000  H
  C5       1.0000 0.44250  0.30400  0.42870  Biso   1.000  C
  C6       1.0000 0.40510  0.32430  0.27760  Biso   1.000  C
  C7       1.0000 0.36040  0.32270  0.16820  Biso   1.000  C
  H6       1.0000 0.32060  0.35140  0.15410  Biso   1.000  H
  H7       1.0000 0.35210  0.26140  0.14530  Biso   1.000  H
  H8       1.0000 0.37960  0.35410  0.13390  Biso   1.000  H
  C8       1.0000 0.69230  0.54120  0.61310  Biso   1.000  C
  H9       1.0000 0.67100  0.51400  0.64650  Biso   1.000  H
  H10      1.0000 0.70090  0.60340  0.63220  Biso   1.000  H
  H11      1.0000 0.73230  0.51050  0.63200  Biso   1.000  H
  C9       1.0000 0.65050  0.53480  0.50360  Biso   1.000  C
  C10      1.0000 0.60980  0.55660  0.34860  Biso   1.000  C
  C11      1.0000 0.59480  0.59060  0.24800  Biso   1.000  C
  H12      1.0000 0.57660  0.54100  0.20090  Biso   1.000  H
  H13      1.0000 0.56110  0.63550  0.22860  Biso   1.000  H
  C12      1.0000 0.64470  0.62880  0.23400  Biso   1.000  C
  C13      1.0000 0.68960  0.68570  0.15930  Biso   1.000  C
  C14      1.0000 0.70280  0.71580  0.08070  Biso   1.000  C
  H14      1.0000 0.71960  0.66660  0.05940  Biso   1.000  H
  H15      1.0000 0.73400  0.76360  0.10580  Biso   1.000  H
  H16      1.0000 0.66360  0.73720  0.02460  Biso   1.000  H
  O1       1.0000 0.51400  0.28100  0.58600  Biso   1.000  O
  Cu4      1.0000 0.73574  0.64314  0.45470  Biso   1.000  Cu
  Cu5      1.0000 0.81542  0.73144  0.32811  Biso   1.000  Cu
  Cu6      1.0000 0.06792  0.88922  0.51369  Biso   1.000  Cu
  N13      1.0000 0.92210  0.70740  0.63590  Biso   1.000  N
  N14      1.0000 0.82170  0.68140  0.52690  Biso   1.000  N
  N15      1.0000 0.85020  0.71720  0.47890  Biso   1.000  N
  N16      1.0000 0.89140  0.78460  0.34300  Biso   1.000  N
  N17      1.0000 0.98580  0.84680  0.41700  Biso   1.000  N
  N18      1.0000 0.96020  0.86150  0.31620  Biso   1.000  N
  N19      1.0000 0.07260  0.00260  0.35950  Biso   1.000  N
  N20      1.0000 0.09940  0.98730  0.46270  Biso   1.000  N
  N21      1.0000 0.16060  0.08090  0.43680  Biso   1.000  N
  N22      1.0000 0.13560  0.14700  0.14260  Biso   1.000  N
  N23      1.0000 0.23110  0.19030  0.25650  Biso   1.000  N
  N24      1.0000 0.20130  0.15400  0.30380  Biso   1.000  N
  C15      1.0000 0.85620  0.63760  0.70360  Biso   1.000  C
  H17      1.0000 0.81070  0.63360  0.68050  Biso   1.000  H
  H18      1.0000 0.87610  0.67520  0.76240  Biso   1.000  H
  H19      1.0000 0.87500  0.57860  0.72000  Biso   1.000  H
  C16      1.0000 0.86710  0.67730  0.62280  Biso   1.000  C
  C17      1.0000 0.90950  0.73270  0.54490  Biso   1.000  C
  C18      1.0000 0.95780  0.77900  0.53040  Biso   1.000  C
  H20      1.0000 0.99620  0.74220  0.55820  Biso   1.000  H
  H21      1.0000 0.96880  0.83410  0.57010  Biso   1.000  H
  C19      1.0000 0.94250  0.80400  0.42870  Biso   1.000  C
  C20      1.0000 0.90510  0.82430  0.27760  Biso   1.000  C
  C21      1.0000 0.86040  0.82270  0.16820  Biso   1.000  C
  H22      1.0000 0.82060  0.85140  0.15410  Biso   1.000  H
  H23      1.0000 0.85210  0.76140  0.14530  Biso   1.000  H
  H24      1.0000 0.87960  0.85410  0.13390  Biso   1.000  H
  C22      1.0000 0.19230  0.04120  0.61310  Biso   1.000  C
  H25      1.0000 0.17100  0.01400  0.64650  Biso   1.000  H
  H26      1.0000 0.20090  0.10340  0.63220  Biso   1.000  H
  H27      1.0000 0.23230  0.01050  0.63200  Biso   1.000  H
  C23      1.0000 0.15050  0.03480  0.50360  Biso   1.000  C
  C24      1.0000 0.10980  0.05660  0.34860  Biso   1.000  C
  C25      1.0000 0.09480  0.09060  0.24800  Biso   1.000  C
  H28      1.0000 0.07660  0.04100  0.20090  Biso   1.000  H
  H29      1.0000 0.06110  0.13550  0.22860  Biso   1.000  H
  C26      1.0000 0.14470  0.12880  0.23400  Biso   1.000  C
  C27      1.0000 0.18960  0.18570  0.15930  Biso   1.000  C
  C28      1.0000 0.20280  0.21580  0.08070  Biso   1.000  C
  H30      1.0000 0.21960  0.16660  0.05940  Biso   1.000  H
  H31      1.0000 0.23400  0.26360  0.10580  Biso   1.000  H
  H32      1.0000 0.16360  0.23720  0.02460  Biso   1.000  H
  O2       1.0000 0.01400  0.78100  0.58600  Biso   1.000  O
  Cu7      1.0000 0.76426  0.14314  0.04530  Biso   1.000  Cu
  Cu8      1.0000 0.68458  0.23144  0.17189  Biso   1.000  Cu
  Cu9      1.0000 0.43208  0.38922  0.98631  Biso   1.000  Cu
  N25      1.0000 0.57790  0.20740  0.86410  Biso   1.000  N
  N26      1.0000 0.67830  0.18140  0.97310  Biso   1.000  N
  N27      1.0000 0.64980  0.21720  0.02110  Biso   1.000  N
  N28      1.0000 0.60860  0.28460  0.15700  Biso   1.000  N
  N29      1.0000 0.51420  0.34680  0.08300  Biso   1.000  N
  N30      1.0000 0.53980  0.36150  0.18380  Biso   1.000  N
  N31      1.0000 0.42740  0.50260  0.14050  Biso   1.000  N
  N32      1.0000 0.40060  0.48730  0.03730  Biso   1.000  N
  N33      1.0000 0.33940  0.58090  0.06320  Biso   1.000  N
  N34      1.0000 0.36440  0.64700  0.35740  Biso   1.000  N
  N35      1.0000 0.26890  0.69030  0.24350  Biso   1.000  N
  N36      1.0000 0.29870  0.65400  0.19620  Biso   1.000  N
  C29      1.0000 0.64380  0.13760  0.79640  Biso   1.000  C
  H33      1.0000 0.68930  0.13360  0.81950  Biso   1.000  H
  H34      1.0000 0.62390  0.17520  0.73760  Biso   1.000  H
  H35      1.0000 0.62500  0.07860  0.78000  Biso   1.000  H
  C30      1.0000 0.63290  0.17730  0.87720  Biso   1.000  C
  C31      1.0000 0.59050  0.23270  0.95510  Biso   1.000  C
  C32      1.0000 0.54220  0.27900  0.96960  Biso   1.000  C
  H36      1.0000 0.50380  0.24220  0.94180  Biso   1.000  H
  H37      1.0000 0.53120  0.33410  0.92990  Biso   1.000  H
  C33      1.0000 0.55750  0.30400  0.07130  Biso   1.000  C
  C34      1.0000 0.59490  0.32430  0.22240  Biso   1.000  C
  C35      1.0000 0.63960  0.32270  0.33180  Biso   1.000  C
  H38      1.0000 0.67940  0.35140  0.34590  Biso   1.000  H
  H39      1.0000 0.64790  0.26140  0.35470  Biso   1.000  H
  H40      1.0000 0.62040  0.35410  0.36610  Biso   1.000  H
  C36      1.0000 0.30770  0.54120  0.88690  Biso   1.000  C
  H41      1.0000 0.32900  0.51400  0.85350  Biso   1.000  H
  H42      1.0000 0.29910  0.60340  0.86780  Biso   1.000  H
  H43      1.0000 0.26770  0.51050  0.86800  Biso   1.000  H
  C37      1.0000 0.34950  0.53480  0.99640  Biso   1.000  C
  C38      1.0000 0.39020  0.55660  0.15140  Biso   1.000  C
  C39      1.0000 0.40520  0.59060  0.25200  Biso   1.000  C
  H44      1.0000 0.42340  0.54100  0.29910  Biso   1.000  H
  H45      1.0000 0.43890  0.63550  0.27140  Biso   1.000  H
  C40      1.0000 0.35530  0.62880  0.26600  Biso   1.000  C
  C41      1.0000 0.31040  0.68570  0.34070  Biso   1.000  C
  C42      1.0000 0.29720  0.71580  0.41930  Biso   1.000  C
  H46      1.0000 0.28040  0.66660  0.44060  Biso   1.000  H
  H47      1.0000 0.26600  0.76360  0.39420  Biso   1.000  H
  H48      1.0000 0.33640  0.73720  0.47540  Biso   1.000  H
  O3       1.0000 0.48600  0.28100  0.91400  Biso   1.000  O
  Cu10     1.0000 0.26426  0.64314  0.04530  Biso   1.000  Cu
  Cu11     1.0000 0.18458  0.73144  0.17189  Biso   1.000  Cu
  Cu12     1.0000 0.93208  0.88922  0.98631  Biso   1.000  Cu
  N37      1.0000 0.07790  0.70740  0.86410  Biso   1.000  N
  N38      1.0000 0.17830  0.68140  0.97310  Biso   1.000  N
  N39      1.0000 0.14980  0.71720  0.02110  Biso   1.000  N
  N40      1.0000 0.10860  0.78460  0.15700  Biso   1.000  N
  N41      1.0000 0.01420  0.84680  0.08300  Biso   1.000  N
  N42      1.0000 0.03980  0.86150  0.18380  Biso   1.000  N
  N43      1.0000 0.92740  0.00260  0.14050  Biso   1.000  N
  N44      1.0000 0.90060  0.98730  0.03730  Biso   1.000  N
  N45      1.0000 0.83940  0.08090  0.06320  Biso   1.000  N
  N46      1.0000 0.86440  0.14700  0.35740  Biso   1.000  N
  N47      1.0000 0.76890  0.19030  0.24350  Biso   1.000  N
  N48      1.0000 0.79870  0.15400  0.19620  Biso   1.000  N
  C43      1.0000 0.14380  0.63760  0.79640  Biso   1.000  C
  H49      1.0000 0.18930  0.63360  0.81950  Biso   1.000  H
  H50      1.0000 0.12390  0.67520  0.73760  Biso   1.000  H
  H51      1.0000 0.12500  0.57860  0.78000  Biso   1.000  H
  C44      1.0000 0.13290  0.67730  0.87720  Biso   1.000  C
  C45      1.0000 0.09050  0.73270  0.95510  Biso   1.000  C
  C46      1.0000 0.04220  0.77900  0.96960  Biso   1.000  C
  H52      1.0000 0.00380  0.74220  0.94180  Biso   1.000  H
  H53      1.0000 0.03120  0.83410  0.92990  Biso   1.000  H
  C47      1.0000 0.05750  0.80400  0.07130  Biso   1.000  C
  C48      1.0000 0.09490  0.82430  0.22240  Biso   1.000  C
  C49      1.0000 0.13960  0.82270  0.33180  Biso   1.000  C
  H54      1.0000 0.17940  0.85140  0.34590  Biso   1.000  H
  H55      1.0000 0.14790  0.76140  0.35470  Biso   1.000  H
  H56      1.0000 0.12040  0.85410  0.36610  Biso   1.000  H
  C50      1.0000 0.80770  0.04120  0.88690  Biso   1.000  C
  H57      1.0000 0.82900  0.01400  0.85350  Biso   1.000  H
  H58      1.0000 0.79910  0.10340  0.86780  Biso   1.000  H
  H59      1.0000 0.76770  0.01050  0.86800  Biso   1.000  H
  C51      1.0000 0.84950  0.03480  0.99640  Biso   1.000  C
  C52      1.0000 0.89020  0.05660  0.15140  Biso   1.000  C
  C53      1.0000 0.90520  0.09060  0.25200  Biso   1.000  C
  H60      1.0000 0.92340  0.04100  0.29910  Biso   1.000  H
  H61      1.0000 0.93890  0.13550  0.27140  Biso   1.000  H
  C54      1.0000 0.85530  0.12880  0.26600  Biso   1.000  C
  C55      1.0000 0.81040  0.18570  0.34070  Biso   1.000  C
  C56      1.0000 0.79720  0.21580  0.41930  Biso   1.000  C
  H62      1.0000 0.78040  0.16660  0.44060  Biso   1.000  H
  H63      1.0000 0.76600  0.26360  0.39420  Biso   1.000  H
  H64      1.0000 0.83640  0.23720  0.47540  Biso   1.000  H
  O4       1.0000 0.98600  0.78100  0.91400  Biso   1.000  O
  Cu13     1.0000 0.76426  0.85686  0.54530  Biso   1.000  Cu
  Cu14     1.0000 0.68458  0.76856  0.67189  Biso   1.000  Cu
  Cu15     1.0000 0.43208  0.61078  0.48631  Biso   1.000  Cu
  N49      1.0000 0.57790  0.79260  0.36410  Biso   1.000  N
  N50      1.0000 0.67830  0.81860  0.47310  Biso   1.000  N
  N51      1.0000 0.64980  0.78280  0.52110  Biso   1.000  N
  N52      1.0000 0.60860  0.71540  0.65700  Biso   1.000  N
  N53      1.0000 0.51420  0.65320  0.58300  Biso   1.000  N
  N54      1.0000 0.53980  0.63850  0.68380  Biso   1.000  N
  N55      1.0000 0.42740  0.49740  0.64050  Biso   1.000  N
  N56      1.0000 0.40060  0.51270  0.53730  Biso   1.000  N
  N57      1.0000 0.33940  0.41910  0.56320  Biso   1.000  N
  N58      1.0000 0.36440  0.35300  0.85740  Biso   1.000  N
  N59      1.0000 0.26890  0.30970  0.74350  Biso   1.000  N
  N60      1.0000 0.29870  0.34600  0.69620  Biso   1.000  N
  C57      1.0000 0.64380  0.86240  0.29640  Biso   1.000  C
  H65      1.0000 0.68930  0.86640  0.31950  Biso   1.000  H
  H66      1.0000 0.62390  0.82480  0.23760  Biso   1.000  H
  H67      1.0000 0.62500  0.92140  0.28000  Biso   1.000  H
  C58      1.0000 0.63290  0.82270  0.37720  Biso   1.000  C
  C59      1.0000 0.59050  0.76730  0.45510  Biso   1.000  C
  C60      1.0000 0.54220  0.72100  0.46960  Biso   1.000  C
  H68      1.0000 0.50380  0.75780  0.44180  Biso   1.000  H
  H69      1.0000 0.53120  0.66590  0.42990  Biso   1.000  H
  C61      1.0000 0.55750  0.69600  0.57130  Biso   1.000  C
  C62      1.0000 0.59490  0.67570  0.72240  Biso   1.000  C
  C63      1.0000 0.63960  0.67730  0.83180  Biso   1.000  C
  H70      1.0000 0.67940  0.64860  0.84590  Biso   1.000  H
  H71      1.0000 0.64790  0.73860  0.85470  Biso   1.000  H
  H72      1.0000 0.62040  0.64590  0.86610  Biso   1.000  H
  C64      1.0000 0.30770  0.45880  0.38690  Biso   1.000  C
  H73      1.0000 0.32900  0.48600  0.35350  Biso   1.000  H
  H74      1.0000 0.29910  0.39660  0.36780  Biso   1.000  H
  H75      1.0000 0.26770  0.48950  0.36800  Biso   1.000  H
  C65      1.0000 0.34950  0.46520  0.49640  Biso   1.000  C
  C66      1.0000 0.39020  0.44340  0.65140  Biso   1.000  C
  C67      1.0000 0.40520  0.40940  0.75200  Biso   1.000  C
  H76      1.0000 0.42340  0.45900  0.79910  Biso   1.000  H
  H77      1.0000 0.43890  0.36450  0.77140  Biso   1.000  H
  C68      1.0000 0.35530  0.37120  0.76600  Biso   1.000  C
  C69      1.0000 0.31040  0.31430  0.84070  Biso   1.000  C
  C70      1.0000 0.29720  0.28420  0.91930  Biso   1.000  C
  H78      1.0000 0.28040  0.33340  0.94060  Biso   1.000  H
  H79      1.0000 0.26600  0.23640  0.89420  Biso   1.000  H
  H80      1.0000 0.33640  0.26280  0.97540  Biso   1.000  H
  O5       1.0000 0.48600  0.71900  0.41400  Biso   1.000  O
  Cu16     1.0000 0.26426  0.35686  0.54530  Biso   1.000  Cu
  Cu17     1.0000 0.18458  0.26856  0.67189  Biso   1.000  Cu
  Cu18     1.0000 0.93208  0.11078  0.48631  Biso   1.000  Cu
  N61      1.0000 0.07790  0.29260  0.36410  Biso   1.000  N
  N62      1.0000 0.17830  0.31860  0.47310  Biso   1.000  N
  N63      1.0000 0.14980  0.28280  0.52110  Biso   1.000  N
  N64      1.0000 0.10860  0.21540  0.65700  Biso   1.000  N
  N65      1.0000 0.01420  0.15320  0.58300  Biso   1.000  N
  N66      1.0000 0.03980  0.13850  0.68380  Biso   1.000  N
  N67      1.0000 0.92740  0.99740  0.64050  Biso   1.000  N
  N68      1.0000 0.90060  0.01270  0.53730  Biso   1.000  N
  N69      1.0000 0.83940  0.91910  0.56320  Biso   1.000  N
  N70      1.0000 0.86440  0.85300  0.85740  Biso   1.000  N
  N71      1.0000 0.76890  0.80970  0.74350  Biso   1.000  N
  N72      1.0000 0.79870  0.84600  0.69620  Biso   1.000  N
  C71      1.0000 0.14380  0.36240  0.29640  Biso   1.000  C
  H81      1.0000 0.18930  0.36640  0.31950  Biso   1.000  H
  H82      1.0000 0.12390  0.32480  0.23760  Biso   1.000  H
  H83      1.0000 0.12500  0.42140  0.28000  Biso   1.000  H
  C72      1.0000 0.13290  0.32270  0.37720  Biso   1.000  C
  C73      1.0000 0.09050  0.26730  0.45510  Biso   1.000  C
  C74      1.0000 0.04220  0.22100  0.46960  Biso   1.000  C
  H84      1.0000 0.00380  0.25780  0.44180  Biso   1.000  H
  H85      1.0000 0.03120  0.16590  0.42990  Biso   1.000  H
  C75      1.0000 0.05750  0.19600  0.57130  Biso   1.000  C
  C76      1.0000 0.09490  0.17570  0.72240  Biso   1.000  C
  C77      1.0000 0.13960  0.17730  0.83180  Biso   1.000  C
  H86      1.0000 0.17940  0.14860  0.84590  Biso   1.000  H
  H87      1.0000 0.14790  0.23860  0.85470  Biso   1.000  H
  H88      1.0000 0.12040  0.14590  0.86610  Biso   1.000  H
  C78      1.0000 0.80770  0.95880  0.38690  Biso   1.000  C
  H89      1.0000 0.82900  0.98600  0.35350  Biso   1.000  H
  H90      1.0000 0.79910  0.89660  0.36780  Biso   1.000  H
  H91      1.0000 0.76770  0.98950  0.36800  Biso   1.000  H
  C79      1.0000 0.84950  0.96520  0.49640  Biso   1.000  C
  C80      1.0000 0.89020  0.94340  0.65140  Biso   1.000  C
  C81      1.0000 0.90520  0.90940  0.75200  Biso   1.000  C
  H92      1.0000 0.92340  0.95900  0.79910  Biso   1.000  H
  H93      1.0000 0.93890  0.86450  0.77140  Biso   1.000  H
  C82      1.0000 0.85530  0.87120  0.76600  Biso   1.000  C
  C83      1.0000 0.81040  0.81430  0.84070  Biso   1.000  C
  C84      1.0000 0.79720  0.78420  0.91930  Biso   1.000  C
  H94      1.0000 0.78040  0.83340  0.94060  Biso   1.000  H
  H95      1.0000 0.76600  0.73640  0.89420  Biso   1.000  H
  H96      1.0000 0.83640  0.76280  0.97540  Biso   1.000  H
  O6       1.0000 0.98600  0.21900  0.41400  Biso   1.000  O
  Cu19     1.0000 0.23574  0.85686  0.95470  Biso   1.000  Cu
  Cu20     1.0000 0.31542  0.76856  0.82811  Biso   1.000  Cu
  Cu21     1.0000 0.56792  0.61078  0.01369  Biso   1.000  Cu
  N73      1.0000 0.42210  0.79260  0.13590  Biso   1.000  N
  N74      1.0000 0.32170  0.81860  0.02690  Biso   1.000  N
  N75      1.0000 0.35020  0.78280  0.97890  Biso   1.000  N
  N76      1.0000 0.39140  0.71540  0.84300  Biso   1.000  N
  N77      1.0000 0.48580  0.65320  0.91700  Biso   1.000  N
  N78      1.0000 0.46020  0.63850  0.81620  Biso   1.000  N
  N79      1.0000 0.57260  0.49740  0.85950  Biso   1.000  N
  N80      1.0000 0.59940  0.51270  0.96270  Biso   1.000  N
  N81      1.0000 0.66060  0.41910  0.93680  Biso   1.000  N
  N82      1.0000 0.63560  0.35300  0.64260  Biso   1.000  N
  N83      1.0000 0.73110  0.30970  0.75650  Biso   1.000  N
  N84      1.0000 0.70130  0.34600  0.80380  Biso   1.000  N
  C85      1.0000 0.35620  0.86240  0.20360  Biso   1.000  C
  H97      1.0000 0.31070  0.86640  0.18050  Biso   1.000  H
  H98      1.0000 0.37610  0.82480  0.26240  Biso   1.000  H
  H99      1.0000 0.37500  0.92140  0.22000  Biso   1.000  H
  C86      1.0000 0.36710  0.82270  0.12280  Biso   1.000  C
  C87      1.0000 0.40950  0.76730  0.04490  Biso   1.000  C
  C88      1.0000 0.45780  0.72100  0.03040  Biso   1.000  C
  H100     1.0000 0.49620  0.75780  0.05820  Biso   1.000  H
  H101     1.0000 0.46880  0.66590  0.07010  Biso   1.000  H
  C89      1.0000 0.44250  0.69600  0.92870  Biso   1.000  C
  C90      1.0000 0.40510  0.67570  0.77760  Biso   1.000  C
  C91      1.0000 0.36040  0.67730  0.66820  Biso   1.000  C
  H102     1.0000 0.32060  0.64860  0.65410  Biso   1.000  H
  H103     1.0000 0.35210  0.73860  0.64530  Biso   1.000  H
  H104     1.0000 0.37960  0.64590  0.63390  Biso   1.000  H
  C92      1.0000 0.69230  0.45880  0.11310  Biso   1.000  C
  H105     1.0000 0.67100  0.48600  0.14650  Biso   1.000  H
  H106     1.0000 0.70090  0.39660  0.13220  Biso   1.000  H
  H107     1.0000 0.73230  0.48950  0.13200  Biso   1.000  H
  C93      1.0000 0.65050  0.46520  0.00360  Biso   1.000  C
  C94      1.0000 0.60980  0.44340  0.84860  Biso   1.000  C
  C95      1.0000 0.59480  0.40940  0.74800  Biso   1.000  C
  H108     1.0000 0.57660  0.45900  0.70090  Biso   1.000  H
  H109     1.0000 0.56110  0.36450  0.72860  Biso   1.000  H
  C96      1.0000 0.64470  0.37120  0.73400  Biso   1.000  C
  C97      1.0000 0.68960  0.31430  0.65930  Biso   1.000  C
  C98      1.0000 0.70280  0.28420  0.58070  Biso   1.000  C
  H110     1.0000 0.71960  0.33340  0.55940  Biso   1.000  H
  H111     1.0000 0.73400  0.23640  0.60580  Biso   1.000  H
  H112     1.0000 0.66360  0.26280  0.52460  Biso   1.000  H
  O7       1.0000 0.51400  0.71900  0.08600  Biso   1.000  O
  Cu22     1.0000 0.73574  0.35686  0.95470  Biso   1.000  Cu
  Cu23     1.0000 0.81542  0.26856  0.82811  Biso   1.000  Cu
  Cu24     1.0000 0.06792  0.11078  0.01369  Biso   1.000  Cu
  N85      1.0000 0.92210  0.29260  0.13590  Biso   1.000  N
  N86      1.0000 0.82170  0.31860  0.02690  Biso   1.000  N
  N87      1.0000 0.85020  0.28280  0.97890  Biso   1.000  N
  N88      1.0000 0.89140  0.21540  0.84300  Biso   1.000  N
  N89      1.0000 0.98580  0.15320  0.91700  Biso   1.000  N
  N90      1.0000 0.96020  0.13850  0.81620  Biso   1.000  N
  N91      1.0000 0.07260  0.99740  0.85950  Biso   1.000  N
  N92      1.0000 0.09940  0.01270  0.96270  Biso   1.000  N
  N93      1.0000 0.16060  0.91910  0.93680  Biso   1.000  N
  N94      1.0000 0.13560  0.85300  0.64260  Biso   1.000  N
  N95      1.0000 0.23110  0.80970  0.75650  Biso   1.000  N
  N96      1.0000 0.20130  0.84600  0.80380  Biso   1.000  N
  C99      1.0000 0.85620  0.36240  0.20360  Biso   1.000  C
  H113     1.0000 0.81070  0.36640  0.18050  Biso   1.000  H
  H114     1.0000 0.87610  0.32480  0.26240  Biso   1.000  H
  H115     1.0000 0.87500  0.42140  0.22000  Biso   1.000  H
  C100     1.0000 0.86710  0.32270  0.12280  Biso   1.000  C
  C101     1.0000 0.90950  0.26730  0.04490  Biso   1.000  C
  C102     1.0000 0.95780  0.22100  0.03040  Biso   1.000  C
  H116     1.0000 0.99620  0.25780  0.05820  Biso   1.000  H
  H117     1.0000 0.96880  0.16590  0.07010  Biso   1.000  H
  C103     1.0000 0.94250  0.19600  0.92870  Biso   1.000  C
  C104     1.0000 0.90510  0.17570  0.77760  Biso   1.000  C
  C105     1.0000 0.86040  0.17730  0.66820  Biso   1.000  C
  H118     1.0000 0.82060  0.14860  0.65410  Biso   1.000  H
  H119     1.0000 0.85210  0.23860  0.64530  Biso   1.000  H
  H120     1.0000 0.87960  0.14590  0.63390  Biso   1.000  H
  C106     1.0000 0.19230  0.95880  0.11310  Biso   1.000  C
  H121     1.0000 0.17100  0.98600  0.14650  Biso   1.000  H
  H122     1.0000 0.20090  0.89660  0.13220  Biso   1.000  H
  H123     1.0000 0.23230  0.98950  0.13200  Biso   1.000  H
  C107     1.0000 0.15050  0.96520  0.00360  Biso   1.000  C
  C108     1.0000 0.10980  0.94340  0.84860  Biso   1.000  C
  C109     1.0000 0.09480  0.90940  0.74800  Biso   1.000  C
  H124     1.0000 0.07660  0.95900  0.70090  Biso   1.000  H
  H125     1.0000 0.06110  0.86450  0.72860  Biso   1.000  H
  C110     1.0000 0.14470  0.87120  0.73400  Biso   1.000  C
  C111     1.0000 0.18960  0.81430  0.65930  Biso   1.000  C
  C112     1.0000 0.20280  0.78420  0.58070  Biso   1.000  C
  H126     1.0000 0.21960  0.83340  0.55940  Biso   1.000  H
  H127     1.0000 0.23400  0.73640  0.60580  Biso   1.000  H
  H128     1.0000 0.16360  0.76280  0.52460  Biso   1.000  H
  O8       1.0000 0.01400  0.21900  0.08600  Biso   1.000  O
  Cu25     1.0000 0.50000  0.20770  0.75000  Biso   1.000  Cu
  Cu26     1.0000 0.00000  0.70770  0.75000  Biso   1.000  Cu
  Cu27     1.0000 0.50000  0.79230  0.25000  Biso   1.000  Cu
  Cu28     1.0000 0.00000  0.29230  0.25000  Biso   1.000  Cu
  Cu29     1.0000 0.50000  0.43260  0.25000  Biso   1.000  Cu
  Cu30     1.0000 0.00000  0.93260  0.25000  Biso   1.000  Cu
  Cu31     1.0000 0.50000  0.56740  0.75000  Biso   1.000  Cu
  Cu32     1.0000 0.00000  0.06740  0.75000  Biso   1.000  Cu
