data_image0
_cell_length_a       28.503
_cell_length_b       28.503
_cell_length_c       3.5383
_cell_angle_alpha    90
_cell_angle_beta     90
_cell_angle_gamma    90

_symmetry_space_group_name_H-M    "P 1"
_symmetry_int_tables_number       1

loop_
  _symmetry_equiv_pos_as_xyz
  'x, y, z'

loop_
  _atom_site_label
  _atom_site_occupancy
  _atom_site_fract_x
  _atom_site_fract_y
  _atom_site_fract_z
  _atom_site_thermal_displace_type
  _atom_site_B_iso_or_equiv
  _atom_site_type_symbol
  Ag1      1.0000 0.95726  0.92390  0.01130  Biso   1.000  Ag
  N1       1.0000 0.89080  0.94410  0.83200  Biso   1.000  N
  N2       1.0000 0.87770  0.99060  0.82700  Biso   1.000  N
  N3       1.0000 0.81770  0.94810  0.61900  Biso   1.000  N
  C1       1.0000 0.85420  0.92130  0.71200  Biso   1.000  C
  H1       1.0000 0.85350  0.88880  0.69150  Biso   1.000  H
  C2       1.0000 0.83480  0.99050  0.70000  Biso   1.000  C
  C3       1.0000 0.80700  0.03300  0.59000  Biso   1.000  C
  H2       1.0000 0.82790  0.05530  0.47380  Biso   1.000  H
  H3       1.0000 0.79400  0.04680  0.81600  Biso   1.000  H
  H4       1.0000 0.78290  0.02440  0.42160  Biso   1.000  H
  C4       1.0000 0.85500  0.87020  0.63000  Biso   1.000  C
  H5       1.0000 0.88280  0.85640  0.73540  Biso   1.000  H
  H6       1.0000 0.85590  0.86580  0.35610  Biso   1.000  H
  H7       1.0000 0.82780  0.85550  0.72780  Biso   1.000  H
  H8       1.0000 0.81740  0.01780  0.66950  Biso   1.000  H
  Ag2      1.0000 0.45726  0.42390  0.51130  Biso   1.000  Ag
  N4       1.0000 0.39080  0.44410  0.33200  Biso   1.000  N
  N5       1.0000 0.37770  0.49060  0.32700  Biso   1.000  N
  N6       1.0000 0.31770  0.44810  0.11900  Biso   1.000  N
  C5       1.0000 0.35420  0.42130  0.21200  Biso   1.000  C
  H9       1.0000 0.35350  0.38880  0.19150  Biso   1.000  H
  C6       1.0000 0.33480  0.49050  0.20000  Biso   1.000  C
  C7       1.0000 0.30700  0.53300  0.09000  Biso   1.000  C
  H10      1.0000 0.32790  0.55530  0.97380  Biso   1.000  H
  H11      1.0000 0.29400  0.54680  0.31600  Biso   1.000  H
  H12      1.0000 0.28290  0.52440  0.92160  Biso   1.000  H
  C8       1.0000 0.35500  0.37020  0.13000  Biso   1.000  C
  H13      1.0000 0.38280  0.35640  0.23540  Biso   1.000  H
  H14      1.0000 0.35590  0.36580  0.85610  Biso   1.000  H
  H15      1.0000 0.32780  0.35550  0.22780  Biso   1.000  H
  H16      1.0000 0.31740  0.51780  0.16950  Biso   1.000  H
  Ag3      1.0000 0.04274  0.07610  0.01130  Biso   1.000  Ag
  N7       1.0000 0.10920  0.05590  0.83200  Biso   1.000  N
  N8       1.0000 0.12230  0.00940  0.82700  Biso   1.000  N
  N9       1.0000 0.18230  0.05190  0.61900  Biso   1.000  N
  C9       1.0000 0.14580  0.07870  0.71200  Biso   1.000  C
  H17      1.0000 0.14650  0.11120  0.69150  Biso   1.000  H
  C10      1.0000 0.16520  0.00950  0.70000  Biso   1.000  C
  C11      1.0000 0.19300  0.96700  0.59000  Biso   1.000  C
  H18      1.0000 0.17210  0.94470  0.47380  Biso   1.000  H
  H19      1.0000 0.20600  0.95320  0.81600  Biso   1.000  H
  H20      1.0000 0.21710  0.97560  0.42160  Biso   1.000  H
  C12      1.0000 0.14500  0.12980  0.63000  Biso   1.000  C
  H21      1.0000 0.11720  0.14360  0.73540  Biso   1.000  H
  H22      1.0000 0.14410  0.13420  0.35610  Biso   1.000  H
  H23      1.0000 0.17220  0.14450  0.72780  Biso   1.000  H
  H24      1.0000 0.18260  0.98220  0.66950  Biso   1.000  H
  Ag4      1.0000 0.54274  0.57610  0.51130  Biso   1.000  Ag
  N10      1.0000 0.60920  0.55590  0.33200  Biso   1.000  N
  N11      1.0000 0.62230  0.50940  0.32700  Biso   1.000  N
  N12      1.0000 0.68230  0.55190  0.11900  Biso   1.000  N
  C13      1.0000 0.64580  0.57870  0.21200  Biso   1.000  C
  H25      1.0000 0.64650  0.61120  0.19150  Biso   1.000  H
  C14      1.0000 0.66520  0.50950  0.20000  Biso   1.000  C
  C15      1.0000 0.69300  0.46700  0.09000  Biso   1.000  C
  H26      1.0000 0.67210  0.44470  0.97380  Biso   1.000  H
  H27      1.0000 0.70600  0.45320  0.31600  Biso   1.000  H
  H28      1.0000 0.71710  0.47560  0.92160  Biso   1.000  H
  C16      1.0000 0.64500  0.62980  0.13000  Biso   1.000  C
  H29      1.0000 0.61720  0.64360  0.23540  Biso   1.000  H
  H30      1.0000 0.64410  0.63420  0.85610  Biso   1.000  H
  H31      1.0000 0.67220  0.64450  0.22780  Biso   1.000  H
  H32      1.0000 0.68260  0.48220  0.16950  Biso   1.000  H
  Ag5      1.0000 0.92390  0.04274  0.98870  Biso   1.000  Ag
  N13      1.0000 0.94410  0.10920  0.16800  Biso   1.000  N
  N14      1.0000 0.99060  0.12230  0.17300  Biso   1.000  N
  N15      1.0000 0.94810  0.18230  0.38100  Biso   1.000  N
  C17      1.0000 0.92130  0.14580  0.28800  Biso   1.000  C
  H33      1.0000 0.88880  0.14650  0.30850  Biso   1.000  H
  C18      1.0000 0.99050  0.16520  0.30000  Biso   1.000  C
  C19      1.0000 0.03300  0.19300  0.41000  Biso   1.000  C
  H34      1.0000 0.05530  0.17210  0.52620  Biso   1.000  H
  H35      1.0000 0.04680  0.20600  0.18400  Biso   1.000  H
  H36      1.0000 0.02440  0.21710  0.57840  Biso   1.000  H
  C20      1.0000 0.87020  0.14500  0.37000  Biso   1.000  C
  H37      1.0000 0.85640  0.11720  0.26460  Biso   1.000  H
  H38      1.0000 0.86580  0.14410  0.64390  Biso   1.000  H
  H39      1.0000 0.85550  0.17220  0.27220  Biso   1.000  H
  H40      1.0000 0.01780  0.18260  0.33050  Biso   1.000  H
  Ag6      1.0000 0.42390  0.54274  0.48870  Biso   1.000  Ag
  N16      1.0000 0.44410  0.60920  0.66800  Biso   1.000  N
  N17      1.0000 0.49060  0.62230  0.67300  Biso   1.000  N
  N18      1.0000 0.44810  0.68230  0.88100  Biso   1.000  N
  C21      1.0000 0.42130  0.64580  0.78800  Biso   1.000  C
  H41      1.0000 0.38880  0.64650  0.80850  Biso   1.000  H
  C22      1.0000 0.49050  0.66520  0.80000  Biso   1.000  C
  C23      1.0000 0.53300  0.69300  0.91000  Biso   1.000  C
  H42      1.0000 0.55530  0.67210  0.02620  Biso   1.000  H
  H43      1.0000 0.54680  0.70600  0.68400  Biso   1.000  H
  H44      1.0000 0.52440  0.71710  0.07840  Biso   1.000  H
  C24      1.0000 0.37020  0.64500  0.87000  Biso   1.000  C
  H45      1.0000 0.35640  0.61720  0.76460  Biso   1.000  H
  H46      1.0000 0.36580  0.64410  0.14390  Biso   1.000  H
  H47      1.0000 0.35550  0.67220  0.77220  Biso   1.000  H
  H48      1.0000 0.51780  0.68260  0.83050  Biso   1.000  H
  Ag7      1.0000 0.07610  0.95726  0.98870  Biso   1.000  Ag
  N19      1.0000 0.05590  0.89080  0.16800  Biso   1.000  N
  N20      1.0000 0.00940  0.87770  0.17300  Biso   1.000  N
  N21      1.0000 0.05190  0.81770  0.38100  Biso   1.000  N
  C25      1.0000 0.07870  0.85420  0.28800  Biso   1.000  C
  H49      1.0000 0.11120  0.85350  0.30850  Biso   1.000  H
  C26      1.0000 0.00950  0.83480  0.30000  Biso   1.000  C
  C27      1.0000 0.96700  0.80700  0.41000  Biso   1.000  C
  H50      1.0000 0.94470  0.82790  0.52620  Biso   1.000  H
  H51      1.0000 0.95320  0.79400  0.18400  Biso   1.000  H
  H52      1.0000 0.97560  0.78290  0.57840  Biso   1.000  H
  C28      1.0000 0.12980  0.85500  0.37000  Biso   1.000  C
  H53      1.0000 0.14360  0.88280  0.26460  Biso   1.000  H
  H54      1.0000 0.13420  0.85590  0.64390  Biso   1.000  H
  H55      1.0000 0.14450  0.82780  0.27220  Biso   1.000  H
  H56      1.0000 0.98220  0.81740  0.33050  Biso   1.000  H
  Ag8      1.0000 0.57610  0.45726  0.48870  Biso   1.000  Ag
  N22      1.0000 0.55590  0.39080  0.66800  Biso   1.000  N
  N23      1.0000 0.50940  0.37770  0.67300  Biso   1.000  N
  N24      1.0000 0.55190  0.31770  0.88100  Biso   1.000  N
  C29      1.0000 0.57870  0.35420  0.78800  Biso   1.000  C
  H57      1.0000 0.61120  0.35350  0.80850  Biso   1.000  H
  C30      1.0000 0.50950  0.33480  0.80000  Biso   1.000  C
  C31      1.0000 0.46700  0.30700  0.91000  Biso   1.000  C
  H58      1.0000 0.44470  0.32790  0.02620  Biso   1.000  H
  H59      1.0000 0.45320  0.29400  0.68400  Biso   1.000  H
  H60      1.0000 0.47560  0.28290  0.07840  Biso   1.000  H
  C32      1.0000 0.62980  0.35500  0.87000  Biso   1.000  C
  H61      1.0000 0.64360  0.38280  0.76460  Biso   1.000  H
  H62      1.0000 0.63420  0.35590  0.14390  Biso   1.000  H
  H63      1.0000 0.64450  0.32780  0.77220  Biso   1.000  H
  H64      1.0000 0.48220  0.31740  0.83050  Biso   1.000  H
  Ag9      1.0000 0.54274  0.92390  0.73870  Biso   1.000  Ag
  N25      1.0000 0.60920  0.94410  0.91800  Biso   1.000  N
  N26      1.0000 0.62230  0.99060  0.92300  Biso   1.000  N
  N27      1.0000 0.68230  0.94810  0.13100  Biso   1.000  N
  C33      1.0000 0.64580  0.92130  0.03800  Biso   1.000  C
  H65      1.0000 0.64650  0.88880  0.05850  Biso   1.000  H
  C34      1.0000 0.66520  0.99050  0.05000  Biso   1.000  C
  C35      1.0000 0.69300  0.03300  0.16000  Biso   1.000  C
  H66      1.0000 0.67210  0.05530  0.27620  Biso   1.000  H
  H67      1.0000 0.70600  0.04680  0.93400  Biso   1.000  H
  H68      1.0000 0.71710  0.02440  0.32840  Biso   1.000  H
  C36      1.0000 0.64500  0.87020  0.12000  Biso   1.000  C
  H69      1.0000 0.61720  0.85640  0.01460  Biso   1.000  H
  H70      1.0000 0.64410  0.86580  0.39390  Biso   1.000  H
  H71      1.0000 0.67220  0.85550  0.02220  Biso   1.000  H
  H72      1.0000 0.68260  0.01780  0.08050  Biso   1.000  H
  Ag10     1.0000 0.04274  0.42390  0.23870  Biso   1.000  Ag
  N28      1.0000 0.10920  0.44410  0.41800  Biso   1.000  N
  N29      1.0000 0.12230  0.49060  0.42300  Biso   1.000  N
  N30      1.0000 0.18230  0.44810  0.63100  Biso   1.000  N
  C37      1.0000 0.14580  0.42130  0.53800  Biso   1.000  C
  H73      1.0000 0.14650  0.38880  0.55850  Biso   1.000  H
  C38      1.0000 0.16520  0.49050  0.55000  Biso   1.000  C
  C39      1.0000 0.19300  0.53300  0.66000  Biso   1.000  C
  H74      1.0000 0.17210  0.55530  0.77620  Biso   1.000  H
  H75      1.0000 0.20600  0.54680  0.43400  Biso   1.000  H
  H76      1.0000 0.21710  0.52440  0.82840  Biso   1.000  H
  C40      1.0000 0.14500  0.37020  0.62000  Biso   1.000  C
  H77      1.0000 0.11720  0.35640  0.51460  Biso   1.000  H
  H78      1.0000 0.14410  0.36580  0.89390  Biso   1.000  H
  H79      1.0000 0.17220  0.35550  0.52220  Biso   1.000  H
  H80      1.0000 0.18260  0.51780  0.58050  Biso   1.000  H
  Ag11     1.0000 0.45726  0.07610  0.73870  Biso   1.000  Ag
  N31      1.0000 0.39080  0.05590  0.91800  Biso   1.000  N
  N32      1.0000 0.37770  0.00940  0.92300  Biso   1.000  N
  N33      1.0000 0.31770  0.05190  0.13100  Biso   1.000  N
  C41      1.0000 0.35420  0.07870  0.03800  Biso   1.000  C
  H81      1.0000 0.35350  0.11120  0.05850  Biso   1.000  H
  C42      1.0000 0.33480  0.00950  0.05000  Biso   1.000  C
  C43      1.0000 0.30700  0.96700  0.16000  Biso   1.000  C
  H82      1.0000 0.32790  0.94470  0.27620  Biso   1.000  H
  H83      1.0000 0.29400  0.95320  0.93400  Biso   1.000  H
  H84      1.0000 0.28290  0.97560  0.32840  Biso   1.000  H
  C44      1.0000 0.35500  0.12980  0.12000  Biso   1.000  C
  H85      1.0000 0.38280  0.14360  0.01460  Biso   1.000  H
  H86      1.0000 0.35590  0.13420  0.39390  Biso   1.000  H
  H87      1.0000 0.32780  0.14450  0.02220  Biso   1.000  H
  H88      1.0000 0.31740  0.98220  0.08050  Biso   1.000  H
  Ag12     1.0000 0.95726  0.57610  0.23870  Biso   1.000  Ag
  N34      1.0000 0.89080  0.55590  0.41800  Biso   1.000  N
  N35      1.0000 0.87770  0.50940  0.42300  Biso   1.000  N
  N36      1.0000 0.81770  0.55190  0.63100  Biso   1.000  N
  C45      1.0000 0.85420  0.57870  0.53800  Biso   1.000  C
  H89      1.0000 0.85350  0.61120  0.55850  Biso   1.000  H
  C46      1.0000 0.83480  0.50950  0.55000  Biso   1.000  C
  C47      1.0000 0.80700  0.46700  0.66000  Biso   1.000  C
  H90      1.0000 0.82790  0.44470  0.77620  Biso   1.000  H
  H91      1.0000 0.79400  0.45320  0.43400  Biso   1.000  H
  H92      1.0000 0.78290  0.47560  0.82840  Biso   1.000  H
  C48      1.0000 0.85500  0.62980  0.62000  Biso   1.000  C
  H93      1.0000 0.88280  0.64360  0.51460  Biso   1.000  H
  H94      1.0000 0.85590  0.63420  0.89390  Biso   1.000  H
  H95      1.0000 0.82780  0.64450  0.52220  Biso   1.000  H
  H96      1.0000 0.81740  0.48220  0.58050  Biso   1.000  H
  Ag13     1.0000 0.57610  0.04274  0.76130  Biso   1.000  Ag
  N37      1.0000 0.55590  0.10920  0.58200  Biso   1.000  N
  N38      1.0000 0.50940  0.12230  0.57700  Biso   1.000  N
  N39      1.0000 0.55190  0.18230  0.36900  Biso   1.000  N
  C49      1.0000 0.57870  0.14580  0.46200  Biso   1.000  C
  H97      1.0000 0.61120  0.14650  0.44150  Biso   1.000  H
  C50      1.0000 0.50950  0.16520  0.45000  Biso   1.000  C
  C51      1.0000 0.46700  0.19300  0.34000  Biso   1.000  C
  H98      1.0000 0.44470  0.17210  0.22380  Biso   1.000  H
  H99      1.0000 0.45320  0.20600  0.56600  Biso   1.000  H
  H100     1.0000 0.47560  0.21710  0.17160  Biso   1.000  H
  C52      1.0000 0.62980  0.14500  0.38000  Biso   1.000  C
  H101     1.0000 0.64360  0.11720  0.48540  Biso   1.000  H
  H102     1.0000 0.63420  0.14410  0.10610  Biso   1.000  H
  H103     1.0000 0.64450  0.17220  0.47780  Biso   1.000  H
  H104     1.0000 0.48220  0.18260  0.41950  Biso   1.000  H
  Ag14     1.0000 0.07610  0.54274  0.26130  Biso   1.000  Ag
  N40      1.0000 0.05590  0.60920  0.08200  Biso   1.000  N
  N41      1.0000 0.00940  0.62230  0.07700  Biso   1.000  N
  N42      1.0000 0.05190  0.68230  0.86900  Biso   1.000  N
  C53      1.0000 0.07870  0.64580  0.96200  Biso   1.000  C
  H105     1.0000 0.11120  0.64650  0.94150  Biso   1.000  H
  C54      1.0000 0.00950  0.66520  0.95000  Biso   1.000  C
  C55      1.0000 0.96700  0.69300  0.84000  Biso   1.000  C
  H106     1.0000 0.94470  0.67210  0.72380  Biso   1.000  H
  H107     1.0000 0.95320  0.70600  0.06600  Biso   1.000  H
  H108     1.0000 0.97560  0.71710  0.67160  Biso   1.000  H
  C56      1.0000 0.12980  0.64500  0.88000  Biso   1.000  C
  H109     1.0000 0.14360  0.61720  0.98540  Biso   1.000  H
  H110     1.0000 0.13420  0.64410  0.60610  Biso   1.000  H
  H111     1.0000 0.14450  0.67220  0.97780  Biso   1.000  H
  H112     1.0000 0.98220  0.68260  0.91950  Biso   1.000  H
  Ag15     1.0000 0.42390  0.95726  0.76130  Biso   1.000  Ag
  N43      1.0000 0.44410  0.89080  0.58200  Biso   1.000  N
  N44      1.0000 0.49060  0.87770  0.57700  Biso   1.000  N
  N45      1.0000 0.44810  0.81770  0.36900  Biso   1.000  N
  C57      1.0000 0.42130  0.85420  0.46200  Biso   1.000  C
  H113     1.0000 0.38880  0.85350  0.44150  Biso   1.000  H
  C58      1.0000 0.49050  0.83480  0.45000  Biso   1.000  C
  C59      1.0000 0.53300  0.80700  0.34000  Biso   1.000  C
  H114     1.0000 0.55530  0.82790  0.22380  Biso   1.000  H
  H115     1.0000 0.54680  0.79400  0.56600  Biso   1.000  H
  H116     1.0000 0.52440  0.78290  0.17160  Biso   1.000  H
  C60      1.0000 0.37020  0.85500  0.38000  Biso   1.000  C
  H117     1.0000 0.35640  0.88280  0.48540  Biso   1.000  H
  H118     1.0000 0.36580  0.85590  0.10610  Biso   1.000  H
  H119     1.0000 0.35550  0.82780  0.47780  Biso   1.000  H
  H120     1.0000 0.51780  0.81740  0.41950  Biso   1.000  H
  Ag16     1.0000 0.92390  0.45726  0.26130  Biso   1.000  Ag
  N46      1.0000 0.94410  0.39080  0.08200  Biso   1.000  N
  N47      1.0000 0.99060  0.37770  0.07700  Biso   1.000  N
  N48      1.0000 0.94810  0.31770  0.86900  Biso   1.000  N
  C61      1.0000 0.92130  0.35420  0.96200  Biso   1.000  C
  H121     1.0000 0.88880  0.35350  0.94150  Biso   1.000  H
  C62      1.0000 0.99050  0.33480  0.95000  Biso   1.000  C
  C63      1.0000 0.03300  0.30700  0.84000  Biso   1.000  C
  H122     1.0000 0.05530  0.32790  0.72380  Biso   1.000  H
  H123     1.0000 0.04680  0.29400  0.06600  Biso   1.000  H
  H124     1.0000 0.02440  0.28290  0.67160  Biso   1.000  H
  C64      1.0000 0.87020  0.35500  0.88000  Biso   1.000  C
  H125     1.0000 0.85640  0.38280  0.98540  Biso   1.000  H
  H126     1.0000 0.86580  0.35590  0.60610  Biso   1.000  H
  H127     1.0000 0.85550  0.32780  0.97780  Biso   1.000  H
  H128     1.0000 0.01780  0.31740  0.91950  Biso   1.000  H
  Ag17     1.0000 0.75000  0.92810  0.37500  Biso   1.000  Ag
  Ag18     1.0000 0.25000  0.42810  0.87500  Biso   1.000  Ag
  Ag19     1.0000 0.25000  0.07190  0.37500  Biso   1.000  Ag
  Ag20     1.0000 0.75000  0.57190  0.87500  Biso   1.000  Ag
  Ag21     1.0000 0.92810  0.25000  0.62500  Biso   1.000  Ag
  Ag22     1.0000 0.07190  0.75000  0.62500  Biso   1.000  Ag
  Ag23     1.0000 0.57190  0.25000  0.12500  Biso   1.000  Ag
  Ag24     1.0000 0.42810  0.75000  0.12500  Biso   1.000  Ag
