data_image0
_cell_length_a       28.708
_cell_length_b       28.708
_cell_length_c       3.5249
_cell_angle_alpha    90
_cell_angle_beta     90
_cell_angle_gamma    90

_symmetry_space_group_name_H-M    "P 1"
_symmetry_int_tables_number       1

loop_
  _symmetry_equiv_pos_as_xyz
  'x, y, z'

loop_
  _atom_site_label
  _atom_site_occupancy
  _atom_site_fract_x
  _atom_site_fract_y
  _atom_site_fract_z
  _atom_site_thermal_displace_type
  _atom_site_B_iso_or_equiv
  _atom_site_type_symbol
  Ag1      1.0000 0.04316  0.57418  0.24500  Biso   1.000  Ag
  N1       1.0000 0.11050  0.55420  0.43800  Biso   1.000  N
  N2       1.0000 0.12290  0.50890  0.43400  Biso   1.000  N
  N3       1.0000 0.18250  0.54880  0.64100  Biso   1.000  N
  C1       1.0000 0.14780  0.57680  0.55600  Biso   1.000  C
  C2       1.0000 0.14490  0.62850  0.56000  Biso   1.000  C
  H1       1.0000 0.11670  0.63780  0.68950  Biso   1.000  H
  H2       1.0000 0.14500  0.64030  0.30950  Biso   1.000  H
  H3       1.0000 0.17120  0.64090  0.69960  Biso   1.000  H
  C3       1.0000 0.16600  0.50800  0.56600  Biso   1.000  C
  H4       1.0000 0.18280  0.48060  0.60070  Biso   1.000  H
  C4       1.0000 0.18970  0.46320  0.62700  Biso   1.000  C
  H5       1.0000 0.17270  0.44530  0.81050  Biso   1.000  H
  H6       1.0000 0.22070  0.46870  0.71750  Biso   1.000  H
  H7       1.0000 0.19100  0.44630  0.39160  Biso   1.000  H
  H8       1.0000 0.14940  0.60910  0.57720  Biso   1.000  H
  Ag2      1.0000 0.54316  0.07418  0.74500  Biso   1.000  Ag
  N4       1.0000 0.61050  0.05420  0.93800  Biso   1.000  N
  N5       1.0000 0.62290  0.00890  0.93400  Biso   1.000  N
  N6       1.0000 0.68250  0.04880  0.14100  Biso   1.000  N
  C5       1.0000 0.64780  0.07680  0.05600  Biso   1.000  C
  C6       1.0000 0.64490  0.12850  0.06000  Biso   1.000  C
  H9       1.0000 0.61670  0.13780  0.18950  Biso   1.000  H
  H10      1.0000 0.64500  0.14030  0.80950  Biso   1.000  H
  H11      1.0000 0.67120  0.14090  0.19960  Biso   1.000  H
  C7       1.0000 0.66600  0.00800  0.06600  Biso   1.000  C
  H12      1.0000 0.68280  0.98060  0.10070  Biso   1.000  H
  C8       1.0000 0.68970  0.96320  0.12700  Biso   1.000  C
  H13      1.0000 0.67270  0.94530  0.31050  Biso   1.000  H
  H14      1.0000 0.72070  0.96870  0.21750  Biso   1.000  H
  H15      1.0000 0.69100  0.94630  0.89160  Biso   1.000  H
  H16      1.0000 0.64940  0.10910  0.07720  Biso   1.000  H
  Ag3      1.0000 0.95684  0.42582  0.24500  Biso   1.000  Ag
  N7       1.0000 0.88950  0.44580  0.43800  Biso   1.000  N
  N8       1.0000 0.87710  0.49110  0.43400  Biso   1.000  N
  N9       1.0000 0.81750  0.45120  0.64100  Biso   1.000  N
  C9       1.0000 0.85220  0.42320  0.55600  Biso   1.000  C
  C10      1.0000 0.85510  0.37150  0.56000  Biso   1.000  C
  H17      1.0000 0.88330  0.36220  0.68950  Biso   1.000  H
  H18      1.0000 0.85500  0.35970  0.30950  Biso   1.000  H
  H19      1.0000 0.82880  0.35910  0.69960  Biso   1.000  H
  C11      1.0000 0.83400  0.49200  0.56600  Biso   1.000  C
  H20      1.0000 0.81720  0.51940  0.60070  Biso   1.000  H
  C12      1.0000 0.81030  0.53680  0.62700  Biso   1.000  C
  H21      1.0000 0.82730  0.55470  0.81050  Biso   1.000  H
  H22      1.0000 0.77930  0.53130  0.71750  Biso   1.000  H
  H23      1.0000 0.80900  0.55370  0.39160  Biso   1.000  H
  H24      1.0000 0.85060  0.39090  0.57720  Biso   1.000  H
  Ag4      1.0000 0.45684  0.92582  0.74500  Biso   1.000  Ag
  N10      1.0000 0.38950  0.94580  0.93800  Biso   1.000  N
  N11      1.0000 0.37710  0.99110  0.93400  Biso   1.000  N
  N12      1.0000 0.31750  0.95120  0.14100  Biso   1.000  N
  C13      1.0000 0.35220  0.92320  0.05600  Biso   1.000  C
  C14      1.0000 0.35510  0.87150  0.06000  Biso   1.000  C
  H25      1.0000 0.38330  0.86220  0.18950  Biso   1.000  H
  H26      1.0000 0.35500  0.85970  0.80950  Biso   1.000  H
  H27      1.0000 0.32880  0.85910  0.19960  Biso   1.000  H
  C15      1.0000 0.33400  0.99200  0.06600  Biso   1.000  C
  H28      1.0000 0.31720  0.01940  0.10070  Biso   1.000  H
  C16      1.0000 0.31030  0.03680  0.12700  Biso   1.000  C
  H29      1.0000 0.32730  0.05470  0.31050  Biso   1.000  H
  H30      1.0000 0.27930  0.03130  0.21750  Biso   1.000  H
  H31      1.0000 0.30900  0.05370  0.89160  Biso   1.000  H
  H32      1.0000 0.35060  0.89090  0.07720  Biso   1.000  H
  Ag5      1.0000 0.57418  0.95684  0.75500  Biso   1.000  Ag
  N13      1.0000 0.55420  0.88950  0.56200  Biso   1.000  N
  N14      1.0000 0.50890  0.87710  0.56600  Biso   1.000  N
  N15      1.0000 0.54880  0.81750  0.35900  Biso   1.000  N
  C17      1.0000 0.57680  0.85220  0.44400  Biso   1.000  C
  C18      1.0000 0.62850  0.85510  0.44000  Biso   1.000  C
  H33      1.0000 0.63780  0.88330  0.31050  Biso   1.000  H
  H34      1.0000 0.64030  0.85500  0.69050  Biso   1.000  H
  H35      1.0000 0.64090  0.82880  0.30040  Biso   1.000  H
  C19      1.0000 0.50800  0.83400  0.43400  Biso   1.000  C
  H36      1.0000 0.48060  0.81720  0.39930  Biso   1.000  H
  C20      1.0000 0.46320  0.81030  0.37300  Biso   1.000  C
  H37      1.0000 0.44530  0.82730  0.18950  Biso   1.000  H
  H38      1.0000 0.46870  0.77930  0.28250  Biso   1.000  H
  H39      1.0000 0.44630  0.80900  0.60840  Biso   1.000  H
  H40      1.0000 0.60910  0.85060  0.42280  Biso   1.000  H
  Ag6      1.0000 0.07418  0.45684  0.25500  Biso   1.000  Ag
  N16      1.0000 0.05420  0.38950  0.06200  Biso   1.000  N
  N17      1.0000 0.00890  0.37710  0.06600  Biso   1.000  N
  N18      1.0000 0.04880  0.31750  0.85900  Biso   1.000  N
  C21      1.0000 0.07680  0.35220  0.94400  Biso   1.000  C
  C22      1.0000 0.12850  0.35510  0.94000  Biso   1.000  C
  H41      1.0000 0.13780  0.38330  0.81050  Biso   1.000  H
  H42      1.0000 0.14030  0.35500  0.19050  Biso   1.000  H
  H43      1.0000 0.14090  0.32880  0.80040  Biso   1.000  H
  C23      1.0000 0.00800  0.33400  0.93400  Biso   1.000  C
  H44      1.0000 0.98060  0.31720  0.89930  Biso   1.000  H
  C24      1.0000 0.96320  0.31030  0.87300  Biso   1.000  C
  H45      1.0000 0.94530  0.32730  0.68950  Biso   1.000  H
  H46      1.0000 0.96870  0.27930  0.78250  Biso   1.000  H
  H47      1.0000 0.94630  0.30900  0.10840  Biso   1.000  H
  H48      1.0000 0.10910  0.35060  0.92280  Biso   1.000  H
  Ag7      1.0000 0.42582  0.04316  0.75500  Biso   1.000  Ag
  N19      1.0000 0.44580  0.11050  0.56200  Biso   1.000  N
  N20      1.0000 0.49110  0.12290  0.56600  Biso   1.000  N
  N21      1.0000 0.45120  0.18250  0.35900  Biso   1.000  N
  C25      1.0000 0.42320  0.14780  0.44400  Biso   1.000  C
  C26      1.0000 0.37150  0.14490  0.44000  Biso   1.000  C
  H49      1.0000 0.36220  0.11670  0.31050  Biso   1.000  H
  H50      1.0000 0.35970  0.14500  0.69050  Biso   1.000  H
  H51      1.0000 0.35910  0.17120  0.30040  Biso   1.000  H
  C27      1.0000 0.49200  0.16600  0.43400  Biso   1.000  C
  H52      1.0000 0.51940  0.18280  0.39930  Biso   1.000  H
  C28      1.0000 0.53680  0.18970  0.37300  Biso   1.000  C
  H53      1.0000 0.55470  0.17270  0.18950  Biso   1.000  H
  H54      1.0000 0.53130  0.22070  0.28250  Biso   1.000  H
  H55      1.0000 0.55370  0.19100  0.60840  Biso   1.000  H
  H56      1.0000 0.39090  0.14940  0.42280  Biso   1.000  H
  Ag8      1.0000 0.92582  0.54316  0.25500  Biso   1.000  Ag
  N22      1.0000 0.94580  0.61050  0.06200  Biso   1.000  N
  N23      1.0000 0.99110  0.62290  0.06600  Biso   1.000  N
  N24      1.0000 0.95120  0.68250  0.85900  Biso   1.000  N
  C29      1.0000 0.92320  0.64780  0.94400  Biso   1.000  C
  C30      1.0000 0.87150  0.64490  0.94000  Biso   1.000  C
  H57      1.0000 0.86220  0.61670  0.81050  Biso   1.000  H
  H58      1.0000 0.85970  0.64500  0.19050  Biso   1.000  H
  H59      1.0000 0.85910  0.67120  0.80040  Biso   1.000  H
  C31      1.0000 0.99200  0.66600  0.93400  Biso   1.000  C
  H60      1.0000 0.01940  0.68280  0.89930  Biso   1.000  H
  C32      1.0000 0.03680  0.68970  0.87300  Biso   1.000  C
  H61      1.0000 0.05470  0.67270  0.68950  Biso   1.000  H
  H62      1.0000 0.03130  0.72070  0.78250  Biso   1.000  H
  H63      1.0000 0.05370  0.69100  0.10840  Biso   1.000  H
  H64      1.0000 0.89090  0.64940  0.92280  Biso   1.000  H
  Ag9      1.0000 0.45684  0.57418  0.50500  Biso   1.000  Ag
  N25      1.0000 0.38950  0.55420  0.31200  Biso   1.000  N
  N26      1.0000 0.37710  0.50890  0.31600  Biso   1.000  N
  N27      1.0000 0.31750  0.54880  0.10900  Biso   1.000  N
  C33      1.0000 0.35220  0.57680  0.19400  Biso   1.000  C
  C34      1.0000 0.35510  0.62850  0.19000  Biso   1.000  C
  H65      1.0000 0.38330  0.63780  0.06050  Biso   1.000  H
  H66      1.0000 0.35500  0.64030  0.44050  Biso   1.000  H
  H67      1.0000 0.32880  0.64090  0.05040  Biso   1.000  H
  C35      1.0000 0.33400  0.50800  0.18400  Biso   1.000  C
  H68      1.0000 0.31720  0.48060  0.14930  Biso   1.000  H
  C36      1.0000 0.31030  0.46320  0.12300  Biso   1.000  C
  H69      1.0000 0.32730  0.44530  0.93950  Biso   1.000  H
  H70      1.0000 0.27930  0.46870  0.03250  Biso   1.000  H
  H71      1.0000 0.30900  0.44630  0.35840  Biso   1.000  H
  H72      1.0000 0.35060  0.60910  0.17280  Biso   1.000  H
  Ag10     1.0000 0.95684  0.07418  0.00500  Biso   1.000  Ag
  N28      1.0000 0.88950  0.05420  0.81200  Biso   1.000  N
  N29      1.0000 0.87710  0.00890  0.81600  Biso   1.000  N
  N30      1.0000 0.81750  0.04880  0.60900  Biso   1.000  N
  C37      1.0000 0.85220  0.07680  0.69400  Biso   1.000  C
  C38      1.0000 0.85510  0.12850  0.69000  Biso   1.000  C
  H73      1.0000 0.88330  0.13780  0.56050  Biso   1.000  H
  H74      1.0000 0.85500  0.14030  0.94050  Biso   1.000  H
  H75      1.0000 0.82880  0.14090  0.55040  Biso   1.000  H
  C39      1.0000 0.83400  0.00800  0.68400  Biso   1.000  C
  H76      1.0000 0.81720  0.98060  0.64930  Biso   1.000  H
  C40      1.0000 0.81030  0.96320  0.62300  Biso   1.000  C
  H77      1.0000 0.82730  0.94530  0.43950  Biso   1.000  H
  H78      1.0000 0.77930  0.96870  0.53250  Biso   1.000  H
  H79      1.0000 0.80900  0.94630  0.85840  Biso   1.000  H
  H80      1.0000 0.85060  0.10910  0.67280  Biso   1.000  H
  Ag11     1.0000 0.54316  0.42582  0.50500  Biso   1.000  Ag
  N31      1.0000 0.61050  0.44580  0.31200  Biso   1.000  N
  N32      1.0000 0.62290  0.49110  0.31600  Biso   1.000  N
  N33      1.0000 0.68250  0.45120  0.10900  Biso   1.000  N
  C41      1.0000 0.64780  0.42320  0.19400  Biso   1.000  C
  C42      1.0000 0.64490  0.37150  0.19000  Biso   1.000  C
  H81      1.0000 0.61670  0.36220  0.06050  Biso   1.000  H
  H82      1.0000 0.64500  0.35970  0.44050  Biso   1.000  H
  H83      1.0000 0.67120  0.35910  0.05040  Biso   1.000  H
  C43      1.0000 0.66600  0.49200  0.18400  Biso   1.000  C
  H84      1.0000 0.68280  0.51940  0.14930  Biso   1.000  H
  C44      1.0000 0.68970  0.53680  0.12300  Biso   1.000  C
  H85      1.0000 0.67270  0.55470  0.93950  Biso   1.000  H
  H86      1.0000 0.72070  0.53130  0.03250  Biso   1.000  H
  H87      1.0000 0.69100  0.55370  0.35840  Biso   1.000  H
  H88      1.0000 0.64940  0.39090  0.17280  Biso   1.000  H
  Ag12     1.0000 0.04316  0.92582  0.00500  Biso   1.000  Ag
  N34      1.0000 0.11050  0.94580  0.81200  Biso   1.000  N
  N35      1.0000 0.12290  0.99110  0.81600  Biso   1.000  N
  N36      1.0000 0.18250  0.95120  0.60900  Biso   1.000  N
  C45      1.0000 0.14780  0.92320  0.69400  Biso   1.000  C
  C46      1.0000 0.14490  0.87150  0.69000  Biso   1.000  C
  H89      1.0000 0.11670  0.86220  0.56050  Biso   1.000  H
  H90      1.0000 0.14500  0.85970  0.94050  Biso   1.000  H
  H91      1.0000 0.17120  0.85910  0.55040  Biso   1.000  H
  C47      1.0000 0.16600  0.99200  0.68400  Biso   1.000  C
  H92      1.0000 0.18280  0.01940  0.64930  Biso   1.000  H
  C48      1.0000 0.18970  0.03680  0.62300  Biso   1.000  C
  H93      1.0000 0.17270  0.05470  0.43950  Biso   1.000  H
  H94      1.0000 0.22070  0.03130  0.53250  Biso   1.000  H
  H95      1.0000 0.19100  0.05370  0.85840  Biso   1.000  H
  H96      1.0000 0.14940  0.89090  0.67280  Biso   1.000  H
  Ag13     1.0000 0.92582  0.95684  0.99500  Biso   1.000  Ag
  N37      1.0000 0.94580  0.88950  0.18800  Biso   1.000  N
  N38      1.0000 0.99110  0.87710  0.18400  Biso   1.000  N
  N39      1.0000 0.95120  0.81750  0.39100  Biso   1.000  N
  C49      1.0000 0.92320  0.85220  0.30600  Biso   1.000  C
  C50      1.0000 0.87150  0.85510  0.31000  Biso   1.000  C
  H97      1.0000 0.86220  0.88330  0.43950  Biso   1.000  H
  H98      1.0000 0.85970  0.85500  0.05950  Biso   1.000  H
  H99      1.0000 0.85910  0.82880  0.44960  Biso   1.000  H
  C51      1.0000 0.99200  0.83400  0.31600  Biso   1.000  C
  H100     1.0000 0.01940  0.81720  0.35070  Biso   1.000  H
  C52      1.0000 0.03680  0.81030  0.37700  Biso   1.000  C
  H101     1.0000 0.05470  0.82730  0.56050  Biso   1.000  H
  H102     1.0000 0.03130  0.77930  0.46750  Biso   1.000  H
  H103     1.0000 0.05370  0.80900  0.14160  Biso   1.000  H
  H104     1.0000 0.89090  0.85060  0.32720  Biso   1.000  H
  Ag14     1.0000 0.42582  0.45684  0.49500  Biso   1.000  Ag
  N40      1.0000 0.44580  0.38950  0.68800  Biso   1.000  N
  N41      1.0000 0.49110  0.37710  0.68400  Biso   1.000  N
  N42      1.0000 0.45120  0.31750  0.89100  Biso   1.000  N
  C53      1.0000 0.42320  0.35220  0.80600  Biso   1.000  C
  C54      1.0000 0.37150  0.35510  0.81000  Biso   1.000  C
  H105     1.0000 0.36220  0.38330  0.93950  Biso   1.000  H
  H106     1.0000 0.35970  0.35500  0.55950  Biso   1.000  H
  H107     1.0000 0.35910  0.32880  0.94960  Biso   1.000  H
  C55      1.0000 0.49200  0.33400  0.81600  Biso   1.000  C
  H108     1.0000 0.51940  0.31720  0.85070  Biso   1.000  H
  C56      1.0000 0.53680  0.31030  0.87700  Biso   1.000  C
  H109     1.0000 0.55470  0.32730  0.06050  Biso   1.000  H
  H110     1.0000 0.53130  0.27930  0.96750  Biso   1.000  H
  H111     1.0000 0.55370  0.30900  0.64160  Biso   1.000  H
  H112     1.0000 0.39090  0.35060  0.82720  Biso   1.000  H
  Ag15     1.0000 0.07418  0.04316  0.99500  Biso   1.000  Ag
  N43      1.0000 0.05420  0.11050  0.18800  Biso   1.000  N
  N44      1.0000 0.00890  0.12290  0.18400  Biso   1.000  N
  N45      1.0000 0.04880  0.18250  0.39100  Biso   1.000  N
  C57      1.0000 0.07680  0.14780  0.30600  Biso   1.000  C
  C58      1.0000 0.12850  0.14490  0.31000  Biso   1.000  C
  H113     1.0000 0.13780  0.11670  0.43950  Biso   1.000  H
  H114     1.0000 0.14030  0.14500  0.05950  Biso   1.000  H
  H115     1.0000 0.14090  0.17120  0.44960  Biso   1.000  H
  C59      1.0000 0.00800  0.16600  0.31600  Biso   1.000  C
  H116     1.0000 0.98060  0.18280  0.35070  Biso   1.000  H
  C60      1.0000 0.96320  0.18970  0.37700  Biso   1.000  C
  H117     1.0000 0.94530  0.17270  0.56050  Biso   1.000  H
  H118     1.0000 0.96870  0.22070  0.46750  Biso   1.000  H
  H119     1.0000 0.94630  0.19100  0.14160  Biso   1.000  H
  H120     1.0000 0.10910  0.14940  0.32720  Biso   1.000  H
  Ag16     1.0000 0.57418  0.54316  0.49500  Biso   1.000  Ag
  N46      1.0000 0.55420  0.61050  0.68800  Biso   1.000  N
  N47      1.0000 0.50890  0.62290  0.68400  Biso   1.000  N
  N48      1.0000 0.54880  0.68250  0.89100  Biso   1.000  N
  C61      1.0000 0.57680  0.64780  0.80600  Biso   1.000  C
  C62      1.0000 0.62850  0.64490  0.81000  Biso   1.000  C
  H121     1.0000 0.63780  0.61670  0.93950  Biso   1.000  H
  H122     1.0000 0.64030  0.64500  0.55950  Biso   1.000  H
  H123     1.0000 0.64090  0.67120  0.94960  Biso   1.000  H
  C63      1.0000 0.50800  0.66600  0.81600  Biso   1.000  C
  H124     1.0000 0.48060  0.68280  0.85070  Biso   1.000  H
  C64      1.0000 0.46320  0.68970  0.87700  Biso   1.000  C
  H125     1.0000 0.44530  0.67270  0.06050  Biso   1.000  H
  H126     1.0000 0.46870  0.72070  0.96750  Biso   1.000  H
  H127     1.0000 0.44630  0.69100  0.64160  Biso   1.000  H
  H128     1.0000 0.60910  0.64940  0.82720  Biso   1.000  H
  Ag17     1.0000 0.25000  0.56653  0.87500  Biso   1.000  Ag
  Ag18     1.0000 0.75000  0.06653  0.37500  Biso   1.000  Ag
  Ag19     1.0000 0.75000  0.43347  0.87500  Biso   1.000  Ag
  Ag20     1.0000 0.25000  0.93347  0.37500  Biso   1.000  Ag
  Ag21     1.0000 0.56653  0.75000  0.12500  Biso   1.000  Ag
  Ag22     1.0000 0.43347  0.25000  0.12500  Biso   1.000  Ag
  Ag23     1.0000 0.93347  0.75000  0.62500  Biso   1.000  Ag
  Ag24     1.0000 0.06653  0.25000  0.62500  Biso   1.000  Ag
