data_image0
_cell_length_a       29.419
_cell_length_b       29.419
_cell_length_c       3.5564
_cell_angle_alpha    90
_cell_angle_beta     90
_cell_angle_gamma    90

_symmetry_space_group_name_H-M    "P 1"
_symmetry_int_tables_number       1

loop_
  _symmetry_equiv_pos_as_xyz
  'x, y, z'

loop_
  _atom_site_label
  _atom_site_occupancy
  _atom_site_fract_x
  _atom_site_fract_y
  _atom_site_fract_z
  _atom_site_thermal_displace_type
  _atom_site_B_iso_or_equiv
  _atom_site_type_symbol
  N1       1.0000 0.38070  0.27360  0.31300  Biso   1.000  N
  C1       1.0000 0.34100  0.28610  0.44000  Biso   1.000  C
  C2       1.0000 0.32590  0.33340  0.45600  Biso   1.000  C
  H1       1.0000 0.29550  0.33470  0.55230  Biso   1.000  H
  H2       1.0000 0.32660  0.34620  0.20790  Biso   1.000  H
  H3       1.0000 0.34580  0.35040  0.61780  Biso   1.000  H
  H4       1.0000 0.33200  0.31610  0.47450  Biso   1.000  H
  N2       1.0000 0.88070  0.77360  0.81300  Biso   1.000  N
  C3       1.0000 0.84100  0.78610  0.94000  Biso   1.000  C
  C4       1.0000 0.82590  0.83340  0.95600  Biso   1.000  C
  H5       1.0000 0.79550  0.83470  0.05230  Biso   1.000  H
  H6       1.0000 0.82660  0.84620  0.70790  Biso   1.000  H
  H7       1.0000 0.84580  0.85040  0.11780  Biso   1.000  H
  H8       1.0000 0.83200  0.81610  0.97450  Biso   1.000  H
  N3       1.0000 0.11930  0.72640  0.81300  Biso   1.000  N
  C5       1.0000 0.15900  0.71390  0.94000  Biso   1.000  C
  C6       1.0000 0.17410  0.66660  0.95600  Biso   1.000  C
  H9       1.0000 0.20450  0.66530  0.05230  Biso   1.000  H
  H10      1.0000 0.17340  0.65380  0.70790  Biso   1.000  H
  H11      1.0000 0.15420  0.64960  0.11780  Biso   1.000  H
  H12      1.0000 0.16800  0.68390  0.97450  Biso   1.000  H
  N4       1.0000 0.61930  0.22640  0.31300  Biso   1.000  N
  C7       1.0000 0.65900  0.21390  0.44000  Biso   1.000  C
  C8       1.0000 0.67410  0.16660  0.45600  Biso   1.000  C
  H13      1.0000 0.70450  0.16530  0.55230  Biso   1.000  H
  H14      1.0000 0.67340  0.15380  0.20790  Biso   1.000  H
  H15      1.0000 0.65420  0.14960  0.61780  Biso   1.000  H
  H16      1.0000 0.66800  0.18390  0.47450  Biso   1.000  H
  N5       1.0000 0.97640  0.13070  0.56300  Biso   1.000  N
  C9       1.0000 0.96390  0.09100  0.69000  Biso   1.000  C
  C10      1.0000 0.91660  0.07590  0.70600  Biso   1.000  C
  H17      1.0000 0.91530  0.04550  0.80230  Biso   1.000  H
  H18      1.0000 0.90380  0.07660  0.45790  Biso   1.000  H
  H19      1.0000 0.89960  0.09580  0.86780  Biso   1.000  H
  H20      1.0000 0.93390  0.08200  0.72450  Biso   1.000  H
  N6       1.0000 0.47640  0.63070  0.06300  Biso   1.000  N
  C11      1.0000 0.46390  0.59100  0.19000  Biso   1.000  C
  C12      1.0000 0.41660  0.57590  0.20600  Biso   1.000  C
  H21      1.0000 0.41530  0.54550  0.30230  Biso   1.000  H
  H22      1.0000 0.40380  0.57660  0.95790  Biso   1.000  H
  H23      1.0000 0.39960  0.59580  0.36780  Biso   1.000  H
  H24      1.0000 0.43390  0.58200  0.22450  Biso   1.000  H
  N7       1.0000 0.52360  0.86930  0.06300  Biso   1.000  N
  C13      1.0000 0.53610  0.90900  0.19000  Biso   1.000  C
  C14      1.0000 0.58340  0.92410  0.20600  Biso   1.000  C
  H25      1.0000 0.58470  0.95450  0.30230  Biso   1.000  H
  H26      1.0000 0.59620  0.92340  0.95790  Biso   1.000  H
  H27      1.0000 0.60040  0.90420  0.36780  Biso   1.000  H
  H28      1.0000 0.56610  0.91800  0.22450  Biso   1.000  H
  N8       1.0000 0.02360  0.36930  0.56300  Biso   1.000  N
  C15      1.0000 0.03610  0.40900  0.69000  Biso   1.000  C
  C16      1.0000 0.08340  0.42410  0.70600  Biso   1.000  C
  H29      1.0000 0.08470  0.45450  0.80230  Biso   1.000  H
  H30      1.0000 0.09620  0.42340  0.45790  Biso   1.000  H
  H31      1.0000 0.10040  0.40420  0.86780  Biso   1.000  H
  H32      1.0000 0.06610  0.41800  0.72450  Biso   1.000  H
  N9       1.0000 0.11930  0.27360  0.18700  Biso   1.000  N
  C17      1.0000 0.15900  0.28610  0.06000  Biso   1.000  C
  C18      1.0000 0.17410  0.33340  0.04400  Biso   1.000  C
  H33      1.0000 0.20450  0.33470  0.94770  Biso   1.000  H
  H34      1.0000 0.17340  0.34620  0.29210  Biso   1.000  H
  H35      1.0000 0.15420  0.35040  0.88220  Biso   1.000  H
  H36      1.0000 0.16800  0.31610  0.02550  Biso   1.000  H
  N10      1.0000 0.61930  0.77360  0.68700  Biso   1.000  N
  C19      1.0000 0.65900  0.78610  0.56000  Biso   1.000  C
  C20      1.0000 0.67410  0.83340  0.54400  Biso   1.000  C
  H37      1.0000 0.70450  0.83470  0.44770  Biso   1.000  H
  H38      1.0000 0.67340  0.84620  0.79210  Biso   1.000  H
  H39      1.0000 0.65420  0.85040  0.38220  Biso   1.000  H
  H40      1.0000 0.66800  0.81610  0.52550  Biso   1.000  H
  N11      1.0000 0.38070  0.72640  0.68700  Biso   1.000  N
  C21      1.0000 0.34100  0.71390  0.56000  Biso   1.000  C
  C22      1.0000 0.32590  0.66660  0.54400  Biso   1.000  C
  H41      1.0000 0.29550  0.66530  0.44770  Biso   1.000  H
  H42      1.0000 0.32660  0.65380  0.79210  Biso   1.000  H
  H43      1.0000 0.34580  0.64960  0.38220  Biso   1.000  H
  H44      1.0000 0.33200  0.68390  0.52550  Biso   1.000  H
  N12      1.0000 0.88070  0.22640  0.18700  Biso   1.000  N
  C23      1.0000 0.84100  0.21390  0.06000  Biso   1.000  C
  C24      1.0000 0.82590  0.16660  0.04400  Biso   1.000  C
  H45      1.0000 0.79550  0.16530  0.94770  Biso   1.000  H
  H46      1.0000 0.82660  0.15380  0.29210  Biso   1.000  H
  H47      1.0000 0.84580  0.14960  0.88220  Biso   1.000  H
  H48      1.0000 0.83200  0.18390  0.02550  Biso   1.000  H
  N13      1.0000 0.52360  0.13070  0.93700  Biso   1.000  N
  C25      1.0000 0.53610  0.09100  0.81000  Biso   1.000  C
  C26      1.0000 0.58340  0.07590  0.79400  Biso   1.000  C
  H49      1.0000 0.58470  0.04550  0.69770  Biso   1.000  H
  H50      1.0000 0.59620  0.07660  0.04210  Biso   1.000  H
  H51      1.0000 0.60040  0.09580  0.63220  Biso   1.000  H
  H52      1.0000 0.56610  0.08200  0.77550  Biso   1.000  H
  N14      1.0000 0.02360  0.63070  0.43700  Biso   1.000  N
  C27      1.0000 0.03610  0.59100  0.31000  Biso   1.000  C
  C28      1.0000 0.08340  0.57590  0.29400  Biso   1.000  C
  H53      1.0000 0.08470  0.54550  0.19770  Biso   1.000  H
  H54      1.0000 0.09620  0.57660  0.54210  Biso   1.000  H
  H55      1.0000 0.10040  0.59580  0.13220  Biso   1.000  H
  H56      1.0000 0.06610  0.58200  0.27550  Biso   1.000  H
  N15      1.0000 0.97640  0.86930  0.43700  Biso   1.000  N
  C29      1.0000 0.96390  0.90900  0.31000  Biso   1.000  C
  C30      1.0000 0.91660  0.92410  0.29400  Biso   1.000  C
  H57      1.0000 0.91530  0.95450  0.19770  Biso   1.000  H
  H58      1.0000 0.90380  0.92340  0.54210  Biso   1.000  H
  H59      1.0000 0.89960  0.90420  0.13220  Biso   1.000  H
  H60      1.0000 0.93390  0.91800  0.27550  Biso   1.000  H
  N16      1.0000 0.47640  0.36930  0.93700  Biso   1.000  N
  C31      1.0000 0.46390  0.40900  0.81000  Biso   1.000  C
  C32      1.0000 0.41660  0.42410  0.79400  Biso   1.000  C
  H61      1.0000 0.41530  0.45450  0.69770  Biso   1.000  H
  H62      1.0000 0.40380  0.42340  0.04210  Biso   1.000  H
  H63      1.0000 0.39960  0.40420  0.63220  Biso   1.000  H
  H64      1.0000 0.43390  0.41800  0.77550  Biso   1.000  H
  N17      1.0000 0.61930  0.72640  0.68700  Biso   1.000  N
  C33      1.0000 0.65900  0.71390  0.56000  Biso   1.000  C
  C34      1.0000 0.67410  0.66660  0.54400  Biso   1.000  C
  H65      1.0000 0.70450  0.66530  0.44770  Biso   1.000  H
  H66      1.0000 0.67340  0.65380  0.79210  Biso   1.000  H
  H67      1.0000 0.65420  0.64960  0.38220  Biso   1.000  H
  H68      1.0000 0.66800  0.68390  0.52550  Biso   1.000  H
  N18      1.0000 0.11930  0.22640  0.18700  Biso   1.000  N
  C35      1.0000 0.15900  0.21390  0.06000  Biso   1.000  C
  C36      1.0000 0.17410  0.16660  0.04400  Biso   1.000  C
  H69      1.0000 0.20450  0.16530  0.94770  Biso   1.000  H
  H70      1.0000 0.17340  0.15380  0.29210  Biso   1.000  H
  H71      1.0000 0.15420  0.14960  0.88220  Biso   1.000  H
  H72      1.0000 0.16800  0.18390  0.02550  Biso   1.000  H
  N19      1.0000 0.88070  0.27360  0.18700  Biso   1.000  N
  C37      1.0000 0.84100  0.28610  0.06000  Biso   1.000  C
  C38      1.0000 0.82590  0.33340  0.04400  Biso   1.000  C
  H73      1.0000 0.79550  0.33470  0.94770  Biso   1.000  H
  H74      1.0000 0.82660  0.34620  0.29210  Biso   1.000  H
  H75      1.0000 0.84580  0.35040  0.88220  Biso   1.000  H
  H76      1.0000 0.83200  0.31610  0.02550  Biso   1.000  H
  N20      1.0000 0.38070  0.77360  0.68700  Biso   1.000  N
  C39      1.0000 0.34100  0.78610  0.56000  Biso   1.000  C
  C40      1.0000 0.32590  0.83340  0.54400  Biso   1.000  C
  H77      1.0000 0.29550  0.83470  0.44770  Biso   1.000  H
  H78      1.0000 0.32660  0.84620  0.79210  Biso   1.000  H
  H79      1.0000 0.34580  0.85040  0.38220  Biso   1.000  H
  H80      1.0000 0.33200  0.81610  0.52550  Biso   1.000  H
  N21      1.0000 0.02360  0.86930  0.43700  Biso   1.000  N
  C41      1.0000 0.03610  0.90900  0.31000  Biso   1.000  C
  C42      1.0000 0.08340  0.92410  0.29400  Biso   1.000  C
  H81      1.0000 0.08470  0.95450  0.19770  Biso   1.000  H
  H82      1.0000 0.09620  0.92340  0.54210  Biso   1.000  H
  H83      1.0000 0.10040  0.90420  0.13220  Biso   1.000  H
  H84      1.0000 0.06610  0.91800  0.27550  Biso   1.000  H
  N22      1.0000 0.52360  0.36930  0.93700  Biso   1.000  N
  C43      1.0000 0.53610  0.40900  0.81000  Biso   1.000  C
  C44      1.0000 0.58340  0.42410  0.79400  Biso   1.000  C
  H85      1.0000 0.58470  0.45450  0.69770  Biso   1.000  H
  H86      1.0000 0.59620  0.42340  0.04210  Biso   1.000  H
  H87      1.0000 0.60040  0.40420  0.63220  Biso   1.000  H
  H88      1.0000 0.56610  0.41800  0.77550  Biso   1.000  H
  N23      1.0000 0.47640  0.13070  0.93700  Biso   1.000  N
  C45      1.0000 0.46390  0.09100  0.81000  Biso   1.000  C
  C46      1.0000 0.41660  0.07590  0.79400  Biso   1.000  C
  H89      1.0000 0.41530  0.04550  0.69770  Biso   1.000  H
  H90      1.0000 0.40380  0.07660  0.04210  Biso   1.000  H
  H91      1.0000 0.39960  0.09580  0.63220  Biso   1.000  H
  H92      1.0000 0.43390  0.08200  0.77550  Biso   1.000  H
  N24      1.0000 0.97640  0.63070  0.43700  Biso   1.000  N
  C47      1.0000 0.96390  0.59100  0.31000  Biso   1.000  C
  C48      1.0000 0.91660  0.57590  0.29400  Biso   1.000  C
  H93      1.0000 0.91530  0.54550  0.19770  Biso   1.000  H
  H94      1.0000 0.90380  0.57660  0.54210  Biso   1.000  H
  H95      1.0000 0.89960  0.59580  0.13220  Biso   1.000  H
  H96      1.0000 0.93390  0.58200  0.27550  Biso   1.000  H
  N25      1.0000 0.88070  0.72640  0.81300  Biso   1.000  N
  C49      1.0000 0.84100  0.71390  0.94000  Biso   1.000  C
  C50      1.0000 0.82590  0.66660  0.95600  Biso   1.000  C
  H97      1.0000 0.79550  0.66530  0.05230  Biso   1.000  H
  H98      1.0000 0.82660  0.65380  0.70790  Biso   1.000  H
  H99      1.0000 0.84580  0.64960  0.11780  Biso   1.000  H
  H100     1.0000 0.83200  0.68390  0.97450  Biso   1.000  H
  N26      1.0000 0.38070  0.22640  0.31300  Biso   1.000  N
  C51      1.0000 0.34100  0.21390  0.44000  Biso   1.000  C
  C52      1.0000 0.32590  0.16660  0.45600  Biso   1.000  C
  H101     1.0000 0.29550  0.16530  0.55230  Biso   1.000  H
  H102     1.0000 0.32660  0.15380  0.20790  Biso   1.000  H
  H103     1.0000 0.34580  0.14960  0.61780  Biso   1.000  H
  H104     1.0000 0.33200  0.18390  0.47450  Biso   1.000  H
  N27      1.0000 0.61930  0.27360  0.31300  Biso   1.000  N
  C53      1.0000 0.65900  0.28610  0.44000  Biso   1.000  C
  C54      1.0000 0.67410  0.33340  0.45600  Biso   1.000  C
  H105     1.0000 0.70450  0.33470  0.55230  Biso   1.000  H
  H106     1.0000 0.67340  0.34620  0.20790  Biso   1.000  H
  H107     1.0000 0.65420  0.35040  0.61780  Biso   1.000  H
  H108     1.0000 0.66800  0.31610  0.47450  Biso   1.000  H
  N28      1.0000 0.11930  0.77360  0.81300  Biso   1.000  N
  C55      1.0000 0.15900  0.78610  0.94000  Biso   1.000  C
  C56      1.0000 0.17410  0.83340  0.95600  Biso   1.000  C
  H109     1.0000 0.20450  0.83470  0.05230  Biso   1.000  H
  H110     1.0000 0.17340  0.84620  0.70790  Biso   1.000  H
  H111     1.0000 0.15420  0.85040  0.11780  Biso   1.000  H
  H112     1.0000 0.16800  0.81610  0.97450  Biso   1.000  H
  N29      1.0000 0.47640  0.86930  0.06300  Biso   1.000  N
  C57      1.0000 0.46390  0.90900  0.19000  Biso   1.000  C
  C58      1.0000 0.41660  0.92410  0.20600  Biso   1.000  C
  H113     1.0000 0.41530  0.95450  0.30230  Biso   1.000  H
  H114     1.0000 0.40380  0.92340  0.95790  Biso   1.000  H
  H115     1.0000 0.39960  0.90420  0.36780  Biso   1.000  H
  H116     1.0000 0.43390  0.91800  0.22450  Biso   1.000  H
  N30      1.0000 0.97640  0.36930  0.56300  Biso   1.000  N
  C59      1.0000 0.96390  0.40900  0.69000  Biso   1.000  C
  C60      1.0000 0.91660  0.42410  0.70600  Biso   1.000  C
  H117     1.0000 0.91530  0.45450  0.80230  Biso   1.000  H
  H118     1.0000 0.90380  0.42340  0.45790  Biso   1.000  H
  H119     1.0000 0.89960  0.40420  0.86780  Biso   1.000  H
  H120     1.0000 0.93390  0.41800  0.72450  Biso   1.000  H
  N31      1.0000 0.02360  0.13070  0.56300  Biso   1.000  N
  C61      1.0000 0.03610  0.09100  0.69000  Biso   1.000  C
  C62      1.0000 0.08340  0.07590  0.70600  Biso   1.000  C
  H121     1.0000 0.08470  0.04550  0.80230  Biso   1.000  H
  H122     1.0000 0.09620  0.07660  0.45790  Biso   1.000  H
  H123     1.0000 0.10040  0.09580  0.86780  Biso   1.000  H
  H124     1.0000 0.06610  0.08200  0.72450  Biso   1.000  H
  N32      1.0000 0.52360  0.63070  0.06300  Biso   1.000  N
  C63      1.0000 0.53610  0.59100  0.19000  Biso   1.000  C
  C64      1.0000 0.58340  0.57590  0.20600  Biso   1.000  C
  H125     1.0000 0.58470  0.54550  0.30230  Biso   1.000  H
  H126     1.0000 0.59620  0.57660  0.95790  Biso   1.000  H
  H127     1.0000 0.60040  0.59580  0.36780  Biso   1.000  H
  H128     1.0000 0.56610  0.58200  0.22450  Biso   1.000  H
  Ag1      1.0000 0.44027  0.30973  0.12500  Biso   1.000  Ag
  Ag2      1.0000 0.05973  0.69027  0.62500  Biso   1.000  Ag
  Ag3      1.0000 0.94027  0.19027  0.37500  Biso   1.000  Ag
  Ag4      1.0000 0.55973  0.80973  0.87500  Biso   1.000  Ag
  Ag5      1.0000 0.05973  0.30973  0.37500  Biso   1.000  Ag
  Ag6      1.0000 0.44027  0.69027  0.87500  Biso   1.000  Ag
  Ag7      1.0000 0.55973  0.19027  0.12500  Biso   1.000  Ag
  Ag8      1.0000 0.94027  0.80973  0.62500  Biso   1.000  Ag
  Ag9      1.0000 0.55973  0.69027  0.87500  Biso   1.000  Ag
  Ag10     1.0000 0.94027  0.30973  0.37500  Biso   1.000  Ag
  Ag11     1.0000 0.05973  0.80973  0.62500  Biso   1.000  Ag
  Ag12     1.0000 0.44027  0.19027  0.12500  Biso   1.000  Ag
  Ag13     1.0000 0.94027  0.69027  0.62500  Biso   1.000  Ag
  Ag14     1.0000 0.55973  0.30973  0.12500  Biso   1.000  Ag
  Ag15     1.0000 0.44027  0.80973  0.87500  Biso   1.000  Ag
  Ag16     1.0000 0.05973  0.19027  0.37500  Biso   1.000  Ag
  Ag17     1.0000 0.25000  0.25000  0.75000  Biso   1.000  Ag
  Ag18     1.0000 0.25000  0.75000  0.25000  Biso   1.000  Ag
  Ag19     1.0000 0.00000  0.00000  0.00000  Biso   1.000  Ag
  Ag20     1.0000 0.50000  0.50000  0.50000  Biso   1.000  Ag
  Ag21     1.0000 0.50000  0.00000  0.50000  Biso   1.000  Ag
  Ag22     1.0000 0.00000  0.50000  0.00000  Biso   1.000  Ag
  Ag23     1.0000 0.75000  0.25000  0.75000  Biso   1.000  Ag
  Ag24     1.0000 0.75000  0.75000  0.25000  Biso   1.000  Ag
  N33      1.0000 0.31510  0.25000  0.51500  Biso   1.000  N
  N34      1.0000 0.18490  0.75000  0.01500  Biso   1.000  N
  N35      1.0000 0.00000  0.06510  0.76500  Biso   1.000  N
  N36      1.0000 0.50000  0.56510  0.26500  Biso   1.000  N
  N37      1.0000 0.50000  0.93490  0.26500  Biso   1.000  N
  N38      1.0000 0.00000  0.43490  0.76500  Biso   1.000  N
  N39      1.0000 0.18490  0.25000  0.98500  Biso   1.000  N
  N40      1.0000 0.31510  0.75000  0.48500  Biso   1.000  N
  N41      1.0000 0.81510  0.25000  0.98500  Biso   1.000  N
  N42      1.0000 0.50000  0.06510  0.73500  Biso   1.000  N
  N43      1.0000 0.00000  0.56510  0.23500  Biso   1.000  N
  N44      1.0000 0.00000  0.93490  0.23500  Biso   1.000  N
  N45      1.0000 0.50000  0.43490  0.73500  Biso   1.000  N
  N46      1.0000 0.68490  0.75000  0.48500  Biso   1.000  N
  N47      1.0000 0.81510  0.75000  0.01500  Biso   1.000  N
  N48      1.0000 0.68490  0.25000  0.51500  Biso   1.000  N
