data_image0
_cell_length_a       13.1007
_cell_length_b       13.1007
_cell_length_c       25.985
_cell_angle_alpha    90
_cell_angle_beta     90
_cell_angle_gamma    120

_symmetry_space_group_name_H-M    "P 1"
_symmetry_int_tables_number       1

loop_
  _symmetry_equiv_pos_as_xyz
  'x, y, z'

loop_
  _atom_site_label
  _atom_site_occupancy
  _atom_site_fract_x
  _atom_site_fract_y
  _atom_site_fract_z
  _atom_site_thermal_displace_type
  _atom_site_B_iso_or_equiv
  _atom_site_type_symbol
  N1       1.0000 0.84970  0.88730  0.45173  Biso   1.000  N
  C1       1.0000 0.84820  0.83230  0.40865  Biso   1.000  C
  C2       1.0000 0.73470  0.85490  0.46018  Biso   1.000  C
  N2       1.0000 0.73920  0.76680  0.38952  Biso   1.000  N
  H1       1.0000 0.91679  0.83865  0.39307  Biso   1.000  H
  C3       1.0000 0.66600  0.78080  0.42208  Biso   1.000  C
  H2       1.0000 0.70667  0.88025  0.48836  Biso   1.000  H
  C4       1.0000 0.70300  0.70100  0.33790  Biso   1.000  C
  H3       1.0000 0.58289  0.74563  0.41892  Biso   1.000  H
  C5       1.0000 0.70020  0.58030  0.34980  Biso   1.000  C
  H4       1.0000 0.76169  0.74581  0.31072  Biso   1.000  H
  H5       1.0000 0.62484  0.68636  0.32677  Biso   1.000  H
  C6       1.0000 0.56250  0.48270  0.30840  Biso   1.000  C
  H6       1.0000 0.65103  0.54499  0.38078  Biso   1.000  H
  H7       1.0000 0.66018  0.52575  0.32073  Biso   1.000  H
  C7       1.0000 0.60460  0.56180  0.35630  Biso   1.000  C
  C8       1.0000 0.70680  0.68700  0.34820  Biso   1.000  C
  H8       1.0000 0.62854  0.52314  0.38255  Biso   1.000  H
  H9       1.0000 0.53694  0.56655  0.37040  Biso   1.000  H
  H10      1.0000 0.77693  0.68202  0.33820  Biso   1.000  H
  H11      1.0000 0.68666  0.72161  0.31869  Biso   1.000  H
  N3       1.0000 0.51637  0.22063  0.78506  Biso   1.000  N
  C9       1.0000 0.51487  0.16563  0.74198  Biso   1.000  C
  C10      1.0000 0.40137  0.18823  0.79351  Biso   1.000  C
  N4       1.0000 0.40587  0.10013  0.72285  Biso   1.000  N
  H12      1.0000 0.58346  0.17198  0.72640  Biso   1.000  H
  C11      1.0000 0.33267  0.11413  0.75541  Biso   1.000  C
  H13      1.0000 0.37334  0.21358  0.82169  Biso   1.000  H
  C12      1.0000 0.36967  0.03433  0.67123  Biso   1.000  C
  H14      1.0000 0.24956  0.07896  0.75225  Biso   1.000  H
  C13      1.0000 0.36687  0.91363  0.68313  Biso   1.000  C
  H15      1.0000 0.42836  0.07914  0.64405  Biso   1.000  H
  H16      1.0000 0.29151  0.01969  0.66010  Biso   1.000  H
  C14      1.0000 0.22917  0.81603  0.64173  Biso   1.000  C
  H17      1.0000 0.31770  0.87832  0.71411  Biso   1.000  H
  H18      1.0000 0.32685  0.85908  0.65406  Biso   1.000  H
  C15      1.0000 0.27127  0.89513  0.68963  Biso   1.000  C
  C16      1.0000 0.37347  0.02033  0.68153  Biso   1.000  C
  H19      1.0000 0.29521  0.85647  0.71588  Biso   1.000  H
  H20      1.0000 0.20361  0.89988  0.70373  Biso   1.000  H
  H21      1.0000 0.44360  0.01535  0.67153  Biso   1.000  H
  H22      1.0000 0.35333  0.05494  0.65202  Biso   1.000  H
  N5       1.0000 0.18303  0.55397  0.11840  Biso   1.000  N
  C17      1.0000 0.18153  0.49897  0.07532  Biso   1.000  C
  C18      1.0000 0.06803  0.52157  0.12685  Biso   1.000  C
  N6       1.0000 0.07253  0.43347  0.05619  Biso   1.000  N
  H23      1.0000 0.25012  0.50532  0.05974  Biso   1.000  H
  C19      1.0000 0.99933  0.44747  0.08875  Biso   1.000  C
  H24      1.0000 0.04000  0.54692  0.15503  Biso   1.000  H
  C20      1.0000 0.03633  0.36767  0.00457  Biso   1.000  C
  H25      1.0000 0.91622  0.41230  0.08559  Biso   1.000  H
  C21      1.0000 0.03353  0.24697  0.01647  Biso   1.000  C
  H26      1.0000 0.09502  0.41248  0.97739  Biso   1.000  H
  H27      1.0000 0.95817  0.35303  0.99344  Biso   1.000  H
  C22      1.0000 0.89583  0.14937  0.97507  Biso   1.000  C
  H28      1.0000 0.98436  0.21166  0.04745  Biso   1.000  H
  H29      1.0000 0.99351  0.19242  0.98740  Biso   1.000  H
  C23      1.0000 0.93793  0.22847  0.02297  Biso   1.000  C
  C24      1.0000 0.04013  0.35367  0.01487  Biso   1.000  C
  H30      1.0000 0.96187  0.18981  0.04922  Biso   1.000  H
  H31      1.0000 0.87027  0.23322  0.03707  Biso   1.000  H
  H32      1.0000 0.11026  0.34869  0.00487  Biso   1.000  H
  H33      1.0000 0.01999  0.38828  0.98536  Biso   1.000  H
  N7       1.0000 0.11270  0.96240  0.45173  Biso   1.000  N
  C25      1.0000 0.16770  0.01590  0.40865  Biso   1.000  C
  C26      1.0000 0.14510  0.87980  0.46018  Biso   1.000  C
  N8       1.0000 0.23320  0.97240  0.38952  Biso   1.000  N
  H34      1.0000 0.16135  0.07814  0.39307  Biso   1.000  H
  C27      1.0000 0.21920  0.88520  0.42208  Biso   1.000  C
  H35      1.0000 0.11975  0.82642  0.48836  Biso   1.000  H
  C28      1.0000 0.29900  0.00200  0.33790  Biso   1.000  C
  H36      1.0000 0.25437  0.83726  0.41892  Biso   1.000  H
  C29      1.0000 0.41970  0.11990  0.34980  Biso   1.000  C
  H37      1.0000 0.25419  0.01588  0.31072  Biso   1.000  H
  H38      1.0000 0.31364  0.93848  0.32677  Biso   1.000  H
  C30      1.0000 0.51730  0.07980  0.30840  Biso   1.000  C
  H39      1.0000 0.45501  0.10604  0.38078  Biso   1.000  H
  H40      1.0000 0.47425  0.13443  0.32073  Biso   1.000  H
  C31      1.0000 0.43820  0.04280  0.35630  Biso   1.000  C
  C32      1.0000 0.31300  0.01980  0.34820  Biso   1.000  C
  H41      1.0000 0.47686  0.10540  0.38255  Biso   1.000  H
  H42      1.0000 0.43345  0.97039  0.37040  Biso   1.000  H
  H43      1.0000 0.31798  0.09491  0.33820  Biso   1.000  H
  H44      1.0000 0.27839  0.96505  0.31869  Biso   1.000  H
  N9       1.0000 0.77937  0.29573  0.78506  Biso   1.000  N
  C33      1.0000 0.83437  0.34923  0.74198  Biso   1.000  C
  C34      1.0000 0.81177  0.21313  0.79351  Biso   1.000  C
  N10      1.0000 0.89987  0.30573  0.72285  Biso   1.000  N
  H45      1.0000 0.82802  0.41147  0.72640  Biso   1.000  H
  C35      1.0000 0.88587  0.21853  0.75541  Biso   1.000  C
  H46      1.0000 0.78642  0.15975  0.82169  Biso   1.000  H
  C36      1.0000 0.96567  0.33533  0.67123  Biso   1.000  C
  H47      1.0000 0.92104  0.17059  0.75225  Biso   1.000  H
  C37      1.0000 0.08637  0.45323  0.68313  Biso   1.000  C
  H48      1.0000 0.92086  0.34921  0.64405  Biso   1.000  H
  H49      1.0000 0.98031  0.27181  0.66010  Biso   1.000  H
  C38      1.0000 0.18397  0.41313  0.64173  Biso   1.000  C
  H50      1.0000 0.12168  0.43937  0.71411  Biso   1.000  H
  H51      1.0000 0.14092  0.46776  0.65406  Biso   1.000  H
  C39      1.0000 0.10487  0.37613  0.68963  Biso   1.000  C
  C40      1.0000 0.97967  0.35313  0.68153  Biso   1.000  C
  H52      1.0000 0.14353  0.43873  0.71588  Biso   1.000  H
  H53      1.0000 0.10012  0.30372  0.70373  Biso   1.000  H
  H54      1.0000 0.98465  0.42824  0.67153  Biso   1.000  H
  H55      1.0000 0.94506  0.29838  0.65202  Biso   1.000  H
  N11      1.0000 0.44603  0.62907  0.11840  Biso   1.000  N
  C41      1.0000 0.50103  0.68257  0.07532  Biso   1.000  C
  C42      1.0000 0.47843  0.54647  0.12685  Biso   1.000  C
  N12      1.0000 0.56653  0.63907  0.05619  Biso   1.000  N
  H56      1.0000 0.49468  0.74481  0.05974  Biso   1.000  H
  C43      1.0000 0.55253  0.55187  0.08875  Biso   1.000  C
  H57      1.0000 0.45308  0.49309  0.15503  Biso   1.000  H
  C44      1.0000 0.63233  0.66867  0.00457  Biso   1.000  C
  H58      1.0000 0.58770  0.50393  0.08559  Biso   1.000  H
  C45      1.0000 0.75303  0.78657  0.01647  Biso   1.000  C
  H59      1.0000 0.58752  0.68255  0.97739  Biso   1.000  H
  H60      1.0000 0.64697  0.60515  0.99344  Biso   1.000  H
  C46      1.0000 0.85063  0.74647  0.97507  Biso   1.000  C
  H61      1.0000 0.78834  0.77271  0.04745  Biso   1.000  H
  H62      1.0000 0.80758  0.80110  0.98740  Biso   1.000  H
  C47      1.0000 0.77153  0.70947  0.02297  Biso   1.000  C
  C48      1.0000 0.64633  0.68647  0.01487  Biso   1.000  C
  H63      1.0000 0.81019  0.77207  0.04922  Biso   1.000  H
  H64      1.0000 0.76678  0.63706  0.03707  Biso   1.000  H
  H65      1.0000 0.65131  0.76158  0.00487  Biso   1.000  H
  H66      1.0000 0.61172  0.63172  0.98536  Biso   1.000  H
  N13      1.0000 0.03760  0.15030  0.45173  Biso   1.000  N
  C49      1.0000 0.98410  0.15180  0.40865  Biso   1.000  C
  C50      1.0000 0.12020  0.26530  0.46018  Biso   1.000  C
  N14      1.0000 0.02760  0.26080  0.38952  Biso   1.000  N
  H67      1.0000 0.92186  0.08321  0.39307  Biso   1.000  H
  C51      1.0000 0.11480  0.33400  0.42208  Biso   1.000  C
  H68      1.0000 0.17358  0.29333  0.48836  Biso   1.000  H
  C52      1.0000 0.99800  0.29700  0.33790  Biso   1.000  C
  H69      1.0000 0.16274  0.41711  0.41892  Biso   1.000  H
  C53      1.0000 0.88010  0.29980  0.34980  Biso   1.000  C
  H70      1.0000 0.98412  0.23831  0.31072  Biso   1.000  H
  H71      1.0000 0.06152  0.37516  0.32677  Biso   1.000  H
  C54      1.0000 0.92020  0.43750  0.30840  Biso   1.000  C
  H72      1.0000 0.89396  0.34897  0.38078  Biso   1.000  H
  H73      1.0000 0.86557  0.33982  0.32073  Biso   1.000  H
  C55      1.0000 0.95720  0.39540  0.35630  Biso   1.000  C
  C56      1.0000 0.98020  0.29320  0.34820  Biso   1.000  C
  H74      1.0000 0.89460  0.37146  0.38255  Biso   1.000  H
  H75      1.0000 0.02961  0.46306  0.37040  Biso   1.000  H
  H76      1.0000 0.90509  0.22307  0.33820  Biso   1.000  H
  H77      1.0000 0.03495  0.31334  0.31869  Biso   1.000  H
  N15      1.0000 0.70427  0.48363  0.78506  Biso   1.000  N
  C57      1.0000 0.65077  0.48513  0.74198  Biso   1.000  C
  C58      1.0000 0.78687  0.59863  0.79351  Biso   1.000  C
  N16      1.0000 0.69427  0.59413  0.72285  Biso   1.000  N
  H78      1.0000 0.58853  0.41654  0.72640  Biso   1.000  H
  C59      1.0000 0.78147  0.66733  0.75541  Biso   1.000  C
  H79      1.0000 0.84025  0.62666  0.82169  Biso   1.000  H
  C60      1.0000 0.66467  0.63033  0.67123  Biso   1.000  C
  H80      1.0000 0.82941  0.75044  0.75225  Biso   1.000  H
  C61      1.0000 0.54677  0.63313  0.68313  Biso   1.000  C
  H81      1.0000 0.65079  0.57164  0.64405  Biso   1.000  H
  H82      1.0000 0.72819  0.70849  0.66010  Biso   1.000  H
  C62      1.0000 0.58687  0.77083  0.64173  Biso   1.000  C
  H83      1.0000 0.56063  0.68230  0.71411  Biso   1.000  H
  H84      1.0000 0.53224  0.67315  0.65406  Biso   1.000  H
  C63      1.0000 0.62387  0.72873  0.68963  Biso   1.000  C
  C64      1.0000 0.64687  0.62653  0.68153  Biso   1.000  C
  H85      1.0000 0.56127  0.70479  0.71588  Biso   1.000  H
  H86      1.0000 0.69628  0.79639  0.70373  Biso   1.000  H
  H87      1.0000 0.57176  0.55640  0.67153  Biso   1.000  H
  H88      1.0000 0.70162  0.64667  0.65202  Biso   1.000  H
  N17      1.0000 0.37093  0.81697  0.11840  Biso   1.000  N
  C65      1.0000 0.31743  0.81847  0.07532  Biso   1.000  C
  C66      1.0000 0.45353  0.93197  0.12685  Biso   1.000  C
  N18      1.0000 0.36093  0.92747  0.05619  Biso   1.000  N
  H89      1.0000 0.25519  0.74988  0.05974  Biso   1.000  H
  C67      1.0000 0.44813  0.00067  0.08875  Biso   1.000  C
  H90      1.0000 0.50691  0.96000  0.15503  Biso   1.000  H
  C68      1.0000 0.33133  0.96367  0.00457  Biso   1.000  C
  H91      1.0000 0.49607  0.08378  0.08559  Biso   1.000  H
  C69      1.0000 0.21343  0.96647  0.01647  Biso   1.000  C
  H92      1.0000 0.31745  0.90498  0.97739  Biso   1.000  H
  H93      1.0000 0.39485  0.04183  0.99344  Biso   1.000  H
  C70      1.0000 0.25353  0.10417  0.97507  Biso   1.000  C
  H94      1.0000 0.22729  0.01564  0.04745  Biso   1.000  H
  H95      1.0000 0.19890  0.00649  0.98740  Biso   1.000  H
  C71      1.0000 0.29053  0.06207  0.02297  Biso   1.000  C
  C72      1.0000 0.31353  0.95987  0.01487  Biso   1.000  C
  H96      1.0000 0.22793  0.03813  0.04922  Biso   1.000  H
  H97      1.0000 0.36294  0.12973  0.03707  Biso   1.000  H
  H98      1.0000 0.23842  0.88974  0.00487  Biso   1.000  H
  H99      1.0000 0.36828  0.98001  0.98536  Biso   1.000  H
  N19      1.0000 0.15030  0.11270  0.54827  Biso   1.000  N
  C73      1.0000 0.15180  0.16770  0.59135  Biso   1.000  C
  C74      1.0000 0.26530  0.14510  0.53982  Biso   1.000  C
  N20      1.0000 0.26080  0.23320  0.61048  Biso   1.000  N
  H100     1.0000 0.08321  0.16135  0.60693  Biso   1.000  H
  C75      1.0000 0.33400  0.21920  0.57792  Biso   1.000  C
  H101     1.0000 0.29333  0.11975  0.51164  Biso   1.000  H
  C76      1.0000 0.29700  0.29900  0.66210  Biso   1.000  C
  H102     1.0000 0.41711  0.25437  0.58108  Biso   1.000  H
  C77      1.0000 0.29980  0.41970  0.65020  Biso   1.000  C
  H103     1.0000 0.23831  0.25419  0.68928  Biso   1.000  H
  H104     1.0000 0.37516  0.31364  0.67323  Biso   1.000  H
  C78      1.0000 0.43750  0.51730  0.69160  Biso   1.000  C
  H105     1.0000 0.34897  0.45501  0.61922  Biso   1.000  H
  H106     1.0000 0.33982  0.47425  0.67927  Biso   1.000  H
  C79      1.0000 0.39540  0.43820  0.64370  Biso   1.000  C
  C80      1.0000 0.29320  0.31300  0.65180  Biso   1.000  C
  H107     1.0000 0.37146  0.47686  0.61745  Biso   1.000  H
  H108     1.0000 0.46306  0.43345  0.62960  Biso   1.000  H
  H109     1.0000 0.22307  0.31798  0.66180  Biso   1.000  H
  H110     1.0000 0.31334  0.27839  0.68131  Biso   1.000  H
  N21      1.0000 0.81697  0.44603  0.88160  Biso   1.000  N
  C81      1.0000 0.81847  0.50103  0.92468  Biso   1.000  C
  C82      1.0000 0.93197  0.47843  0.87315  Biso   1.000  C
  N22      1.0000 0.92747  0.56653  0.94381  Biso   1.000  N
  H111     1.0000 0.74988  0.49468  0.94026  Biso   1.000  H
  C83      1.0000 0.00067  0.55253  0.91125  Biso   1.000  C
  H112     1.0000 0.96000  0.45308  0.84497  Biso   1.000  H
  C84      1.0000 0.96367  0.63233  0.99543  Biso   1.000  C
  H113     1.0000 0.08378  0.58770  0.91441  Biso   1.000  H
  C85      1.0000 0.96647  0.75303  0.98353  Biso   1.000  C
  H114     1.0000 0.90498  0.58752  0.02261  Biso   1.000  H
  H115     1.0000 0.04183  0.64697  0.00656  Biso   1.000  H
  C86      1.0000 0.10417  0.85063  0.02493  Biso   1.000  C
  H116     1.0000 0.01564  0.78834  0.95255  Biso   1.000  H
  H117     1.0000 0.00649  0.80758  0.01260  Biso   1.000  H
  C87      1.0000 0.06207  0.77153  0.97703  Biso   1.000  C
  C88      1.0000 0.95987  0.64633  0.98513  Biso   1.000  C
  H118     1.0000 0.03813  0.81019  0.95078  Biso   1.000  H
  H119     1.0000 0.12973  0.76678  0.96293  Biso   1.000  H
  H120     1.0000 0.88974  0.65131  0.99513  Biso   1.000  H
  H121     1.0000 0.98001  0.61172  0.01464  Biso   1.000  H
  N23      1.0000 0.48363  0.77937  0.21494  Biso   1.000  N
  C89      1.0000 0.48513  0.83437  0.25802  Biso   1.000  C
  C90      1.0000 0.59863  0.81177  0.20649  Biso   1.000  C
  N24      1.0000 0.59413  0.89987  0.27715  Biso   1.000  N
  H122     1.0000 0.41654  0.82802  0.27360  Biso   1.000  H
  C91      1.0000 0.66733  0.88587  0.24459  Biso   1.000  C
  H123     1.0000 0.62666  0.78642  0.17831  Biso   1.000  H
  C92      1.0000 0.63033  0.96567  0.32877  Biso   1.000  C
  H124     1.0000 0.75044  0.92104  0.24775  Biso   1.000  H
  C93      1.0000 0.63313  0.08637  0.31687  Biso   1.000  C
  H125     1.0000 0.57164  0.92086  0.35595  Biso   1.000  H
  H126     1.0000 0.70849  0.98031  0.33990  Biso   1.000  H
  C94      1.0000 0.77083  0.18397  0.35827  Biso   1.000  C
  H127     1.0000 0.68230  0.12168  0.28589  Biso   1.000  H
  H128     1.0000 0.67315  0.14092  0.34594  Biso   1.000  H
  C95      1.0000 0.72873  0.10487  0.31037  Biso   1.000  C
  C96      1.0000 0.62653  0.97967  0.31847  Biso   1.000  C
  H129     1.0000 0.70479  0.14353  0.28412  Biso   1.000  H
  H130     1.0000 0.79639  0.10012  0.29627  Biso   1.000  H
  H131     1.0000 0.55640  0.98465  0.32847  Biso   1.000  H
  H132     1.0000 0.64667  0.94506  0.34798  Biso   1.000  H
  N25      1.0000 0.88730  0.03760  0.54827  Biso   1.000  N
  C97      1.0000 0.83230  0.98410  0.59135  Biso   1.000  C
  C98      1.0000 0.85490  0.12020  0.53982  Biso   1.000  C
  N26      1.0000 0.76680  0.02760  0.61048  Biso   1.000  N
  H133     1.0000 0.83865  0.92186  0.60693  Biso   1.000  H
  C99      1.0000 0.78080  0.11480  0.57792  Biso   1.000  C
  H134     1.0000 0.88025  0.17358  0.51164  Biso   1.000  H
  C100     1.0000 0.70100  0.99800  0.66210  Biso   1.000  C
  H135     1.0000 0.74563  0.16274  0.58108  Biso   1.000  H
  C101     1.0000 0.58030  0.88010  0.65020  Biso   1.000  C
  H136     1.0000 0.74581  0.98412  0.68928  Biso   1.000  H
  H137     1.0000 0.68636  0.06152  0.67323  Biso   1.000  H
  C102     1.0000 0.48270  0.92020  0.69160  Biso   1.000  C
  H138     1.0000 0.54499  0.89396  0.61922  Biso   1.000  H
  H139     1.0000 0.52575  0.86557  0.67927  Biso   1.000  H
  C103     1.0000 0.56180  0.95720  0.64370  Biso   1.000  C
  C104     1.0000 0.68700  0.98020  0.65180  Biso   1.000  C
  H140     1.0000 0.52314  0.89460  0.61745  Biso   1.000  H
  H141     1.0000 0.56655  0.02961  0.62960  Biso   1.000  H
  H142     1.0000 0.68202  0.90509  0.66180  Biso   1.000  H
  H143     1.0000 0.72161  0.03495  0.68131  Biso   1.000  H
  N27      1.0000 0.55397  0.37093  0.88160  Biso   1.000  N
  C105     1.0000 0.49897  0.31743  0.92468  Biso   1.000  C
  C106     1.0000 0.52157  0.45353  0.87315  Biso   1.000  C
  N28      1.0000 0.43347  0.36093  0.94381  Biso   1.000  N
  H144     1.0000 0.50532  0.25519  0.94026  Biso   1.000  H
  C107     1.0000 0.44747  0.44813  0.91125  Biso   1.000  C
  H145     1.0000 0.54692  0.50691  0.84497  Biso   1.000  H
  C108     1.0000 0.36767  0.33133  0.99543  Biso   1.000  C
  H146     1.0000 0.41230  0.49607  0.91441  Biso   1.000  H
  C109     1.0000 0.24697  0.21343  0.98353  Biso   1.000  C
  H147     1.0000 0.41248  0.31745  0.02261  Biso   1.000  H
  H148     1.0000 0.35303  0.39485  0.00656  Biso   1.000  H
  C110     1.0000 0.14937  0.25353  0.02493  Biso   1.000  C
  H149     1.0000 0.21166  0.22729  0.95255  Biso   1.000  H
  H150     1.0000 0.19242  0.19890  0.01260  Biso   1.000  H
  C111     1.0000 0.22847  0.29053  0.97703  Biso   1.000  C
  C112     1.0000 0.35367  0.31353  0.98513  Biso   1.000  C
  H151     1.0000 0.18981  0.22793  0.95078  Biso   1.000  H
  H152     1.0000 0.23322  0.36294  0.96293  Biso   1.000  H
  H153     1.0000 0.34869  0.23842  0.99513  Biso   1.000  H
  H154     1.0000 0.38828  0.36828  0.01464  Biso   1.000  H
  N29      1.0000 0.22063  0.70427  0.21494  Biso   1.000  N
  C113     1.0000 0.16563  0.65077  0.25802  Biso   1.000  C
  C114     1.0000 0.18823  0.78687  0.20649  Biso   1.000  C
  N30      1.0000 0.10013  0.69427  0.27715  Biso   1.000  N
  H155     1.0000 0.17198  0.58853  0.27360  Biso   1.000  H
  C115     1.0000 0.11413  0.78147  0.24459  Biso   1.000  C
  H156     1.0000 0.21358  0.84025  0.17831  Biso   1.000  H
  C116     1.0000 0.03433  0.66467  0.32877  Biso   1.000  C
  H157     1.0000 0.07896  0.82941  0.24775  Biso   1.000  H
  C117     1.0000 0.91363  0.54677  0.31687  Biso   1.000  C
  H158     1.0000 0.07914  0.65079  0.35595  Biso   1.000  H
  H159     1.0000 0.01969  0.72819  0.33990  Biso   1.000  H
  C118     1.0000 0.81603  0.58687  0.35827  Biso   1.000  C
  H160     1.0000 0.87832  0.56063  0.28589  Biso   1.000  H
  H161     1.0000 0.85908  0.53224  0.34594  Biso   1.000  H
  C119     1.0000 0.89513  0.62387  0.31037  Biso   1.000  C
  C120     1.0000 0.02033  0.64687  0.31847  Biso   1.000  C
  H162     1.0000 0.85647  0.56127  0.28412  Biso   1.000  H
  H163     1.0000 0.89988  0.69628  0.29627  Biso   1.000  H
  H164     1.0000 0.01535  0.57176  0.32847  Biso   1.000  H
  H165     1.0000 0.05494  0.70162  0.34798  Biso   1.000  H
  N31      1.0000 0.96240  0.84970  0.54827  Biso   1.000  N
  C121     1.0000 0.01590  0.84820  0.59135  Biso   1.000  C
  C122     1.0000 0.87980  0.73470  0.53982  Biso   1.000  C
  N32      1.0000 0.97240  0.73920  0.61048  Biso   1.000  N
  H166     1.0000 0.07814  0.91679  0.60693  Biso   1.000  H
  C123     1.0000 0.88520  0.66600  0.57792  Biso   1.000  C
  H167     1.0000 0.82642  0.70667  0.51164  Biso   1.000  H
  C124     1.0000 0.00200  0.70300  0.66210  Biso   1.000  C
  H168     1.0000 0.83726  0.58289  0.58108  Biso   1.000  H
  C125     1.0000 0.11990  0.70020  0.65020  Biso   1.000  C
  H169     1.0000 0.01588  0.76169  0.68928  Biso   1.000  H
  H170     1.0000 0.93848  0.62484  0.67323  Biso   1.000  H
  C126     1.0000 0.07980  0.56250  0.69160  Biso   1.000  C
  H171     1.0000 0.10604  0.65103  0.61922  Biso   1.000  H
  H172     1.0000 0.13443  0.66018  0.67927  Biso   1.000  H
  C127     1.0000 0.04280  0.60460  0.64370  Biso   1.000  C
  C128     1.0000 0.01980  0.70680  0.65180  Biso   1.000  C
  H173     1.0000 0.10540  0.62854  0.61745  Biso   1.000  H
  H174     1.0000 0.97039  0.53694  0.62960  Biso   1.000  H
  H175     1.0000 0.09491  0.77693  0.66180  Biso   1.000  H
  H176     1.0000 0.96505  0.68666  0.68131  Biso   1.000  H
  N33      1.0000 0.62907  0.18303  0.88160  Biso   1.000  N
  C129     1.0000 0.68257  0.18153  0.92468  Biso   1.000  C
  C130     1.0000 0.54647  0.06803  0.87315  Biso   1.000  C
  N34      1.0000 0.63907  0.07253  0.94381  Biso   1.000  N
  H177     1.0000 0.74481  0.25012  0.94026  Biso   1.000  H
  C131     1.0000 0.55187  0.99933  0.91125  Biso   1.000  C
  H178     1.0000 0.49309  0.04000  0.84497  Biso   1.000  H
  C132     1.0000 0.66867  0.03633  0.99543  Biso   1.000  C
  H179     1.0000 0.50393  0.91622  0.91441  Biso   1.000  H
  C133     1.0000 0.78657  0.03353  0.98353  Biso   1.000  C
  H180     1.0000 0.68255  0.09502  0.02261  Biso   1.000  H
  H181     1.0000 0.60515  0.95817  0.00656  Biso   1.000  H
  C134     1.0000 0.74647  0.89583  0.02493  Biso   1.000  C
  H182     1.0000 0.77271  0.98436  0.95255  Biso   1.000  H
  H183     1.0000 0.80110  0.99351  0.01260  Biso   1.000  H
  C135     1.0000 0.70947  0.93793  0.97703  Biso   1.000  C
  C136     1.0000 0.68647  0.04013  0.98513  Biso   1.000  C
  H184     1.0000 0.77207  0.96187  0.95078  Biso   1.000  H
  H185     1.0000 0.63706  0.87027  0.96293  Biso   1.000  H
  H186     1.0000 0.76158  0.11026  0.99513  Biso   1.000  H
  H187     1.0000 0.63172  0.01999  0.01464  Biso   1.000  H
  N35      1.0000 0.29573  0.51637  0.21494  Biso   1.000  N
  C137     1.0000 0.34923  0.51487  0.25802  Biso   1.000  C
  C138     1.0000 0.21313  0.40137  0.20649  Biso   1.000  C
  N36      1.0000 0.30573  0.40587  0.27715  Biso   1.000  N
  H188     1.0000 0.41147  0.58346  0.27360  Biso   1.000  H
  C139     1.0000 0.21853  0.33267  0.24459  Biso   1.000  C
  H189     1.0000 0.15975  0.37334  0.17831  Biso   1.000  H
  C140     1.0000 0.33533  0.36967  0.32877  Biso   1.000  C
  H190     1.0000 0.17059  0.24956  0.24775  Biso   1.000  H
  C141     1.0000 0.45323  0.36687  0.31687  Biso   1.000  C
  H191     1.0000 0.34921  0.42836  0.35595  Biso   1.000  H
  H192     1.0000 0.27181  0.29151  0.33990  Biso   1.000  H
  C142     1.0000 0.41313  0.22917  0.35827  Biso   1.000  C
  H193     1.0000 0.43937  0.31770  0.28589  Biso   1.000  H
  H194     1.0000 0.46776  0.32685  0.34594  Biso   1.000  H
  C143     1.0000 0.37613  0.27127  0.31037  Biso   1.000  C
  C144     1.0000 0.35313  0.37347  0.31847  Biso   1.000  C
  H195     1.0000 0.43873  0.29521  0.28412  Biso   1.000  H
  H196     1.0000 0.30372  0.20361  0.29627  Biso   1.000  H
  H197     1.0000 0.42824  0.44360  0.32847  Biso   1.000  H
  H198     1.0000 0.29838  0.35333  0.34798  Biso   1.000  H
  Co1      1.0000 0.00000  0.00000  0.50000  Biso   1.000  Co
  Co2      1.0000 0.66667  0.33333  0.83333  Biso   1.000  Co
  Co3      1.0000 0.33333  0.66667  0.16667  Biso   1.000  Co
