data_image0
_cell_length_a       6.2152
_cell_length_b       18.8391
_cell_length_c       16.6568
_cell_angle_alpha    90
_cell_angle_beta     92.2293
_cell_angle_gamma    90

_symmetry_space_group_name_H-M    "P 1"
_symmetry_int_tables_number       1

loop_
  _symmetry_equiv_pos_as_xyz
  'x, y, z'

loop_
  _atom_site_label
  _atom_site_occupancy
  _atom_site_fract_x
  _atom_site_fract_y
  _atom_site_fract_z
  _atom_site_thermal_displace_type
  _atom_site_B_iso_or_equiv
  _atom_site_type_symbol
  Ga1      1.0000 0.76728  0.44126  0.59771  Biso   1.000  Ga
  O1       1.0000 0.75770  0.49210  0.49951  Biso   1.000  O
  O2       1.0000 0.77350  0.51849  0.67576  Biso   1.000  O
  O3       1.0000 0.46030  0.44167  0.60533  Biso   1.000  O
  O4       1.0000 0.07420  0.43504  0.60813  Biso   1.000  O
  O5       1.0000 0.76320  0.36175  0.68426  Biso   1.000  O
  O6       1.0000 0.75890  0.35303  0.52556  Biso   1.000  O
  P1       1.0000 0.74114  0.55873  0.44932  Biso   1.000  P
  P2       1.0000 0.83625  0.53572  0.76108  Biso   1.000  P
  O7       1.0000 0.73910  0.62326  0.50768  Biso   1.000  O
  O8       1.0000 0.69830  0.59471  0.79144  Biso   1.000  O
  O9       1.0000 0.81570  0.46763  0.81220  Biso   1.000  O
  O10      1.0000 0.07910  0.55873  0.76600  Biso   1.000  O
  H1       1.0000 0.73020  0.66010  0.48160  Biso   1.000  H
  Ga2      1.0000 0.71357  0.65813  0.88290  Biso   1.000  Ga
  H2       1.0000 0.84970  0.47650  0.85920  Biso   1.000  H
  H3       1.0000 0.11470  0.56830  0.81270  Biso   1.000  H
  O11      1.0000 0.40850  0.65810  0.87890  Biso   1.000  O
  O12      1.0000 0.70890  0.58321  0.96550  Biso   1.000  O
  O13      1.0000 0.72340  0.74359  0.80784  Biso   1.000  O
  O14      1.0000 0.72810  0.73486  0.96682  Biso   1.000  O
  O15      1.0000 0.02570  0.65072  0.88353  Biso   1.000  O
  P3       1.0000 0.22093  0.69046  0.92124  Biso   1.000  P
  P4       1.0000 0.81290  0.53097  0.01756  Biso   1.000  P
  C1       1.0000 0.73120  0.80080  0.84490  Biso   1.000  C
  C2       1.0000 0.73370  0.79590  0.93750  Biso   1.000  C
  O16      1.0000 0.23340  0.67190  0.01280  Biso   1.000  O
  O17      1.0000 0.20790  0.76901  0.91390  Biso   1.000  O
  O18      1.0000 0.89060  0.46780  0.96840  Biso   1.000  O
  O19      1.0000 0.99230  0.56870  0.06510  Biso   1.000  O
  O20      1.0000 0.63900  0.50640  0.08960  Biso   1.000  O
  H4       1.0000 0.24070  0.62880  0.01850  Biso   1.000  H
  Ga3      1.0000 0.73272  0.94126  0.90229  Biso   1.000  Ga
  O21      1.0000 0.74230  0.99210  0.00049  Biso   1.000  O
  O22      1.0000 0.72650  0.01849  0.82424  Biso   1.000  O
  O23      1.0000 0.03970  0.94167  0.89467  Biso   1.000  O
  O24      1.0000 0.42580  0.93504  0.89187  Biso   1.000  O
  O25      1.0000 0.73680  0.86175  0.81574  Biso   1.000  O
  O26      1.0000 0.74110  0.85303  0.97444  Biso   1.000  O
  P5       1.0000 0.75886  0.05873  0.05068  Biso   1.000  P
  P6       1.0000 0.66375  0.03572  0.73892  Biso   1.000  P
  O27      1.0000 0.76090  0.12326  0.99232  Biso   1.000  O
  O28      1.0000 0.80170  0.09471  0.70856  Biso   1.000  O
  O29      1.0000 0.68430  0.96763  0.68780  Biso   1.000  O
  O30      1.0000 0.42090  0.05873  0.73400  Biso   1.000  O
  H5       1.0000 0.76980  0.16010  0.01840  Biso   1.000  H
  Ga4      1.0000 0.78643  0.15813  0.61710  Biso   1.000  Ga
  H6       1.0000 0.65030  0.97650  0.64080  Biso   1.000  H
  H7       1.0000 0.38530  0.06830  0.68730  Biso   1.000  H
  O31      1.0000 0.09150  0.15810  0.62110  Biso   1.000  O
  O32      1.0000 0.79110  0.08321  0.53450  Biso   1.000  O
  O33      1.0000 0.77660  0.24359  0.69216  Biso   1.000  O
  O34      1.0000 0.77190  0.23486  0.53318  Biso   1.000  O
  O35      1.0000 0.47430  0.15072  0.61647  Biso   1.000  O
  P7       1.0000 0.27907  0.19046  0.57876  Biso   1.000  P
  P8       1.0000 0.68710  0.03097  0.48244  Biso   1.000  P
  C3       1.0000 0.76880  0.30080  0.65510  Biso   1.000  C
  C4       1.0000 0.76630  0.29590  0.56250  Biso   1.000  C
  O36      1.0000 0.26660  0.17190  0.48720  Biso   1.000  O
  O37      1.0000 0.29210  0.26901  0.58610  Biso   1.000  O
  O38      1.0000 0.60940  0.96780  0.53160  Biso   1.000  O
  O39      1.0000 0.50770  0.06870  0.43490  Biso   1.000  O
  O40      1.0000 0.86100  0.00640  0.41040  Biso   1.000  O
  H8       1.0000 0.25930  0.12880  0.48150  Biso   1.000  H
  Ga5      1.0000 0.23272  0.55874  0.40229  Biso   1.000  Ga
  O41      1.0000 0.24230  0.50790  0.50049  Biso   1.000  O
  O42      1.0000 0.22650  0.48151  0.32424  Biso   1.000  O
  O43      1.0000 0.53970  0.55833  0.39467  Biso   1.000  O
  O44      1.0000 0.92580  0.56496  0.39187  Biso   1.000  O
  O45      1.0000 0.23680  0.63825  0.31574  Biso   1.000  O
  O46      1.0000 0.24110  0.64697  0.47444  Biso   1.000  O
  P9       1.0000 0.25886  0.44127  0.55068  Biso   1.000  P
  P10      1.0000 0.16375  0.46428  0.23892  Biso   1.000  P
  O47      1.0000 0.26090  0.37674  0.49232  Biso   1.000  O
  O48      1.0000 0.30170  0.40529  0.20856  Biso   1.000  O
  O49      1.0000 0.18430  0.53237  0.18780  Biso   1.000  O
  O50      1.0000 0.92090  0.44127  0.23400  Biso   1.000  O
  H9       1.0000 0.26980  0.33990  0.51840  Biso   1.000  H
  Ga6      1.0000 0.28643  0.34187  0.11710  Biso   1.000  Ga
  H10      1.0000 0.15030  0.52350  0.14080  Biso   1.000  H
  H11      1.0000 0.88530  0.43170  0.18730  Biso   1.000  H
  O51      1.0000 0.59150  0.34190  0.12110  Biso   1.000  O
  O52      1.0000 0.29110  0.41679  0.03450  Biso   1.000  O
  O53      1.0000 0.27660  0.25641  0.19216  Biso   1.000  O
  O54      1.0000 0.27190  0.26514  0.03318  Biso   1.000  O
  O55      1.0000 0.97430  0.34928  0.11647  Biso   1.000  O
  P11      1.0000 0.77907  0.30954  0.07876  Biso   1.000  P
  P12      1.0000 0.18710  0.46903  0.98244  Biso   1.000  P
  C5       1.0000 0.26880  0.19920  0.15510  Biso   1.000  C
  C6       1.0000 0.26630  0.20410  0.06250  Biso   1.000  C
  O56      1.0000 0.76660  0.32810  0.98720  Biso   1.000  O
  O57      1.0000 0.79210  0.23099  0.08610  Biso   1.000  O
  O58      1.0000 0.10940  0.53220  0.03160  Biso   1.000  O
  O59      1.0000 0.00770  0.43130  0.93490  Biso   1.000  O
  O60      1.0000 0.36100  0.49360  0.91040  Biso   1.000  O
  H12      1.0000 0.75930  0.37120  0.98150  Biso   1.000  H
  Ga7      1.0000 0.26728  0.05874  0.09771  Biso   1.000  Ga
  O61      1.0000 0.25770  0.00790  0.99951  Biso   1.000  O
  O62      1.0000 0.27350  0.98151  0.17576  Biso   1.000  O
  O63      1.0000 0.96030  0.05833  0.10533  Biso   1.000  O
  O64      1.0000 0.57420  0.06496  0.10813  Biso   1.000  O
  O65      1.0000 0.26320  0.13825  0.18426  Biso   1.000  O
  O66      1.0000 0.25890  0.14697  0.02556  Biso   1.000  O
  P13      1.0000 0.24114  0.94127  0.94932  Biso   1.000  P
  P14      1.0000 0.33625  0.96428  0.26108  Biso   1.000  P
  O67      1.0000 0.23910  0.87674  0.00768  Biso   1.000  O
  O68      1.0000 0.19830  0.90529  0.29144  Biso   1.000  O
  O69      1.0000 0.31570  0.03237  0.31220  Biso   1.000  O
  O70      1.0000 0.57910  0.94127  0.26600  Biso   1.000  O
  H13      1.0000 0.23020  0.83990  0.98160  Biso   1.000  H
  Ga8      1.0000 0.21357  0.84187  0.38290  Biso   1.000  Ga
  H14      1.0000 0.34970  0.02350  0.35920  Biso   1.000  H
  H15      1.0000 0.61470  0.93170  0.31270  Biso   1.000  H
  O71      1.0000 0.90850  0.84190  0.37890  Biso   1.000  O
  O72      1.0000 0.20890  0.91679  0.46550  Biso   1.000  O
  O73      1.0000 0.22340  0.75641  0.30784  Biso   1.000  O
  O74      1.0000 0.22810  0.76514  0.46682  Biso   1.000  O
  O75      1.0000 0.52570  0.84928  0.38353  Biso   1.000  O
  P15      1.0000 0.72093  0.80954  0.42124  Biso   1.000  P
  P16      1.0000 0.31290  0.96903  0.51756  Biso   1.000  P
  C7       1.0000 0.23120  0.69920  0.34490  Biso   1.000  C
  C8       1.0000 0.23370  0.70410  0.43750  Biso   1.000  C
  O76      1.0000 0.73340  0.82810  0.51280  Biso   1.000  O
  O77      1.0000 0.70790  0.73099  0.41390  Biso   1.000  O
  O78      1.0000 0.39060  0.03220  0.46840  Biso   1.000  O
  O79      1.0000 0.49230  0.93130  0.56510  Biso   1.000  O
  O80      1.0000 0.13900  0.99360  0.58960  Biso   1.000  O
  H16      1.0000 0.74070  0.87120  0.51850  Biso   1.000  H
