data_image0
_cell_length_a       8.668
_cell_length_b       17.558
_cell_length_c       9.186
_cell_angle_alpha    90
_cell_angle_beta     107.75
_cell_angle_gamma    90

_symmetry_space_group_name_H-M    "P 1"
_symmetry_int_tables_number       1

loop_
  _symmetry_equiv_pos_as_xyz
  'x, y, z'

loop_
  _atom_site_label
  _atom_site_occupancy
  _atom_site_fract_x
  _atom_site_fract_y
  _atom_site_fract_z
  _atom_site_thermal_displace_type
  _atom_site_B_iso_or_equiv
  _atom_site_type_symbol
  Al1      1.0000 0.08330  0.29730  0.28500  Biso   1.000  Al
  Al2      1.0000 0.14270  0.11130  0.15510  Biso   1.000  Al
  Al3      1.0000 0.53580  0.32360  0.18040  Biso   1.000  Al
  P1       1.0000 0.35970  0.42580  0.34750  Biso   1.000  P
  P2       1.0000 0.81640  0.29440  0.46540  Biso   1.000  P
  P3       1.0000 0.27530  0.16950  0.48960  Biso   1.000  P
  O1       1.0000 0.04830  0.20660  0.18080  Biso   1.000  O
  O2       1.0000 0.20350  0.38070  0.29340  Biso   1.000  O
  O3       1.0000 0.25170  0.25260  0.43830  Biso   1.000  O
  O4       1.0000 0.95260  0.31310  0.40060  Biso   1.000  O
  O5       1.0000 0.43930  0.15770  0.60920  Biso   1.000  O
  O6       1.0000 0.46520  0.40530  0.24590  Biso   1.000  O
  O7       1.0000 0.86460  0.22740  0.57610  Biso   1.000  O
  O8       1.0000 0.14140  0.14570  0.55870  Biso   1.000  O
  O9       1.0000 0.66310  0.27260  0.33430  Biso   1.000  O
  O10      1.0000 0.26580  0.11630  0.35550  Biso   1.000  O
  O11      1.0000 0.45170  0.40610  0.51140  Biso   1.000  O
  O12      1.0000 0.31600  0.50900  0.32720  Biso   1.000  O
  O13      1.0000 0.77950  0.36290  0.55040  Biso   1.000  O
  Al4      1.0000 0.41670  0.79730  0.21500  Biso   1.000  Al
  Al5      1.0000 0.35730  0.61130  0.34490  Biso   1.000  Al
  Al6      1.0000 0.96420  0.82360  0.31960  Biso   1.000  Al
  P4       1.0000 0.14030  0.92580  0.15250  Biso   1.000  P
  P5       1.0000 0.68360  0.79440  0.03460  Biso   1.000  P
  P6       1.0000 0.22470  0.66950  0.01040  Biso   1.000  P
  O14      1.0000 0.45170  0.70660  0.31920  Biso   1.000  O
  O15      1.0000 0.29650  0.88070  0.20660  Biso   1.000  O
  O16      1.0000 0.24830  0.75260  0.06170  Biso   1.000  O
  O17      1.0000 0.54740  0.81310  0.09940  Biso   1.000  O
  O18      1.0000 0.06070  0.65770  0.89080  Biso   1.000  O
  O19      1.0000 0.03480  0.90530  0.25410  Biso   1.000  O
  O20      1.0000 0.63540  0.72740  0.92390  Biso   1.000  O
  O21      1.0000 0.35860  0.64570  0.94130  Biso   1.000  O
  O22      1.0000 0.83690  0.77260  0.16570  Biso   1.000  O
  O23      1.0000 0.23420  0.61630  0.14450  Biso   1.000  O
  O24      1.0000 0.04830  0.90610  0.98860  Biso   1.000  O
  O25      1.0000 0.18400  0.00900  0.17280  Biso   1.000  O
  O26      1.0000 0.72050  0.86290  0.94960  Biso   1.000  O
  Al7      1.0000 0.91670  0.70270  0.71500  Biso   1.000  Al
  Al8      1.0000 0.85730  0.88870  0.84490  Biso   1.000  Al
  Al9      1.0000 0.46420  0.67640  0.81960  Biso   1.000  Al
  P7       1.0000 0.64030  0.57420  0.65250  Biso   1.000  P
  P8       1.0000 0.18360  0.70560  0.53460  Biso   1.000  P
  P9       1.0000 0.72470  0.83050  0.51040  Biso   1.000  P
  O27      1.0000 0.95170  0.79340  0.81920  Biso   1.000  O
  O28      1.0000 0.79650  0.61930  0.70660  Biso   1.000  O
  O29      1.0000 0.74830  0.74740  0.56170  Biso   1.000  O
  O30      1.0000 0.04740  0.68690  0.59940  Biso   1.000  O
  O31      1.0000 0.56070  0.84230  0.39080  Biso   1.000  O
  O32      1.0000 0.53480  0.59470  0.75410  Biso   1.000  O
  O33      1.0000 0.13540  0.77260  0.42390  Biso   1.000  O
  O34      1.0000 0.85860  0.85430  0.44130  Biso   1.000  O
  O35      1.0000 0.33690  0.72740  0.66570  Biso   1.000  O
  O36      1.0000 0.73420  0.88370  0.64450  Biso   1.000  O
  O37      1.0000 0.54830  0.59390  0.48860  Biso   1.000  O
  O38      1.0000 0.68400  0.49100  0.67280  Biso   1.000  O
  O39      1.0000 0.22050  0.63710  0.44960  Biso   1.000  O
  Al10     1.0000 0.58330  0.20270  0.78500  Biso   1.000  Al
  Al11     1.0000 0.64270  0.38870  0.65510  Biso   1.000  Al
  Al12     1.0000 0.03580  0.17640  0.68040  Biso   1.000  Al
  P10      1.0000 0.85970  0.07420  0.84750  Biso   1.000  P
  P11      1.0000 0.31640  0.20560  0.96540  Biso   1.000  P
  P12      1.0000 0.77530  0.33050  0.98960  Biso   1.000  P
  O40      1.0000 0.54830  0.29340  0.68080  Biso   1.000  O
  O41      1.0000 0.70350  0.11930  0.79340  Biso   1.000  O
  O42      1.0000 0.75170  0.24740  0.93830  Biso   1.000  O
  O43      1.0000 0.45260  0.18690  0.90060  Biso   1.000  O
  O44      1.0000 0.93930  0.34230  0.10920  Biso   1.000  O
  O45      1.0000 0.96520  0.09470  0.74590  Biso   1.000  O
  O46      1.0000 0.36460  0.27260  0.07610  Biso   1.000  O
  O47      1.0000 0.64140  0.35430  0.05870  Biso   1.000  O
  O48      1.0000 0.16310  0.22740  0.83430  Biso   1.000  O
  O49      1.0000 0.76580  0.38370  0.85550  Biso   1.000  O
  O50      1.0000 0.95170  0.09390  0.01140  Biso   1.000  O
  O51      1.0000 0.81600  0.99100  0.82720  Biso   1.000  O
  O52      1.0000 0.27950  0.13710  0.05040  Biso   1.000  O
