data_image0
_cell_length_a       18.7387
_cell_length_b       18.7387
_cell_length_c       37.4863
_cell_angle_alpha    90
_cell_angle_beta     90
_cell_angle_gamma    120

_symmetry_space_group_name_H-M    "P 1"
_symmetry_int_tables_number       1

loop_
  _symmetry_equiv_pos_as_xyz
  'x, y, z'

loop_
  _atom_site_label
  _atom_site_occupancy
  _atom_site_fract_x
  _atom_site_fract_y
  _atom_site_fract_z
  _atom_site_thermal_displace_type
  _atom_site_B_iso_or_equiv
  _atom_site_type_symbol
  C1       1.0000 0.47021  0.40133  0.58897  Biso   1.000  C
  H1       1.0000 0.42110  0.36240  0.57720  Biso   1.000  H
  C2       1.0000 0.48540  0.38656  0.62322  Biso   1.000  C
  C3       1.0000 0.42713  0.30607  0.64074  Biso   1.000  C
  C4       1.0000 0.54320  0.56720  0.52306  Biso   1.000  C
  H2       1.0000 0.56830  0.61350  0.53860  Biso   1.000  H
  N1       1.0000 0.57410  0.53500  0.51275  Biso   1.000  N
  O1       1.0000 0.44469  0.29495  0.67180  Biso   1.000  O
  O2       1.0000 0.36607  0.25636  0.62271  Biso   1.000  O
  C5       1.0000 0.13688  0.73466  0.92230  Biso   1.000  C
  H3       1.0000 0.08777  0.69573  0.91053  Biso   1.000  H
  C6       1.0000 0.15207  0.71989  0.95655  Biso   1.000  C
  C7       1.0000 0.09380  0.63940  0.97407  Biso   1.000  C
  C8       1.0000 0.20987  0.90053  0.85639  Biso   1.000  C
  H4       1.0000 0.23497  0.94683  0.87193  Biso   1.000  H
  N2       1.0000 0.24077  0.86833  0.84608  Biso   1.000  N
  O3       1.0000 0.11136  0.62828  0.00513  Biso   1.000  O
  O4       1.0000 0.03274  0.58969  0.95604  Biso   1.000  O
  C9       1.0000 0.80354  0.06800  0.25564  Biso   1.000  C
  H5       1.0000 0.75443  0.02907  0.24387  Biso   1.000  H
  C10      1.0000 0.81873  0.05323  0.28989  Biso   1.000  C
  C11      1.0000 0.76046  0.97274  0.30741  Biso   1.000  C
  C12      1.0000 0.87653  0.23387  0.18973  Biso   1.000  C
  H6       1.0000 0.90163  0.28017  0.20527  Biso   1.000  H
  N3       1.0000 0.90743  0.20167  0.17942  Biso   1.000  N
  O5       1.0000 0.77802  0.96162  0.33847  Biso   1.000  O
  O6       1.0000 0.69940  0.92303  0.28938  Biso   1.000  O
  C13      1.0000 0.59867  0.06888  0.58897  Biso   1.000  C
  H7       1.0000 0.63760  0.05870  0.57720  Biso   1.000  H
  C14      1.0000 0.61344  0.09884  0.62322  Biso   1.000  C
  C15      1.0000 0.69393  0.12106  0.64074  Biso   1.000  C
  C16      1.0000 0.43280  0.97600  0.52306  Biso   1.000  C
  H8       1.0000 0.38650  0.95480  0.53860  Biso   1.000  H
  N4       1.0000 0.46500  0.03910  0.51275  Biso   1.000  N
  O7       1.0000 0.70505  0.14974  0.67180  Biso   1.000  O
  O8       1.0000 0.74364  0.10971  0.62271  Biso   1.000  O
  C17      1.0000 0.26534  0.40221  0.92230  Biso   1.000  C
  H9       1.0000 0.30427  0.39203  0.91053  Biso   1.000  H
  C18      1.0000 0.28011  0.43217  0.95655  Biso   1.000  C
  C19      1.0000 0.36060  0.45439  0.97407  Biso   1.000  C
  C20      1.0000 0.09947  0.30933  0.85639  Biso   1.000  C
  H10      1.0000 0.05317  0.28813  0.87193  Biso   1.000  H
  N5       1.0000 0.13167  0.37243  0.84608  Biso   1.000  N
  O9       1.0000 0.37172  0.48307  0.00513  Biso   1.000  O
  O10      1.0000 0.41031  0.44304  0.95604  Biso   1.000  O
  C21      1.0000 0.93200  0.73555  0.25564  Biso   1.000  C
  H11      1.0000 0.97093  0.72537  0.24387  Biso   1.000  H
  C22      1.0000 0.94677  0.76551  0.28989  Biso   1.000  C
  C23      1.0000 0.02726  0.78773  0.30741  Biso   1.000  C
  C24      1.0000 0.76613  0.64267  0.18973  Biso   1.000  C
  H12      1.0000 0.71983  0.62147  0.20527  Biso   1.000  H
  N6       1.0000 0.79833  0.70577  0.17942  Biso   1.000  N
  O11      1.0000 0.03838  0.81641  0.33847  Biso   1.000  O
  O12      1.0000 0.07697  0.77638  0.28938  Biso   1.000  O
  C25      1.0000 0.93112  0.52979  0.58897  Biso   1.000  C
  H13      1.0000 0.94130  0.57890  0.57720  Biso   1.000  H
  C26      1.0000 0.90116  0.51460  0.62322  Biso   1.000  C
  C27      1.0000 0.87894  0.57287  0.64074  Biso   1.000  C
  C28      1.0000 0.02400  0.45680  0.52306  Biso   1.000  C
  H14      1.0000 0.04520  0.43170  0.53860  Biso   1.000  H
  N7       1.0000 0.96090  0.42590  0.51275  Biso   1.000  N
  O13      1.0000 0.85026  0.55531  0.67180  Biso   1.000  O
  O14      1.0000 0.89029  0.63393  0.62271  Biso   1.000  O
  C29      1.0000 0.59779  0.86312  0.92230  Biso   1.000  C
  H15      1.0000 0.60797  0.91223  0.91053  Biso   1.000  H
  C30      1.0000 0.56783  0.84793  0.95655  Biso   1.000  C
  C31      1.0000 0.54561  0.90620  0.97407  Biso   1.000  C
  C32      1.0000 0.69067  0.79013  0.85639  Biso   1.000  C
  H16      1.0000 0.71187  0.76503  0.87193  Biso   1.000  H
  N8       1.0000 0.62757  0.75923  0.84608  Biso   1.000  N
  O15      1.0000 0.51693  0.88864  0.00513  Biso   1.000  O
  O16      1.0000 0.55696  0.96726  0.95604  Biso   1.000  O
  C33      1.0000 0.26445  0.19646  0.25564  Biso   1.000  C
  H17      1.0000 0.27463  0.24557  0.24387  Biso   1.000  H
  C34      1.0000 0.23449  0.18127  0.28989  Biso   1.000  C
  C35      1.0000 0.21227  0.23954  0.30741  Biso   1.000  C
  C36      1.0000 0.35733  0.12347  0.18973  Biso   1.000  C
  H18      1.0000 0.37853  0.09837  0.20527  Biso   1.000  H
  N9       1.0000 0.29423  0.09257  0.17942  Biso   1.000  N
  O17      1.0000 0.18359  0.22198  0.33847  Biso   1.000  O
  O18      1.0000 0.22362  0.30060  0.28938  Biso   1.000  O
  C37      1.0000 0.40133  0.47021  0.41103  Biso   1.000  C
  H19      1.0000 0.36240  0.42110  0.42280  Biso   1.000  H
  C38      1.0000 0.38656  0.48540  0.37678  Biso   1.000  C
  C39      1.0000 0.30607  0.42713  0.35926  Biso   1.000  C
  C40      1.0000 0.56720  0.54320  0.47694  Biso   1.000  C
  H20      1.0000 0.61350  0.56830  0.46140  Biso   1.000  H
  N10      1.0000 0.53500  0.57410  0.48725  Biso   1.000  N
  O19      1.0000 0.29495  0.44469  0.32820  Biso   1.000  O
  O20      1.0000 0.25636  0.36607  0.37729  Biso   1.000  O
  C41      1.0000 0.06800  0.80354  0.74436  Biso   1.000  C
  H21      1.0000 0.02907  0.75443  0.75613  Biso   1.000  H
  C42      1.0000 0.05323  0.81873  0.71011  Biso   1.000  C
  C43      1.0000 0.97274  0.76046  0.69259  Biso   1.000  C
  C44      1.0000 0.23387  0.87653  0.81027  Biso   1.000  C
  H22      1.0000 0.28017  0.90163  0.79473  Biso   1.000  H
  N11      1.0000 0.20167  0.90743  0.82058  Biso   1.000  N
  O21      1.0000 0.96162  0.77802  0.66153  Biso   1.000  O
  O22      1.0000 0.92303  0.69940  0.71062  Biso   1.000  O
  C45      1.0000 0.73466  0.13688  0.07770  Biso   1.000  C
  H23      1.0000 0.69573  0.08777  0.08947  Biso   1.000  H
  C46      1.0000 0.71989  0.15207  0.04345  Biso   1.000  C
  C47      1.0000 0.63940  0.09380  0.02593  Biso   1.000  C
  C48      1.0000 0.90053  0.20987  0.14361  Biso   1.000  C
  H24      1.0000 0.94683  0.23497  0.12807  Biso   1.000  H
  N12      1.0000 0.86833  0.24077  0.15392  Biso   1.000  N
  O23      1.0000 0.62828  0.11136  0.99487  Biso   1.000  O
  O24      1.0000 0.58969  0.03274  0.04396  Biso   1.000  O
  C49      1.0000 0.06888  0.59867  0.41103  Biso   1.000  C
  H25      1.0000 0.05870  0.63760  0.42280  Biso   1.000  H
  C50      1.0000 0.09884  0.61344  0.37678  Biso   1.000  C
  C51      1.0000 0.12106  0.69393  0.35926  Biso   1.000  C
  C52      1.0000 0.97600  0.43280  0.47694  Biso   1.000  C
  H26      1.0000 0.95480  0.38650  0.46140  Biso   1.000  H
  N13      1.0000 0.03910  0.46500  0.48725  Biso   1.000  N
  O25      1.0000 0.14974  0.70505  0.32820  Biso   1.000  O
  O26      1.0000 0.10971  0.74364  0.37729  Biso   1.000  O
  C53      1.0000 0.73555  0.93200  0.74436  Biso   1.000  C
  H27      1.0000 0.72537  0.97093  0.75613  Biso   1.000  H
  C54      1.0000 0.76551  0.94677  0.71011  Biso   1.000  C
  C55      1.0000 0.78773  0.02726  0.69259  Biso   1.000  C
  C56      1.0000 0.64267  0.76613  0.81027  Biso   1.000  C
  H28      1.0000 0.62147  0.71983  0.79473  Biso   1.000  H
  N14      1.0000 0.70577  0.79833  0.82058  Biso   1.000  N
  O27      1.0000 0.81641  0.03838  0.66153  Biso   1.000  O
  O28      1.0000 0.77638  0.07697  0.71062  Biso   1.000  O
  C57      1.0000 0.40221  0.26534  0.07770  Biso   1.000  C
  H29      1.0000 0.39203  0.30427  0.08947  Biso   1.000  H
  C58      1.0000 0.43217  0.28011  0.04345  Biso   1.000  C
  C59      1.0000 0.45439  0.36060  0.02593  Biso   1.000  C
  C60      1.0000 0.30933  0.09947  0.14361  Biso   1.000  C
  H30      1.0000 0.28813  0.05317  0.12807  Biso   1.000  H
  N15      1.0000 0.37243  0.13167  0.15392  Biso   1.000  N
  O29      1.0000 0.48307  0.37172  0.99487  Biso   1.000  O
  O30      1.0000 0.44304  0.41031  0.04396  Biso   1.000  O
  C61      1.0000 0.52979  0.93112  0.41103  Biso   1.000  C
  H31      1.0000 0.57890  0.94130  0.42280  Biso   1.000  H
  C62      1.0000 0.51460  0.90116  0.37678  Biso   1.000  C
  C63      1.0000 0.57287  0.87894  0.35926  Biso   1.000  C
  C64      1.0000 0.45680  0.02400  0.47694  Biso   1.000  C
  H32      1.0000 0.43170  0.04520  0.46140  Biso   1.000  H
  N16      1.0000 0.42590  0.96090  0.48725  Biso   1.000  N
  O31      1.0000 0.55531  0.85026  0.32820  Biso   1.000  O
  O32      1.0000 0.63393  0.89029  0.37729  Biso   1.000  O
  C65      1.0000 0.19646  0.26445  0.74436  Biso   1.000  C
  H33      1.0000 0.24557  0.27463  0.75613  Biso   1.000  H
  C66      1.0000 0.18127  0.23449  0.71011  Biso   1.000  C
  C67      1.0000 0.23954  0.21227  0.69259  Biso   1.000  C
  C68      1.0000 0.12347  0.35733  0.81027  Biso   1.000  C
  H34      1.0000 0.09837  0.37853  0.79473  Biso   1.000  H
  N17      1.0000 0.09257  0.29423  0.82058  Biso   1.000  N
  O33      1.0000 0.22198  0.18359  0.66153  Biso   1.000  O
  O34      1.0000 0.30060  0.22362  0.71062  Biso   1.000  O
  C69      1.0000 0.86312  0.59779  0.07770  Biso   1.000  C
  H35      1.0000 0.91223  0.60797  0.08947  Biso   1.000  H
  C70      1.0000 0.84793  0.56783  0.04345  Biso   1.000  C
  C71      1.0000 0.90620  0.54561  0.02593  Biso   1.000  C
  C72      1.0000 0.79013  0.69067  0.14361  Biso   1.000  C
  H36      1.0000 0.76503  0.71187  0.12807  Biso   1.000  H
  N18      1.0000 0.75923  0.62757  0.15392  Biso   1.000  N
  O35      1.0000 0.88864  0.51693  0.99487  Biso   1.000  O
  O36      1.0000 0.96726  0.55696  0.04396  Biso   1.000  O
  C73      1.0000 0.52979  0.59867  0.41103  Biso   1.000  C
  H37      1.0000 0.57890  0.63760  0.42280  Biso   1.000  H
  C74      1.0000 0.51460  0.61344  0.37678  Biso   1.000  C
  C75      1.0000 0.57287  0.69393  0.35926  Biso   1.000  C
  C76      1.0000 0.45680  0.43280  0.47694  Biso   1.000  C
  H38      1.0000 0.43170  0.38650  0.46140  Biso   1.000  H
  N19      1.0000 0.42590  0.46500  0.48725  Biso   1.000  N
  O37      1.0000 0.55531  0.70505  0.32820  Biso   1.000  O
  O38      1.0000 0.63393  0.74364  0.37729  Biso   1.000  O
  C77      1.0000 0.19646  0.93200  0.74436  Biso   1.000  C
  H39      1.0000 0.24557  0.97093  0.75613  Biso   1.000  H
  C78      1.0000 0.18127  0.94677  0.71011  Biso   1.000  C
  C79      1.0000 0.23954  0.02726  0.69259  Biso   1.000  C
  C80      1.0000 0.12347  0.76613  0.81027  Biso   1.000  C
  H40      1.0000 0.09837  0.71983  0.79473  Biso   1.000  H
  N20      1.0000 0.09257  0.79833  0.82058  Biso   1.000  N
  O39      1.0000 0.22198  0.03838  0.66153  Biso   1.000  O
  O40      1.0000 0.30060  0.07697  0.71062  Biso   1.000  O
  C81      1.0000 0.86312  0.26534  0.07770  Biso   1.000  C
  H41      1.0000 0.91223  0.30427  0.08947  Biso   1.000  H
  C82      1.0000 0.84793  0.28011  0.04345  Biso   1.000  C
  C83      1.0000 0.90620  0.36060  0.02593  Biso   1.000  C
  C84      1.0000 0.79013  0.09947  0.14361  Biso   1.000  C
  H42      1.0000 0.76503  0.05317  0.12807  Biso   1.000  H
  N21      1.0000 0.75923  0.13167  0.15392  Biso   1.000  N
  O41      1.0000 0.88864  0.37172  0.99487  Biso   1.000  O
  O42      1.0000 0.96726  0.41031  0.04396  Biso   1.000  O
  C85      1.0000 0.40133  0.93112  0.41103  Biso   1.000  C
  H43      1.0000 0.36240  0.94130  0.42280  Biso   1.000  H
  C86      1.0000 0.38656  0.90116  0.37678  Biso   1.000  C
  C87      1.0000 0.30607  0.87894  0.35926  Biso   1.000  C
  C88      1.0000 0.56720  0.02400  0.47694  Biso   1.000  C
  H44      1.0000 0.61350  0.04520  0.46140  Biso   1.000  H
  N22      1.0000 0.53500  0.96090  0.48725  Biso   1.000  N
  O43      1.0000 0.29495  0.85026  0.32820  Biso   1.000  O
  O44      1.0000 0.25636  0.89029  0.37729  Biso   1.000  O
  C89      1.0000 0.06800  0.26445  0.74436  Biso   1.000  C
  H45      1.0000 0.02907  0.27463  0.75613  Biso   1.000  H
  C90      1.0000 0.05323  0.23449  0.71011  Biso   1.000  C
  C91      1.0000 0.97274  0.21227  0.69259  Biso   1.000  C
  C92      1.0000 0.23387  0.35733  0.81027  Biso   1.000  C
  H46      1.0000 0.28017  0.37853  0.79473  Biso   1.000  H
  N23      1.0000 0.20167  0.29423  0.82058  Biso   1.000  N
  O45      1.0000 0.96162  0.18359  0.66153  Biso   1.000  O
  O46      1.0000 0.92303  0.22362  0.71062  Biso   1.000  O
  C93      1.0000 0.73466  0.59779  0.07770  Biso   1.000  C
  H47      1.0000 0.69573  0.60797  0.08947  Biso   1.000  H
  C94      1.0000 0.71989  0.56783  0.04345  Biso   1.000  C
  C95      1.0000 0.63940  0.54561  0.02593  Biso   1.000  C
  C96      1.0000 0.90053  0.69067  0.14361  Biso   1.000  C
  H48      1.0000 0.94683  0.71187  0.12807  Biso   1.000  H
  N24      1.0000 0.86833  0.62757  0.15392  Biso   1.000  N
  O47      1.0000 0.62828  0.51693  0.99487  Biso   1.000  O
  O48      1.0000 0.58969  0.55696  0.04396  Biso   1.000  O
  C97      1.0000 0.06888  0.47021  0.41103  Biso   1.000  C
  H49      1.0000 0.05870  0.42110  0.42280  Biso   1.000  H
  C98      1.0000 0.09884  0.48540  0.37678  Biso   1.000  C
  C99      1.0000 0.12106  0.42713  0.35926  Biso   1.000  C
  C100     1.0000 0.97600  0.54320  0.47694  Biso   1.000  C
  H50      1.0000 0.95480  0.56830  0.46140  Biso   1.000  H
  N25      1.0000 0.03910  0.57410  0.48725  Biso   1.000  N
  O49      1.0000 0.14974  0.44469  0.32820  Biso   1.000  O
  O50      1.0000 0.10971  0.36607  0.37729  Biso   1.000  O
  C101     1.0000 0.73555  0.80354  0.74436  Biso   1.000  C
  H51      1.0000 0.72537  0.75443  0.75613  Biso   1.000  H
  C102     1.0000 0.76551  0.81873  0.71011  Biso   1.000  C
  C103     1.0000 0.78773  0.76046  0.69259  Biso   1.000  C
  C104     1.0000 0.64267  0.87653  0.81027  Biso   1.000  C
  H52      1.0000 0.62147  0.90163  0.79473  Biso   1.000  H
  N26      1.0000 0.70577  0.90743  0.82058  Biso   1.000  N
  O51      1.0000 0.81641  0.77802  0.66153  Biso   1.000  O
  O52      1.0000 0.77638  0.69940  0.71062  Biso   1.000  O
  C105     1.0000 0.40221  0.13688  0.07770  Biso   1.000  C
  H53      1.0000 0.39203  0.08777  0.08947  Biso   1.000  H
  C106     1.0000 0.43217  0.15207  0.04345  Biso   1.000  C
  C107     1.0000 0.45439  0.09380  0.02593  Biso   1.000  C
  C108     1.0000 0.30933  0.20987  0.14361  Biso   1.000  C
  H54      1.0000 0.28813  0.23497  0.12807  Biso   1.000  H
  N27      1.0000 0.37243  0.24077  0.15392  Biso   1.000  N
  O53      1.0000 0.48307  0.11136  0.99487  Biso   1.000  O
  O54      1.0000 0.44304  0.03274  0.04396  Biso   1.000  O
  C109     1.0000 0.59867  0.52979  0.58897  Biso   1.000  C
  H55      1.0000 0.63760  0.57890  0.57720  Biso   1.000  H
  C110     1.0000 0.61344  0.51460  0.62322  Biso   1.000  C
  C111     1.0000 0.69393  0.57287  0.64074  Biso   1.000  C
  C112     1.0000 0.43280  0.45680  0.52306  Biso   1.000  C
  H56      1.0000 0.38650  0.43170  0.53860  Biso   1.000  H
  N28      1.0000 0.46500  0.42590  0.51275  Biso   1.000  N
  O55      1.0000 0.70505  0.55531  0.67180  Biso   1.000  O
  O56      1.0000 0.74364  0.63393  0.62271  Biso   1.000  O
  C113     1.0000 0.26534  0.86312  0.92230  Biso   1.000  C
  H57      1.0000 0.30427  0.91223  0.91053  Biso   1.000  H
  C114     1.0000 0.28011  0.84793  0.95655  Biso   1.000  C
  C115     1.0000 0.36060  0.90620  0.97407  Biso   1.000  C
  C116     1.0000 0.09947  0.79013  0.85639  Biso   1.000  C
  H58      1.0000 0.05317  0.76503  0.87193  Biso   1.000  H
  N29      1.0000 0.13167  0.75923  0.84608  Biso   1.000  N
  O57      1.0000 0.37172  0.88864  0.00513  Biso   1.000  O
  O58      1.0000 0.41031  0.96726  0.95604  Biso   1.000  O
  C117     1.0000 0.93200  0.19646  0.25564  Biso   1.000  C
  H59      1.0000 0.97093  0.24557  0.24387  Biso   1.000  H
  C118     1.0000 0.94677  0.18127  0.28989  Biso   1.000  C
  C119     1.0000 0.02726  0.23954  0.30741  Biso   1.000  C
  C120     1.0000 0.76613  0.12347  0.18973  Biso   1.000  C
  H60      1.0000 0.71983  0.09837  0.20527  Biso   1.000  H
  N30      1.0000 0.79833  0.09257  0.17942  Biso   1.000  N
  O59      1.0000 0.03838  0.22198  0.33847  Biso   1.000  O
  O60      1.0000 0.07697  0.30060  0.28938  Biso   1.000  O
  C121     1.0000 0.93112  0.40133  0.58897  Biso   1.000  C
  H61      1.0000 0.94130  0.36240  0.57720  Biso   1.000  H
  C122     1.0000 0.90116  0.38656  0.62322  Biso   1.000  C
  C123     1.0000 0.87894  0.30607  0.64074  Biso   1.000  C
  C124     1.0000 0.02400  0.56720  0.52306  Biso   1.000  C
  H62      1.0000 0.04520  0.61350  0.53860  Biso   1.000  H
  N31      1.0000 0.96090  0.53500  0.51275  Biso   1.000  N
  O61      1.0000 0.85026  0.29495  0.67180  Biso   1.000  O
  O62      1.0000 0.89029  0.25636  0.62271  Biso   1.000  O
  C125     1.0000 0.59779  0.73466  0.92230  Biso   1.000  C
  H63      1.0000 0.60797  0.69573  0.91053  Biso   1.000  H
  C126     1.0000 0.56783  0.71989  0.95655  Biso   1.000  C
  C127     1.0000 0.54561  0.63940  0.97407  Biso   1.000  C
  C128     1.0000 0.69067  0.90053  0.85639  Biso   1.000  C
  H64      1.0000 0.71187  0.94683  0.87193  Biso   1.000  H
  N32      1.0000 0.62757  0.86833  0.84608  Biso   1.000  N
  O63      1.0000 0.51693  0.62828  0.00513  Biso   1.000  O
  O64      1.0000 0.55696  0.58969  0.95604  Biso   1.000  O
  C129     1.0000 0.26445  0.06800  0.25564  Biso   1.000  C
  H65      1.0000 0.27463  0.02907  0.24387  Biso   1.000  H
  C130     1.0000 0.23449  0.05323  0.28989  Biso   1.000  C
  C131     1.0000 0.21227  0.97274  0.30741  Biso   1.000  C
  C132     1.0000 0.35733  0.23387  0.18973  Biso   1.000  C
  H66      1.0000 0.37853  0.28017  0.20527  Biso   1.000  H
  N33      1.0000 0.29423  0.20167  0.17942  Biso   1.000  N
  O65      1.0000 0.18359  0.96162  0.33847  Biso   1.000  O
  O66      1.0000 0.22362  0.92303  0.28938  Biso   1.000  O
  C133     1.0000 0.47021  0.06888  0.58897  Biso   1.000  C
  H67      1.0000 0.42110  0.05870  0.57720  Biso   1.000  H
  C134     1.0000 0.48540  0.09884  0.62322  Biso   1.000  C
  C135     1.0000 0.42713  0.12106  0.64074  Biso   1.000  C
  C136     1.0000 0.54320  0.97600  0.52306  Biso   1.000  C
  H68      1.0000 0.56830  0.95480  0.53860  Biso   1.000  H
  N34      1.0000 0.57410  0.03910  0.51275  Biso   1.000  N
  O67      1.0000 0.44469  0.14974  0.67180  Biso   1.000  O
  O68      1.0000 0.36607  0.10971  0.62271  Biso   1.000  O
  C137     1.0000 0.13688  0.40221  0.92230  Biso   1.000  C
  H69      1.0000 0.08777  0.39203  0.91053  Biso   1.000  H
  C138     1.0000 0.15207  0.43217  0.95655  Biso   1.000  C
  C139     1.0000 0.09380  0.45439  0.97407  Biso   1.000  C
  C140     1.0000 0.20987  0.30933  0.85639  Biso   1.000  C
  H70      1.0000 0.23497  0.28813  0.87193  Biso   1.000  H
  N35      1.0000 0.24077  0.37243  0.84608  Biso   1.000  N
  O69      1.0000 0.11136  0.48307  0.00513  Biso   1.000  O
  O70      1.0000 0.03274  0.44304  0.95604  Biso   1.000  O
  C141     1.0000 0.80354  0.73555  0.25564  Biso   1.000  C
  H71      1.0000 0.75443  0.72537  0.24387  Biso   1.000  H
  C142     1.0000 0.81873  0.76551  0.28989  Biso   1.000  C
  C143     1.0000 0.76046  0.78773  0.30741  Biso   1.000  C
  C144     1.0000 0.87653  0.64267  0.18973  Biso   1.000  C
  H72      1.0000 0.90163  0.62147  0.20527  Biso   1.000  H
  N36      1.0000 0.90743  0.70577  0.17942  Biso   1.000  N
  O71      1.0000 0.77802  0.81641  0.33847  Biso   1.000  O
  O72      1.0000 0.69940  0.77638  0.28938  Biso   1.000  O
  C145     1.0000 0.51200  0.48800  0.53467  Biso   1.000  C
  C146     1.0000 0.52670  0.47330  0.57142  Biso   1.000  C
  C147     1.0000 0.55688  0.44312  0.64049  Biso   1.000  C
  H73      1.0000 0.56710  0.43290  0.66420  Biso   1.000  H
  C148     1.0000 0.17867  0.82133  0.86800  Biso   1.000  C
  C149     1.0000 0.19337  0.80663  0.90475  Biso   1.000  C
  C150     1.0000 0.22355  0.77645  0.97382  Biso   1.000  C
  H74      1.0000 0.23377  0.76623  0.99753  Biso   1.000  H
  C151     1.0000 0.84533  0.15467  0.20134  Biso   1.000  C
  C152     1.0000 0.86003  0.13997  0.23809  Biso   1.000  C
  C153     1.0000 0.89021  0.10979  0.30716  Biso   1.000  C
  H75      1.0000 0.90043  0.09957  0.33087  Biso   1.000  H
  C154     1.0000 0.51200  0.02400  0.53467  Biso   1.000  C
  C155     1.0000 0.52670  0.05340  0.57142  Biso   1.000  C
  C156     1.0000 0.55688  0.11376  0.64049  Biso   1.000  C
  H76      1.0000 0.56710  0.13420  0.66420  Biso   1.000  H
  C157     1.0000 0.17867  0.35733  0.86800  Biso   1.000  C
  C158     1.0000 0.19337  0.38673  0.90475  Biso   1.000  C
  C159     1.0000 0.22355  0.44709  0.97382  Biso   1.000  C
  H77      1.0000 0.23377  0.46753  0.99753  Biso   1.000  H
  C160     1.0000 0.84533  0.69067  0.20134  Biso   1.000  C
  C161     1.0000 0.86003  0.72007  0.23809  Biso   1.000  C
  C162     1.0000 0.89021  0.78043  0.30716  Biso   1.000  C
  H78      1.0000 0.90043  0.80087  0.33087  Biso   1.000  H
  C163     1.0000 0.97600  0.48800  0.53467  Biso   1.000  C
  C164     1.0000 0.94660  0.47330  0.57142  Biso   1.000  C
  C165     1.0000 0.88624  0.44312  0.64049  Biso   1.000  C
  H79      1.0000 0.86580  0.43290  0.66420  Biso   1.000  H
  C166     1.0000 0.64267  0.82133  0.86800  Biso   1.000  C
  C167     1.0000 0.61327  0.80663  0.90475  Biso   1.000  C
  C168     1.0000 0.55291  0.77645  0.97382  Biso   1.000  C
  H80      1.0000 0.53247  0.76623  0.99753  Biso   1.000  H
  C169     1.0000 0.30933  0.15467  0.20134  Biso   1.000  C
  C170     1.0000 0.27993  0.13997  0.23809  Biso   1.000  C
  C171     1.0000 0.21957  0.10979  0.30716  Biso   1.000  C
  H81      1.0000 0.19913  0.09957  0.33087  Biso   1.000  H
  C172     1.0000 0.48800  0.51200  0.46533  Biso   1.000  C
  C173     1.0000 0.47330  0.52670  0.42858  Biso   1.000  C
  C174     1.0000 0.44312  0.55688  0.35951  Biso   1.000  C
  H82      1.0000 0.43290  0.56710  0.33580  Biso   1.000  H
  C175     1.0000 0.15467  0.84533  0.79866  Biso   1.000  C
  C176     1.0000 0.13997  0.86003  0.76191  Biso   1.000  C
  C177     1.0000 0.10979  0.89021  0.69284  Biso   1.000  C
  H83      1.0000 0.09957  0.90043  0.66913  Biso   1.000  H
  C178     1.0000 0.82133  0.17867  0.13200  Biso   1.000  C
  C179     1.0000 0.80663  0.19337  0.09525  Biso   1.000  C
  C180     1.0000 0.77645  0.22355  0.02618  Biso   1.000  C
  H84      1.0000 0.76623  0.23377  0.00247  Biso   1.000  H
  C181     1.0000 0.02400  0.51200  0.46533  Biso   1.000  C
  C182     1.0000 0.05340  0.52670  0.42858  Biso   1.000  C
  C183     1.0000 0.11376  0.55688  0.35951  Biso   1.000  C
  H85      1.0000 0.13420  0.56710  0.33580  Biso   1.000  H
  C184     1.0000 0.69067  0.84533  0.79866  Biso   1.000  C
  C185     1.0000 0.72007  0.86003  0.76191  Biso   1.000  C
  C186     1.0000 0.78043  0.89021  0.69284  Biso   1.000  C
  H86      1.0000 0.80087  0.90043  0.66913  Biso   1.000  H
  C187     1.0000 0.35733  0.17867  0.13200  Biso   1.000  C
  C188     1.0000 0.38673  0.19337  0.09525  Biso   1.000  C
  C189     1.0000 0.44709  0.22355  0.02618  Biso   1.000  C
  H87      1.0000 0.46753  0.23377  0.00247  Biso   1.000  H
  C190     1.0000 0.48800  0.97600  0.46533  Biso   1.000  C
  C191     1.0000 0.47330  0.94660  0.42858  Biso   1.000  C
  C192     1.0000 0.44312  0.88624  0.35951  Biso   1.000  C
  H88      1.0000 0.43290  0.86580  0.33580  Biso   1.000  H
  C193     1.0000 0.15467  0.30933  0.79866  Biso   1.000  C
  C194     1.0000 0.13997  0.27993  0.76191  Biso   1.000  C
  C195     1.0000 0.10979  0.21957  0.69284  Biso   1.000  C
  H89      1.0000 0.09957  0.19913  0.66913  Biso   1.000  H
  C196     1.0000 0.82133  0.64267  0.13200  Biso   1.000  C
  C197     1.0000 0.80663  0.61327  0.09525  Biso   1.000  C
  C198     1.0000 0.77645  0.55291  0.02618  Biso   1.000  C
  H90      1.0000 0.76623  0.53247  0.00247  Biso   1.000  H
  Cu1      1.0000 0.37924  0.18962  0.69610  Biso   1.000  Cu
  Cu2      1.0000 0.04591  0.52295  0.02943  Biso   1.000  Cu
  Cu3      1.0000 0.71257  0.85629  0.36276  Biso   1.000  Cu
  Cu4      1.0000 0.81038  0.18962  0.69610  Biso   1.000  Cu
  Cu5      1.0000 0.47705  0.52295  0.02943  Biso   1.000  Cu
  Cu6      1.0000 0.14371  0.85629  0.36276  Biso   1.000  Cu
  Cu7      1.0000 0.81038  0.62076  0.69610  Biso   1.000  Cu
  Cu8      1.0000 0.47705  0.95409  0.02943  Biso   1.000  Cu
  Cu9      1.0000 0.14371  0.28743  0.36276  Biso   1.000  Cu
  Cu10     1.0000 0.18962  0.37924  0.30390  Biso   1.000  Cu
  Cu11     1.0000 0.85629  0.71257  0.63724  Biso   1.000  Cu
  Cu12     1.0000 0.52295  0.04591  0.97057  Biso   1.000  Cu
  Cu13     1.0000 0.18962  0.81038  0.30390  Biso   1.000  Cu
  Cu14     1.0000 0.85629  0.14371  0.63724  Biso   1.000  Cu
  Cu15     1.0000 0.52295  0.47705  0.97057  Biso   1.000  Cu
  Cu16     1.0000 0.62076  0.81038  0.30390  Biso   1.000  Cu
  Cu17     1.0000 0.28743  0.14371  0.63724  Biso   1.000  Cu
  Cu18     1.0000 0.95409  0.47705  0.97057  Biso   1.000  Cu
