data_image0
_cell_length_a       38.028
_cell_length_b       9.647
_cell_length_c       9.871
_cell_angle_alpha    90
_cell_angle_beta     97.49
_cell_angle_gamma    90

_symmetry_space_group_name_H-M    "P 1"
_symmetry_int_tables_number       1

loop_
  _symmetry_equiv_pos_as_xyz
  'x, y, z'

loop_
  _atom_site_label
  _atom_site_occupancy
  _atom_site_fract_x
  _atom_site_fract_y
  _atom_site_fract_z
  _atom_site_thermal_displace_type
  _atom_site_B_iso_or_equiv
  _atom_site_type_symbol
  Zn1      1.0000 0.28442  0.17537  0.40152  Biso   1.000  Zn
  N1       1.0000 0.26802  0.96900  0.75790  Biso   1.000  N
  N2       1.0000 0.24357  0.15340  0.64620  Biso   1.000  N
  N3       1.0000 0.26879  0.09780  0.57430  Biso   1.000  N
  O1       1.0000 0.33050  0.23110  0.31400  Biso   1.000  O
  O2       1.0000 0.33930  0.09600  0.45900  Biso   1.000  O
  C1       1.0000 0.35090  0.15200  0.37750  Biso   1.000  C
  C2       1.0000 0.38760  0.15140  0.34850  Biso   1.000  C
  C3       1.0000 0.41210  0.08570  0.44400  Biso   1.000  C
  H1       1.0000 0.40480  0.04530  0.52120  Biso   1.000  H
  C4       1.0000 0.44760  0.08040  0.42420  Biso   1.000  C
  H2       1.0000 0.46410  0.03640  0.48810  Biso   1.000  H
  C5       1.0000 0.45859  0.14070  0.30880  Biso   1.000  C
  C6       1.0000 0.43404  0.20640  0.21330  Biso   1.000  C
  H3       1.0000 0.44140  0.24670  0.13610  Biso   1.000  H
  C7       1.0000 0.39854  0.21170  0.23320  Biso   1.000  C
  H4       1.0000 0.38210  0.25570  0.16930  Biso   1.000  H
  C8       1.0000 0.49610  0.14460  0.29970  Biso   1.000  C
  H5       1.0000 0.51270  0.14710  0.37760  Biso   1.000  H
  C9       1.0000 0.24465  0.07230  0.75550  Biso   1.000  C
  H6       1.0000 0.23040  0.08620  0.82410  Biso   1.000  H
  C10      1.0000 0.28218  0.99070  0.64160  Biso   1.000  C
  H7       1.0000 0.29970  0.93480  0.61260  Biso   1.000  H
  Zn2      1.0000 0.78442  0.67537  0.40152  Biso   1.000  Zn
  N4       1.0000 0.76802  0.46900  0.75790  Biso   1.000  N
  N5       1.0000 0.74357  0.65340  0.64620  Biso   1.000  N
  N6       1.0000 0.76879  0.59780  0.57430  Biso   1.000  N
  O3       1.0000 0.83050  0.73110  0.31400  Biso   1.000  O
  O4       1.0000 0.83930  0.59600  0.45900  Biso   1.000  O
  C11      1.0000 0.85090  0.65200  0.37750  Biso   1.000  C
  C12      1.0000 0.88760  0.65140  0.34850  Biso   1.000  C
  C13      1.0000 0.91210  0.58570  0.44400  Biso   1.000  C
  H8       1.0000 0.90480  0.54530  0.52120  Biso   1.000  H
  C14      1.0000 0.94760  0.58040  0.42420  Biso   1.000  C
  H9       1.0000 0.96410  0.53640  0.48810  Biso   1.000  H
  C15      1.0000 0.95859  0.64070  0.30880  Biso   1.000  C
  C16      1.0000 0.93404  0.70640  0.21330  Biso   1.000  C
  H10      1.0000 0.94140  0.74670  0.13610  Biso   1.000  H
  C17      1.0000 0.89854  0.71170  0.23320  Biso   1.000  C
  H11      1.0000 0.88210  0.75570  0.16930  Biso   1.000  H
  C18      1.0000 0.99610  0.64460  0.29970  Biso   1.000  C
  H12      1.0000 0.01270  0.64710  0.37760  Biso   1.000  H
  C19      1.0000 0.74465  0.57230  0.75550  Biso   1.000  C
  H13      1.0000 0.73040  0.58620  0.82410  Biso   1.000  H
  C20      1.0000 0.78218  0.49070  0.64160  Biso   1.000  C
  H14      1.0000 0.79970  0.43480  0.61260  Biso   1.000  H
  Zn3      1.0000 0.71558  0.17537  0.09848  Biso   1.000  Zn
  N7       1.0000 0.73198  0.96900  0.74210  Biso   1.000  N
  N8       1.0000 0.75643  0.15340  0.85380  Biso   1.000  N
  N9       1.0000 0.73121  0.09780  0.92570  Biso   1.000  N
  O5       1.0000 0.66950  0.23110  0.18600  Biso   1.000  O
  O6       1.0000 0.66070  0.09600  0.04100  Biso   1.000  O
  C21      1.0000 0.64910  0.15200  0.12250  Biso   1.000  C
  C22      1.0000 0.61240  0.15140  0.15150  Biso   1.000  C
  C23      1.0000 0.58790  0.08570  0.05600  Biso   1.000  C
  H15      1.0000 0.59520  0.04530  0.97880  Biso   1.000  H
  C24      1.0000 0.55240  0.08040  0.07580  Biso   1.000  C
  H16      1.0000 0.53590  0.03640  0.01190  Biso   1.000  H
  C25      1.0000 0.54141  0.14070  0.19120  Biso   1.000  C
  C26      1.0000 0.56596  0.20640  0.28670  Biso   1.000  C
  H17      1.0000 0.55860  0.24670  0.36390  Biso   1.000  H
  C27      1.0000 0.60146  0.21170  0.26680  Biso   1.000  C
  H18      1.0000 0.61790  0.25570  0.33070  Biso   1.000  H
  C28      1.0000 0.50390  0.14460  0.20030  Biso   1.000  C
  H19      1.0000 0.48730  0.14710  0.12240  Biso   1.000  H
  C29      1.0000 0.75535  0.07230  0.74450  Biso   1.000  C
  H20      1.0000 0.76960  0.08620  0.67590  Biso   1.000  H
  C30      1.0000 0.71782  0.99070  0.85840  Biso   1.000  C
  H21      1.0000 0.70030  0.93480  0.88740  Biso   1.000  H
  Zn4      1.0000 0.21558  0.67537  0.09848  Biso   1.000  Zn
  N10      1.0000 0.23198  0.46900  0.74210  Biso   1.000  N
  N11      1.0000 0.25643  0.65340  0.85380  Biso   1.000  N
  N12      1.0000 0.23121  0.59780  0.92570  Biso   1.000  N
  O7       1.0000 0.16950  0.73110  0.18600  Biso   1.000  O
  O8       1.0000 0.16070  0.59600  0.04100  Biso   1.000  O
  C31      1.0000 0.14910  0.65200  0.12250  Biso   1.000  C
  C32      1.0000 0.11240  0.65140  0.15150  Biso   1.000  C
  C33      1.0000 0.08790  0.58570  0.05600  Biso   1.000  C
  H22      1.0000 0.09520  0.54530  0.97880  Biso   1.000  H
  C34      1.0000 0.05240  0.58040  0.07580  Biso   1.000  C
  H23      1.0000 0.03590  0.53640  0.01190  Biso   1.000  H
  C35      1.0000 0.04141  0.64070  0.19120  Biso   1.000  C
  C36      1.0000 0.06596  0.70640  0.28670  Biso   1.000  C
  H24      1.0000 0.05860  0.74670  0.36390  Biso   1.000  H
  C37      1.0000 0.10146  0.71170  0.26680  Biso   1.000  C
  H25      1.0000 0.11790  0.75570  0.33070  Biso   1.000  H
  C38      1.0000 0.00390  0.64460  0.20030  Biso   1.000  C
  H26      1.0000 0.98730  0.64710  0.12240  Biso   1.000  H
  C39      1.0000 0.25535  0.57230  0.74450  Biso   1.000  C
  H27      1.0000 0.26960  0.58620  0.67590  Biso   1.000  H
  C40      1.0000 0.21782  0.49070  0.85840  Biso   1.000  C
  H28      1.0000 0.20030  0.43480  0.88740  Biso   1.000  H
  Zn5      1.0000 0.71558  0.82463  0.59848  Biso   1.000  Zn
  N13      1.0000 0.73198  0.03100  0.24210  Biso   1.000  N
  N14      1.0000 0.75643  0.84660  0.35380  Biso   1.000  N
  N15      1.0000 0.73121  0.90220  0.42570  Biso   1.000  N
  O9       1.0000 0.66950  0.76890  0.68600  Biso   1.000  O
  O10      1.0000 0.66070  0.90400  0.54100  Biso   1.000  O
  C41      1.0000 0.64910  0.84800  0.62250  Biso   1.000  C
  C42      1.0000 0.61240  0.84860  0.65150  Biso   1.000  C
  C43      1.0000 0.58790  0.91430  0.55600  Biso   1.000  C
  H29      1.0000 0.59520  0.95470  0.47880  Biso   1.000  H
  C44      1.0000 0.55240  0.91960  0.57580  Biso   1.000  C
  H30      1.0000 0.53590  0.96360  0.51190  Biso   1.000  H
  C45      1.0000 0.54141  0.85930  0.69120  Biso   1.000  C
  C46      1.0000 0.56596  0.79360  0.78670  Biso   1.000  C
  H31      1.0000 0.55860  0.75330  0.86390  Biso   1.000  H
  C47      1.0000 0.60146  0.78830  0.76680  Biso   1.000  C
  H32      1.0000 0.61790  0.74430  0.83070  Biso   1.000  H
  C48      1.0000 0.50390  0.85540  0.70030  Biso   1.000  C
  H33      1.0000 0.48730  0.85290  0.62240  Biso   1.000  H
  C49      1.0000 0.75535  0.92770  0.24450  Biso   1.000  C
  H34      1.0000 0.76960  0.91380  0.17590  Biso   1.000  H
  C50      1.0000 0.71782  0.00930  0.35840  Biso   1.000  C
  H35      1.0000 0.70030  0.06520  0.38740  Biso   1.000  H
  Zn6      1.0000 0.21558  0.32463  0.59848  Biso   1.000  Zn
  N16      1.0000 0.23198  0.53100  0.24210  Biso   1.000  N
  N17      1.0000 0.25643  0.34660  0.35380  Biso   1.000  N
  N18      1.0000 0.23121  0.40220  0.42570  Biso   1.000  N
  O11      1.0000 0.16950  0.26890  0.68600  Biso   1.000  O
  O12      1.0000 0.16070  0.40400  0.54100  Biso   1.000  O
  C51      1.0000 0.14910  0.34800  0.62250  Biso   1.000  C
  C52      1.0000 0.11240  0.34860  0.65150  Biso   1.000  C
  C53      1.0000 0.08790  0.41430  0.55600  Biso   1.000  C
  H36      1.0000 0.09520  0.45470  0.47880  Biso   1.000  H
  C54      1.0000 0.05240  0.41960  0.57580  Biso   1.000  C
  H37      1.0000 0.03590  0.46360  0.51190  Biso   1.000  H
  C55      1.0000 0.04141  0.35930  0.69120  Biso   1.000  C
  C56      1.0000 0.06596  0.29360  0.78670  Biso   1.000  C
  H38      1.0000 0.05860  0.25330  0.86390  Biso   1.000  H
  C57      1.0000 0.10146  0.28830  0.76680  Biso   1.000  C
  H39      1.0000 0.11790  0.24430  0.83070  Biso   1.000  H
  C58      1.0000 0.00390  0.35540  0.70030  Biso   1.000  C
  H40      1.0000 0.98730  0.35290  0.62240  Biso   1.000  H
  C59      1.0000 0.25535  0.42770  0.24450  Biso   1.000  C
  H41      1.0000 0.26960  0.41380  0.17590  Biso   1.000  H
  C60      1.0000 0.21782  0.50930  0.35840  Biso   1.000  C
  H42      1.0000 0.20030  0.56520  0.38740  Biso   1.000  H
  Zn7      1.0000 0.28442  0.82463  0.90152  Biso   1.000  Zn
  N19      1.0000 0.26802  0.03100  0.25790  Biso   1.000  N
  N20      1.0000 0.24357  0.84660  0.14620  Biso   1.000  N
  N21      1.0000 0.26879  0.90220  0.07430  Biso   1.000  N
  O13      1.0000 0.33050  0.76890  0.81400  Biso   1.000  O
  O14      1.0000 0.33930  0.90400  0.95900  Biso   1.000  O
  C61      1.0000 0.35090  0.84800  0.87750  Biso   1.000  C
  C62      1.0000 0.38760  0.84860  0.84850  Biso   1.000  C
  C63      1.0000 0.41210  0.91430  0.94400  Biso   1.000  C
  H43      1.0000 0.40480  0.95470  0.02120  Biso   1.000  H
  C64      1.0000 0.44760  0.91960  0.92420  Biso   1.000  C
  H44      1.0000 0.46410  0.96360  0.98810  Biso   1.000  H
  C65      1.0000 0.45859  0.85930  0.80880  Biso   1.000  C
  C66      1.0000 0.43404  0.79360  0.71330  Biso   1.000  C
  H45      1.0000 0.44140  0.75330  0.63610  Biso   1.000  H
  C67      1.0000 0.39854  0.78830  0.73320  Biso   1.000  C
  H46      1.0000 0.38210  0.74430  0.66930  Biso   1.000  H
  C68      1.0000 0.49610  0.85540  0.79970  Biso   1.000  C
  H47      1.0000 0.51270  0.85290  0.87760  Biso   1.000  H
  C69      1.0000 0.24465  0.92770  0.25550  Biso   1.000  C
  H48      1.0000 0.23040  0.91380  0.32410  Biso   1.000  H
  C70      1.0000 0.28218  0.00930  0.14160  Biso   1.000  C
  H49      1.0000 0.29970  0.06520  0.11260  Biso   1.000  H
  Zn8      1.0000 0.78442  0.32463  0.90152  Biso   1.000  Zn
  N22      1.0000 0.76802  0.53100  0.25790  Biso   1.000  N
  N23      1.0000 0.74357  0.34660  0.14620  Biso   1.000  N
  N24      1.0000 0.76879  0.40220  0.07430  Biso   1.000  N
  O15      1.0000 0.83050  0.26890  0.81400  Biso   1.000  O
  O16      1.0000 0.83930  0.40400  0.95900  Biso   1.000  O
  C71      1.0000 0.85090  0.34800  0.87750  Biso   1.000  C
  C72      1.0000 0.88760  0.34860  0.84850  Biso   1.000  C
  C73      1.0000 0.91210  0.41430  0.94400  Biso   1.000  C
  H50      1.0000 0.90480  0.45470  0.02120  Biso   1.000  H
  C74      1.0000 0.94760  0.41960  0.92420  Biso   1.000  C
  H51      1.0000 0.96410  0.46360  0.98810  Biso   1.000  H
  C75      1.0000 0.95859  0.35930  0.80880  Biso   1.000  C
  C76      1.0000 0.93404  0.29360  0.71330  Biso   1.000  C
  H52      1.0000 0.94140  0.25330  0.63610  Biso   1.000  H
  C77      1.0000 0.89854  0.28830  0.73320  Biso   1.000  C
  H53      1.0000 0.88210  0.24430  0.66930  Biso   1.000  H
  C78      1.0000 0.99610  0.35540  0.79970  Biso   1.000  C
  H54      1.0000 0.01270  0.35290  0.87760  Biso   1.000  H
  C79      1.0000 0.74465  0.42770  0.25550  Biso   1.000  C
  H55      1.0000 0.73040  0.41380  0.32410  Biso   1.000  H
  C80      1.0000 0.78218  0.50930  0.14160  Biso   1.000  C
  H56      1.0000 0.79970  0.56520  0.11260  Biso   1.000  H
