data_image0
_cell_length_a       27.9319
_cell_length_b       14.3167
_cell_length_c       21.4476
_cell_angle_alpha    90
_cell_angle_beta     90
_cell_angle_gamma    90

_symmetry_space_group_name_H-M    "P 1"
_symmetry_int_tables_number       1

loop_
  _symmetry_equiv_pos_as_xyz
  'x, y, z'

loop_
  _atom_site_label
  _atom_site_occupancy
  _atom_site_fract_x
  _atom_site_fract_y
  _atom_site_fract_z
  _atom_site_thermal_displace_type
  _atom_site_B_iso_or_equiv
  _atom_site_type_symbol
  N1       1.0000 0.10900  0.37260  0.82620  Biso   1.000  N
  N2       1.0000 0.93250  0.67650  0.89540  Biso   1.000  N
  C1       1.0000 0.20710  0.25160  0.95890  Biso   1.000  C
  H1       1.0000 0.69490  0.68710  0.96710  Biso   1.000  H
  O1       1.0000 0.18990  0.16290  0.97510  Biso   1.000  O
  H2       1.0000 0.21310  0.12750  0.98330  Biso   1.000  H
  C2       1.0000 0.25750  0.24030  0.93240  Biso   1.000  C
  H3       1.0000 0.25610  0.19980  0.89510  Biso   1.000  H
  H4       1.0000 0.26950  0.30230  0.91910  Biso   1.000  H
  C3       1.0000 0.20750  0.30150  0.02110  Biso   1.000  C
  H5       1.0000 0.21860  0.36670  0.01270  Biso   1.000  H
  O2       1.0000 0.77700  0.60120  0.99220  Biso   1.000  O
  H6       1.0000 0.74700  0.59800  0.99040  Biso   1.000  H
  C4       1.0000 0.17340  0.29460  0.91190  Biso   1.000  C
  C5       1.0000 0.18470  0.37320  0.88020  Biso   1.000  C
  H7       1.0000 0.21490  0.40230  0.88620  Biso   1.000  H
  C6       1.0000 0.15180  0.41100  0.83870  Biso   1.000  C
  H8       1.0000 0.16010  0.46730  0.81790  Biso   1.000  H
  C7       1.0000 0.09700  0.30070  0.85880  Biso   1.000  C
  H9       1.0000 0.06550  0.27670  0.85380  Biso   1.000  H
  C8       1.0000 0.12830  0.25460  0.90210  Biso   1.000  C
  H10      1.0000 0.11880  0.19930  0.92320  Biso   1.000  H
  C9       1.0000 0.15820  0.30960  0.05010  Biso   1.000  C
  C10      1.0000 0.13620  0.39590  0.06000  Biso   1.000  C
  H11      1.0000 0.15230  0.45180  0.04840  Biso   1.000  H
  C11      1.0000 0.90840  0.59940  0.91340  Biso   1.000  C
  H12      1.0000 0.92280  0.53990  0.90760  Biso   1.000  H
  C12      1.0000 0.91150  0.75590  0.90450  Biso   1.000  C
  H13      1.0000 0.92800  0.81050  0.89150  Biso   1.000  H
  C13      1.0000 0.13300  0.23210  0.06830  Biso   1.000  C
  H14      1.0000 0.14580  0.17130  0.06240  Biso   1.000  H
  N3       1.0000 0.60900  0.87260  0.82620  Biso   1.000  N
  N4       1.0000 0.43250  0.17650  0.89540  Biso   1.000  N
  C14      1.0000 0.70710  0.75160  0.95890  Biso   1.000  C
  H15      1.0000 0.19490  0.18710  0.96710  Biso   1.000  H
  O3       1.0000 0.68990  0.66290  0.97510  Biso   1.000  O
  H16      1.0000 0.71310  0.62750  0.98330  Biso   1.000  H
  C15      1.0000 0.75750  0.74030  0.93240  Biso   1.000  C
  H17      1.0000 0.75610  0.69980  0.89510  Biso   1.000  H
  H18      1.0000 0.76950  0.80230  0.91910  Biso   1.000  H
  C16      1.0000 0.70750  0.80150  0.02110  Biso   1.000  C
  H19      1.0000 0.71860  0.86670  0.01270  Biso   1.000  H
  O4       1.0000 0.27700  0.10120  0.99220  Biso   1.000  O
  H20      1.0000 0.24700  0.09800  0.99040  Biso   1.000  H
  C17      1.0000 0.67340  0.79460  0.91190  Biso   1.000  C
  C18      1.0000 0.68470  0.87320  0.88020  Biso   1.000  C
  H21      1.0000 0.71490  0.90230  0.88620  Biso   1.000  H
  C19      1.0000 0.65180  0.91100  0.83870  Biso   1.000  C
  H22      1.0000 0.66010  0.96730  0.81790  Biso   1.000  H
  C20      1.0000 0.59700  0.80070  0.85880  Biso   1.000  C
  H23      1.0000 0.56550  0.77670  0.85380  Biso   1.000  H
  C21      1.0000 0.62830  0.75460  0.90210  Biso   1.000  C
  H24      1.0000 0.61880  0.69930  0.92320  Biso   1.000  H
  C22      1.0000 0.65820  0.80960  0.05010  Biso   1.000  C
  C23      1.0000 0.63620  0.89590  0.06000  Biso   1.000  C
  H25      1.0000 0.65230  0.95180  0.04840  Biso   1.000  H
  C24      1.0000 0.40840  0.09940  0.91340  Biso   1.000  C
  H26      1.0000 0.42280  0.03990  0.90760  Biso   1.000  H
  C25      1.0000 0.41150  0.25590  0.90450  Biso   1.000  C
  H27      1.0000 0.42800  0.31050  0.89150  Biso   1.000  H
  C26      1.0000 0.63300  0.73210  0.06830  Biso   1.000  C
  H28      1.0000 0.64580  0.67130  0.06240  Biso   1.000  H
  N5       1.0000 0.89100  0.62740  0.32620  Biso   1.000  N
  N6       1.0000 0.06750  0.32350  0.39540  Biso   1.000  N
  C27      1.0000 0.79290  0.74840  0.45890  Biso   1.000  C
  H29      1.0000 0.30510  0.31290  0.46710  Biso   1.000  H
  O5       1.0000 0.81010  0.83710  0.47510  Biso   1.000  O
  H30      1.0000 0.78690  0.87250  0.48330  Biso   1.000  H
  C28      1.0000 0.74250  0.75970  0.43240  Biso   1.000  C
  H31      1.0000 0.74390  0.80020  0.39510  Biso   1.000  H
  H32      1.0000 0.73050  0.69770  0.41910  Biso   1.000  H
  C29      1.0000 0.79250  0.69850  0.52110  Biso   1.000  C
  H33      1.0000 0.78140  0.63330  0.51270  Biso   1.000  H
  O6       1.0000 0.22300  0.39880  0.49220  Biso   1.000  O
  H34      1.0000 0.25300  0.40200  0.49040  Biso   1.000  H
  C30      1.0000 0.82660  0.70540  0.41190  Biso   1.000  C
  C31      1.0000 0.81530  0.62680  0.38020  Biso   1.000  C
  H35      1.0000 0.78510  0.59770  0.38620  Biso   1.000  H
  C32      1.0000 0.84820  0.58900  0.33870  Biso   1.000  C
  H36      1.0000 0.83990  0.53270  0.31790  Biso   1.000  H
  C33      1.0000 0.90300  0.69930  0.35880  Biso   1.000  C
  H37      1.0000 0.93450  0.72330  0.35380  Biso   1.000  H
  C34      1.0000 0.87170  0.74540  0.40210  Biso   1.000  C
  H38      1.0000 0.88120  0.80070  0.42320  Biso   1.000  H
  C35      1.0000 0.84180  0.69040  0.55010  Biso   1.000  C
  C36      1.0000 0.86380  0.60410  0.56000  Biso   1.000  C
  H39      1.0000 0.84770  0.54820  0.54840  Biso   1.000  H
  C37      1.0000 0.09160  0.40060  0.41340  Biso   1.000  C
  H40      1.0000 0.07720  0.46010  0.40760  Biso   1.000  H
  C38      1.0000 0.08850  0.24410  0.40450  Biso   1.000  C
  H41      1.0000 0.07200  0.18950  0.39150  Biso   1.000  H
  C39      1.0000 0.86700  0.76790  0.56830  Biso   1.000  C
  H42      1.0000 0.85420  0.82870  0.56240  Biso   1.000  H
  N7       1.0000 0.39100  0.12740  0.32620  Biso   1.000  N
  N8       1.0000 0.56750  0.82350  0.39540  Biso   1.000  N
  C40      1.0000 0.29290  0.24840  0.45890  Biso   1.000  C
  H43      1.0000 0.80510  0.81290  0.46710  Biso   1.000  H
  O7       1.0000 0.31010  0.33710  0.47510  Biso   1.000  O
  H44      1.0000 0.28690  0.37250  0.48330  Biso   1.000  H
  C41      1.0000 0.24250  0.25970  0.43240  Biso   1.000  C
  H45      1.0000 0.24390  0.30020  0.39510  Biso   1.000  H
  H46      1.0000 0.23050  0.19770  0.41910  Biso   1.000  H
  C42      1.0000 0.29250  0.19850  0.52110  Biso   1.000  C
  H47      1.0000 0.28140  0.13330  0.51270  Biso   1.000  H
  O8       1.0000 0.72300  0.89880  0.49220  Biso   1.000  O
  H48      1.0000 0.75300  0.90200  0.49040  Biso   1.000  H
  C43      1.0000 0.32660  0.20540  0.41190  Biso   1.000  C
  C44      1.0000 0.31530  0.12680  0.38020  Biso   1.000  C
  H49      1.0000 0.28510  0.09770  0.38620  Biso   1.000  H
  C45      1.0000 0.34820  0.08900  0.33870  Biso   1.000  C
  H50      1.0000 0.33990  0.03270  0.31790  Biso   1.000  H
  C46      1.0000 0.40300  0.19930  0.35880  Biso   1.000  C
  H51      1.0000 0.43450  0.22330  0.35380  Biso   1.000  H
  C47      1.0000 0.37170  0.24540  0.40210  Biso   1.000  C
  H52      1.0000 0.38120  0.30070  0.42320  Biso   1.000  H
  C48      1.0000 0.34180  0.19040  0.55010  Biso   1.000  C
  C49      1.0000 0.36380  0.10410  0.56000  Biso   1.000  C
  H53      1.0000 0.34770  0.04820  0.54840  Biso   1.000  H
  C50      1.0000 0.59160  0.90060  0.41340  Biso   1.000  C
  H54      1.0000 0.57720  0.96010  0.40760  Biso   1.000  H
  C51      1.0000 0.58850  0.74410  0.40450  Biso   1.000  C
  H55      1.0000 0.57200  0.68950  0.39150  Biso   1.000  H
  C52      1.0000 0.36700  0.26790  0.56830  Biso   1.000  C
  H56      1.0000 0.35420  0.32870  0.56240  Biso   1.000  H
  N9       1.0000 0.89100  0.37260  0.67380  Biso   1.000  N
  N10      1.0000 0.06750  0.67650  0.60460  Biso   1.000  N
  C53      1.0000 0.79290  0.25160  0.54110  Biso   1.000  C
  H57      1.0000 0.30510  0.68710  0.53290  Biso   1.000  H
  O9       1.0000 0.81010  0.16290  0.52490  Biso   1.000  O
  H58      1.0000 0.78690  0.12750  0.51670  Biso   1.000  H
  C54      1.0000 0.74250  0.24030  0.56760  Biso   1.000  C
  H59      1.0000 0.74390  0.19980  0.60490  Biso   1.000  H
  H60      1.0000 0.73050  0.30230  0.58090  Biso   1.000  H
  C55      1.0000 0.79250  0.30150  0.47890  Biso   1.000  C
  H61      1.0000 0.78140  0.36670  0.48730  Biso   1.000  H
  O10      1.0000 0.22300  0.60120  0.50780  Biso   1.000  O
  H62      1.0000 0.25300  0.59800  0.50960  Biso   1.000  H
  C56      1.0000 0.82660  0.29460  0.58810  Biso   1.000  C
  C57      1.0000 0.81530  0.37320  0.61980  Biso   1.000  C
  H63      1.0000 0.78510  0.40230  0.61380  Biso   1.000  H
  C58      1.0000 0.84820  0.41100  0.66130  Biso   1.000  C
  H64      1.0000 0.83990  0.46730  0.68210  Biso   1.000  H
  C59      1.0000 0.90300  0.30070  0.64120  Biso   1.000  C
  H65      1.0000 0.93450  0.27670  0.64620  Biso   1.000  H
  C60      1.0000 0.87170  0.25460  0.59790  Biso   1.000  C
  H66      1.0000 0.88120  0.19930  0.57680  Biso   1.000  H
  C61      1.0000 0.84180  0.30960  0.44990  Biso   1.000  C
  C62      1.0000 0.86380  0.39590  0.44000  Biso   1.000  C
  H67      1.0000 0.84770  0.45180  0.45160  Biso   1.000  H
  C63      1.0000 0.09160  0.59940  0.58660  Biso   1.000  C
  H68      1.0000 0.07720  0.53990  0.59240  Biso   1.000  H
  C64      1.0000 0.08850  0.75590  0.59550  Biso   1.000  C
  H69      1.0000 0.07200  0.81050  0.60850  Biso   1.000  H
  C65      1.0000 0.86700  0.23210  0.43170  Biso   1.000  C
  H70      1.0000 0.85420  0.17130  0.43760  Biso   1.000  H
  N11      1.0000 0.39100  0.87260  0.67380  Biso   1.000  N
  N12      1.0000 0.56750  0.17650  0.60460  Biso   1.000  N
  C66      1.0000 0.29290  0.75160  0.54110  Biso   1.000  C
  H71      1.0000 0.80510  0.18710  0.53290  Biso   1.000  H
  O11      1.0000 0.31010  0.66290  0.52490  Biso   1.000  O
  H72      1.0000 0.28690  0.62750  0.51670  Biso   1.000  H
  C67      1.0000 0.24250  0.74030  0.56760  Biso   1.000  C
  H73      1.0000 0.24390  0.69980  0.60490  Biso   1.000  H
  H74      1.0000 0.23050  0.80230  0.58090  Biso   1.000  H
  C68      1.0000 0.29250  0.80150  0.47890  Biso   1.000  C
  H75      1.0000 0.28140  0.86670  0.48730  Biso   1.000  H
  O12      1.0000 0.72300  0.10120  0.50780  Biso   1.000  O
  H76      1.0000 0.75300  0.09800  0.50960  Biso   1.000  H
  C69      1.0000 0.32660  0.79460  0.58810  Biso   1.000  C
  C70      1.0000 0.31530  0.87320  0.61980  Biso   1.000  C
  H77      1.0000 0.28510  0.90230  0.61380  Biso   1.000  H
  C71      1.0000 0.34820  0.91100  0.66130  Biso   1.000  C
  H78      1.0000 0.33990  0.96730  0.68210  Biso   1.000  H
  C72      1.0000 0.40300  0.80070  0.64120  Biso   1.000  C
  H79      1.0000 0.43450  0.77670  0.64620  Biso   1.000  H
  C73      1.0000 0.37170  0.75460  0.59790  Biso   1.000  C
  H80      1.0000 0.38120  0.69930  0.57680  Biso   1.000  H
  C74      1.0000 0.34180  0.80960  0.44990  Biso   1.000  C
  C75      1.0000 0.36380  0.89590  0.44000  Biso   1.000  C
  H81      1.0000 0.34770  0.95180  0.45160  Biso   1.000  H
  C76      1.0000 0.59160  0.09940  0.58660  Biso   1.000  C
  H82      1.0000 0.57720  0.03990  0.59240  Biso   1.000  H
  C77      1.0000 0.58850  0.25590  0.59550  Biso   1.000  C
  H83      1.0000 0.57200  0.31050  0.60850  Biso   1.000  H
  C78      1.0000 0.36700  0.73210  0.43170  Biso   1.000  C
  H84      1.0000 0.35420  0.67130  0.43760  Biso   1.000  H
  N13      1.0000 0.10900  0.62740  0.17380  Biso   1.000  N
  N14      1.0000 0.93250  0.32350  0.10460  Biso   1.000  N
  C79      1.0000 0.20710  0.74840  0.04110  Biso   1.000  C
  H85      1.0000 0.69490  0.31290  0.03290  Biso   1.000  H
  O13      1.0000 0.18990  0.83710  0.02490  Biso   1.000  O
  H86      1.0000 0.21310  0.87250  0.01670  Biso   1.000  H
  C80      1.0000 0.25750  0.75970  0.06760  Biso   1.000  C
  H87      1.0000 0.25610  0.80020  0.10490  Biso   1.000  H
  H88      1.0000 0.26950  0.69770  0.08090  Biso   1.000  H
  C81      1.0000 0.20750  0.69850  0.97890  Biso   1.000  C
  H89      1.0000 0.21860  0.63330  0.98730  Biso   1.000  H
  O14      1.0000 0.77700  0.39880  0.00780  Biso   1.000  O
  H90      1.0000 0.74700  0.40200  0.00960  Biso   1.000  H
  C82      1.0000 0.17340  0.70540  0.08810  Biso   1.000  C
  C83      1.0000 0.18470  0.62680  0.11980  Biso   1.000  C
  H91      1.0000 0.21490  0.59770  0.11380  Biso   1.000  H
  C84      1.0000 0.15180  0.58900  0.16130  Biso   1.000  C
  H92      1.0000 0.16010  0.53270  0.18210  Biso   1.000  H
  C85      1.0000 0.09700  0.69930  0.14120  Biso   1.000  C
  H93      1.0000 0.06550  0.72330  0.14620  Biso   1.000  H
  C86      1.0000 0.12830  0.74540  0.09790  Biso   1.000  C
  H94      1.0000 0.11880  0.80070  0.07680  Biso   1.000  H
  C87      1.0000 0.15820  0.69040  0.94990  Biso   1.000  C
  C88      1.0000 0.13620  0.60410  0.94000  Biso   1.000  C
  H95      1.0000 0.15230  0.54820  0.95160  Biso   1.000  H
  C89      1.0000 0.90840  0.40060  0.08660  Biso   1.000  C
  H96      1.0000 0.92280  0.46010  0.09240  Biso   1.000  H
  C90      1.0000 0.91150  0.24410  0.09550  Biso   1.000  C
  H97      1.0000 0.92800  0.18950  0.10850  Biso   1.000  H
  C91      1.0000 0.13300  0.76790  0.93170  Biso   1.000  C
  H98      1.0000 0.14580  0.82870  0.93760  Biso   1.000  H
  N15      1.0000 0.60900  0.12740  0.17380  Biso   1.000  N
  N16      1.0000 0.43250  0.82350  0.10460  Biso   1.000  N
  C92      1.0000 0.70710  0.24840  0.04110  Biso   1.000  C
  H99      1.0000 0.19490  0.81290  0.03290  Biso   1.000  H
  O15      1.0000 0.68990  0.33710  0.02490  Biso   1.000  O
  H100     1.0000 0.71310  0.37250  0.01670  Biso   1.000  H
  C93      1.0000 0.75750  0.25970  0.06760  Biso   1.000  C
  H101     1.0000 0.75610  0.30020  0.10490  Biso   1.000  H
  H102     1.0000 0.76950  0.19770  0.08090  Biso   1.000  H
  C94      1.0000 0.70750  0.19850  0.97890  Biso   1.000  C
  H103     1.0000 0.71860  0.13330  0.98730  Biso   1.000  H
  O16      1.0000 0.27700  0.89880  0.00780  Biso   1.000  O
  H104     1.0000 0.24700  0.90200  0.00960  Biso   1.000  H
  C95      1.0000 0.67340  0.20540  0.08810  Biso   1.000  C
  C96      1.0000 0.68470  0.12680  0.11980  Biso   1.000  C
  H105     1.0000 0.71490  0.09770  0.11380  Biso   1.000  H
  C97      1.0000 0.65180  0.08900  0.16130  Biso   1.000  C
  H106     1.0000 0.66010  0.03270  0.18210  Biso   1.000  H
  C98      1.0000 0.59700  0.19930  0.14120  Biso   1.000  C
  H107     1.0000 0.56550  0.22330  0.14620  Biso   1.000  H
  C99      1.0000 0.62830  0.24540  0.09790  Biso   1.000  C
  H108     1.0000 0.61880  0.30070  0.07680  Biso   1.000  H
  C100     1.0000 0.65820  0.19040  0.94990  Biso   1.000  C
  C101     1.0000 0.63620  0.10410  0.94000  Biso   1.000  C
  H109     1.0000 0.65230  0.04820  0.95160  Biso   1.000  H
  C102     1.0000 0.40840  0.90060  0.08660  Biso   1.000  C
  H110     1.0000 0.42280  0.96010  0.09240  Biso   1.000  H
  C103     1.0000 0.41150  0.74410  0.09550  Biso   1.000  C
  H111     1.0000 0.42800  0.68950  0.10850  Biso   1.000  H
  C104     1.0000 0.63300  0.26790  0.93170  Biso   1.000  C
  H112     1.0000 0.64580  0.32870  0.93760  Biso   1.000  H
  N17      1.0000 0.89100  0.62740  0.17380  Biso   1.000  N
  N18      1.0000 0.06750  0.32350  0.10460  Biso   1.000  N
  C105     1.0000 0.79290  0.74840  0.04110  Biso   1.000  C
  H113     1.0000 0.30510  0.31290  0.03290  Biso   1.000  H
  O17      1.0000 0.81010  0.83710  0.02490  Biso   1.000  O
  H114     1.0000 0.78690  0.87250  0.01670  Biso   1.000  H
  C106     1.0000 0.74250  0.75970  0.06760  Biso   1.000  C
  H115     1.0000 0.74390  0.80020  0.10490  Biso   1.000  H
  H116     1.0000 0.73050  0.69770  0.08090  Biso   1.000  H
  C107     1.0000 0.79250  0.69850  0.97890  Biso   1.000  C
  H117     1.0000 0.78140  0.63330  0.98730  Biso   1.000  H
  O18      1.0000 0.22300  0.39880  0.00780  Biso   1.000  O
  H118     1.0000 0.25300  0.40200  0.00960  Biso   1.000  H
  C108     1.0000 0.82660  0.70540  0.08810  Biso   1.000  C
  C109     1.0000 0.81530  0.62680  0.11980  Biso   1.000  C
  H119     1.0000 0.78510  0.59770  0.11380  Biso   1.000  H
  C110     1.0000 0.84820  0.58900  0.16130  Biso   1.000  C
  H120     1.0000 0.83990  0.53270  0.18210  Biso   1.000  H
  C111     1.0000 0.90300  0.69930  0.14120  Biso   1.000  C
  H121     1.0000 0.93450  0.72330  0.14620  Biso   1.000  H
  C112     1.0000 0.87170  0.74540  0.09790  Biso   1.000  C
  H122     1.0000 0.88120  0.80070  0.07680  Biso   1.000  H
  C113     1.0000 0.84180  0.69040  0.94990  Biso   1.000  C
  C114     1.0000 0.86380  0.60410  0.94000  Biso   1.000  C
  H123     1.0000 0.84770  0.54820  0.95160  Biso   1.000  H
  C115     1.0000 0.09160  0.40060  0.08660  Biso   1.000  C
  H124     1.0000 0.07720  0.46010  0.09240  Biso   1.000  H
  C116     1.0000 0.08850  0.24410  0.09550  Biso   1.000  C
  H125     1.0000 0.07200  0.18950  0.10850  Biso   1.000  H
  C117     1.0000 0.86700  0.76790  0.93170  Biso   1.000  C
  H126     1.0000 0.85420  0.82870  0.93760  Biso   1.000  H
  N19      1.0000 0.39100  0.12740  0.17380  Biso   1.000  N
  N20      1.0000 0.56750  0.82350  0.10460  Biso   1.000  N
  C118     1.0000 0.29290  0.24840  0.04110  Biso   1.000  C
  H127     1.0000 0.80510  0.81290  0.03290  Biso   1.000  H
  O19      1.0000 0.31010  0.33710  0.02490  Biso   1.000  O
  H128     1.0000 0.28690  0.37250  0.01670  Biso   1.000  H
  C119     1.0000 0.24250  0.25970  0.06760  Biso   1.000  C
  H129     1.0000 0.24390  0.30020  0.10490  Biso   1.000  H
  H130     1.0000 0.23050  0.19770  0.08090  Biso   1.000  H
  C120     1.0000 0.29250  0.19850  0.97890  Biso   1.000  C
  H131     1.0000 0.28140  0.13330  0.98730  Biso   1.000  H
  O20      1.0000 0.72300  0.89880  0.00780  Biso   1.000  O
  H132     1.0000 0.75300  0.90200  0.00960  Biso   1.000  H
  C121     1.0000 0.32660  0.20540  0.08810  Biso   1.000  C
  C122     1.0000 0.31530  0.12680  0.11980  Biso   1.000  C
  H133     1.0000 0.28510  0.09770  0.11380  Biso   1.000  H
  C123     1.0000 0.34820  0.08900  0.16130  Biso   1.000  C
  H134     1.0000 0.33990  0.03270  0.18210  Biso   1.000  H
  C124     1.0000 0.40300  0.19930  0.14120  Biso   1.000  C
  H135     1.0000 0.43450  0.22330  0.14620  Biso   1.000  H
  C125     1.0000 0.37170  0.24540  0.09790  Biso   1.000  C
  H136     1.0000 0.38120  0.30070  0.07680  Biso   1.000  H
  C126     1.0000 0.34180  0.19040  0.94990  Biso   1.000  C
  C127     1.0000 0.36380  0.10410  0.94000  Biso   1.000  C
  H137     1.0000 0.34770  0.04820  0.95160  Biso   1.000  H
  C128     1.0000 0.59160  0.90060  0.08660  Biso   1.000  C
  H138     1.0000 0.57720  0.96010  0.09240  Biso   1.000  H
  C129     1.0000 0.58850  0.74410  0.09550  Biso   1.000  C
  H139     1.0000 0.57200  0.68950  0.10850  Biso   1.000  H
  C130     1.0000 0.36700  0.26790  0.93170  Biso   1.000  C
  H140     1.0000 0.35420  0.32870  0.93760  Biso   1.000  H
  N21      1.0000 0.10900  0.37260  0.67380  Biso   1.000  N
  N22      1.0000 0.93250  0.67650  0.60460  Biso   1.000  N
  C131     1.0000 0.20710  0.25160  0.54110  Biso   1.000  C
  H141     1.0000 0.69490  0.68710  0.53290  Biso   1.000  H
  O21      1.0000 0.18990  0.16290  0.52490  Biso   1.000  O
  H142     1.0000 0.21310  0.12750  0.51670  Biso   1.000  H
  C132     1.0000 0.25750  0.24030  0.56760  Biso   1.000  C
  H143     1.0000 0.25610  0.19980  0.60490  Biso   1.000  H
  H144     1.0000 0.26950  0.30230  0.58090  Biso   1.000  H
  C133     1.0000 0.20750  0.30150  0.47890  Biso   1.000  C
  H145     1.0000 0.21860  0.36670  0.48730  Biso   1.000  H
  O22      1.0000 0.77700  0.60120  0.50780  Biso   1.000  O
  H146     1.0000 0.74700  0.59800  0.50960  Biso   1.000  H
  C134     1.0000 0.17340  0.29460  0.58810  Biso   1.000  C
  C135     1.0000 0.18470  0.37320  0.61980  Biso   1.000  C
  H147     1.0000 0.21490  0.40230  0.61380  Biso   1.000  H
  C136     1.0000 0.15180  0.41100  0.66130  Biso   1.000  C
  H148     1.0000 0.16010  0.46730  0.68210  Biso   1.000  H
  C137     1.0000 0.09700  0.30070  0.64120  Biso   1.000  C
  H149     1.0000 0.06550  0.27670  0.64620  Biso   1.000  H
  C138     1.0000 0.12830  0.25460  0.59790  Biso   1.000  C
  H150     1.0000 0.11880  0.19930  0.57680  Biso   1.000  H
  C139     1.0000 0.15820  0.30960  0.44990  Biso   1.000  C
  C140     1.0000 0.13620  0.39590  0.44000  Biso   1.000  C
  H151     1.0000 0.15230  0.45180  0.45160  Biso   1.000  H
  C141     1.0000 0.90840  0.59940  0.58660  Biso   1.000  C
  H152     1.0000 0.92280  0.53990  0.59240  Biso   1.000  H
  C142     1.0000 0.91150  0.75590  0.59550  Biso   1.000  C
  H153     1.0000 0.92800  0.81050  0.60850  Biso   1.000  H
  C143     1.0000 0.13300  0.23210  0.43170  Biso   1.000  C
  H154     1.0000 0.14580  0.17130  0.43760  Biso   1.000  H
  N23      1.0000 0.60900  0.87260  0.67380  Biso   1.000  N
  N24      1.0000 0.43250  0.17650  0.60460  Biso   1.000  N
  C144     1.0000 0.70710  0.75160  0.54110  Biso   1.000  C
  H155     1.0000 0.19490  0.18710  0.53290  Biso   1.000  H
  O23      1.0000 0.68990  0.66290  0.52490  Biso   1.000  O
  H156     1.0000 0.71310  0.62750  0.51670  Biso   1.000  H
  C145     1.0000 0.75750  0.74030  0.56760  Biso   1.000  C
  H157     1.0000 0.75610  0.69980  0.60490  Biso   1.000  H
  H158     1.0000 0.76950  0.80230  0.58090  Biso   1.000  H
  C146     1.0000 0.70750  0.80150  0.47890  Biso   1.000  C
  H159     1.0000 0.71860  0.86670  0.48730  Biso   1.000  H
  O24      1.0000 0.27700  0.10120  0.50780  Biso   1.000  O
  H160     1.0000 0.24700  0.09800  0.50960  Biso   1.000  H
  C147     1.0000 0.67340  0.79460  0.58810  Biso   1.000  C
  C148     1.0000 0.68470  0.87320  0.61980  Biso   1.000  C
  H161     1.0000 0.71490  0.90230  0.61380  Biso   1.000  H
  C149     1.0000 0.65180  0.91100  0.66130  Biso   1.000  C
  H162     1.0000 0.66010  0.96730  0.68210  Biso   1.000  H
  C150     1.0000 0.59700  0.80070  0.64120  Biso   1.000  C
  H163     1.0000 0.56550  0.77670  0.64620  Biso   1.000  H
  C151     1.0000 0.62830  0.75460  0.59790  Biso   1.000  C
  H164     1.0000 0.61880  0.69930  0.57680  Biso   1.000  H
  C152     1.0000 0.65820  0.80960  0.44990  Biso   1.000  C
  C153     1.0000 0.63620  0.89590  0.44000  Biso   1.000  C
  H165     1.0000 0.65230  0.95180  0.45160  Biso   1.000  H
  C154     1.0000 0.40840  0.09940  0.58660  Biso   1.000  C
  H166     1.0000 0.42280  0.03990  0.59240  Biso   1.000  H
  C155     1.0000 0.41150  0.25590  0.59550  Biso   1.000  C
  H167     1.0000 0.42800  0.31050  0.60850  Biso   1.000  H
  C156     1.0000 0.63300  0.73210  0.43170  Biso   1.000  C
  H168     1.0000 0.64580  0.67130  0.43760  Biso   1.000  H
  N25      1.0000 0.10900  0.62740  0.32620  Biso   1.000  N
  N26      1.0000 0.93250  0.32350  0.39540  Biso   1.000  N
  C157     1.0000 0.20710  0.74840  0.45890  Biso   1.000  C
  H169     1.0000 0.69490  0.31290  0.46710  Biso   1.000  H
  O25      1.0000 0.18990  0.83710  0.47510  Biso   1.000  O
  H170     1.0000 0.21310  0.87250  0.48330  Biso   1.000  H
  C158     1.0000 0.25750  0.75970  0.43240  Biso   1.000  C
  H171     1.0000 0.25610  0.80020  0.39510  Biso   1.000  H
  H172     1.0000 0.26950  0.69770  0.41910  Biso   1.000  H
  C159     1.0000 0.20750  0.69850  0.52110  Biso   1.000  C
  H173     1.0000 0.21860  0.63330  0.51270  Biso   1.000  H
  O26      1.0000 0.77700  0.39880  0.49220  Biso   1.000  O
  H174     1.0000 0.74700  0.40200  0.49040  Biso   1.000  H
  C160     1.0000 0.17340  0.70540  0.41190  Biso   1.000  C
  C161     1.0000 0.18470  0.62680  0.38020  Biso   1.000  C
  H175     1.0000 0.21490  0.59770  0.38620  Biso   1.000  H
  C162     1.0000 0.15180  0.58900  0.33870  Biso   1.000  C
  H176     1.0000 0.16010  0.53270  0.31790  Biso   1.000  H
  C163     1.0000 0.09700  0.69930  0.35880  Biso   1.000  C
  H177     1.0000 0.06550  0.72330  0.35380  Biso   1.000  H
  C164     1.0000 0.12830  0.74540  0.40210  Biso   1.000  C
  H178     1.0000 0.11880  0.80070  0.42320  Biso   1.000  H
  C165     1.0000 0.15820  0.69040  0.55010  Biso   1.000  C
  C166     1.0000 0.13620  0.60410  0.56000  Biso   1.000  C
  H179     1.0000 0.15230  0.54820  0.54840  Biso   1.000  H
  C167     1.0000 0.90840  0.40060  0.41340  Biso   1.000  C
  H180     1.0000 0.92280  0.46010  0.40760  Biso   1.000  H
  C168     1.0000 0.91150  0.24410  0.40450  Biso   1.000  C
  H181     1.0000 0.92800  0.18950  0.39150  Biso   1.000  H
  C169     1.0000 0.13300  0.76790  0.56830  Biso   1.000  C
  H182     1.0000 0.14580  0.82870  0.56240  Biso   1.000  H
  N27      1.0000 0.60900  0.12740  0.32620  Biso   1.000  N
  N28      1.0000 0.43250  0.82350  0.39540  Biso   1.000  N
  C170     1.0000 0.70710  0.24840  0.45890  Biso   1.000  C
  H183     1.0000 0.19490  0.81290  0.46710  Biso   1.000  H
  O27      1.0000 0.68990  0.33710  0.47510  Biso   1.000  O
  H184     1.0000 0.71310  0.37250  0.48330  Biso   1.000  H
  C171     1.0000 0.75750  0.25970  0.43240  Biso   1.000  C
  H185     1.0000 0.75610  0.30020  0.39510  Biso   1.000  H
  H186     1.0000 0.76950  0.19770  0.41910  Biso   1.000  H
  C172     1.0000 0.70750  0.19850  0.52110  Biso   1.000  C
  H187     1.0000 0.71860  0.13330  0.51270  Biso   1.000  H
  O28      1.0000 0.27700  0.89880  0.49220  Biso   1.000  O
  H188     1.0000 0.24700  0.90200  0.49040  Biso   1.000  H
  C173     1.0000 0.67340  0.20540  0.41190  Biso   1.000  C
  C174     1.0000 0.68470  0.12680  0.38020  Biso   1.000  C
  H189     1.0000 0.71490  0.09770  0.38620  Biso   1.000  H
  C175     1.0000 0.65180  0.08900  0.33870  Biso   1.000  C
  H190     1.0000 0.66010  0.03270  0.31790  Biso   1.000  H
  C176     1.0000 0.59700  0.19930  0.35880  Biso   1.000  C
  H191     1.0000 0.56550  0.22330  0.35380  Biso   1.000  H
  C177     1.0000 0.62830  0.24540  0.40210  Biso   1.000  C
  H192     1.0000 0.61880  0.30070  0.42320  Biso   1.000  H
  C178     1.0000 0.65820  0.19040  0.55010  Biso   1.000  C
  C179     1.0000 0.63620  0.10410  0.56000  Biso   1.000  C
  H193     1.0000 0.65230  0.04820  0.54840  Biso   1.000  H
  C180     1.0000 0.40840  0.90060  0.41340  Biso   1.000  C
  H194     1.0000 0.42280  0.96010  0.40760  Biso   1.000  H
  C181     1.0000 0.41150  0.74410  0.40450  Biso   1.000  C
  H195     1.0000 0.42800  0.68950  0.39150  Biso   1.000  H
  C182     1.0000 0.63300  0.26790  0.56830  Biso   1.000  C
  H196     1.0000 0.64580  0.32870  0.56240  Biso   1.000  H
  N29      1.0000 0.89100  0.37260  0.82620  Biso   1.000  N
  N30      1.0000 0.06750  0.67650  0.89540  Biso   1.000  N
  C183     1.0000 0.79290  0.25160  0.95890  Biso   1.000  C
  H197     1.0000 0.30510  0.68710  0.96710  Biso   1.000  H
  O29      1.0000 0.81010  0.16290  0.97510  Biso   1.000  O
  H198     1.0000 0.78690  0.12750  0.98330  Biso   1.000  H
  C184     1.0000 0.74250  0.24030  0.93240  Biso   1.000  C
  H199     1.0000 0.74390  0.19980  0.89510  Biso   1.000  H
  H200     1.0000 0.73050  0.30230  0.91910  Biso   1.000  H
  C185     1.0000 0.79250  0.30150  0.02110  Biso   1.000  C
  H201     1.0000 0.78140  0.36670  0.01270  Biso   1.000  H
  O30      1.0000 0.22300  0.60120  0.99220  Biso   1.000  O
  H202     1.0000 0.25300  0.59800  0.99040  Biso   1.000  H
  C186     1.0000 0.82660  0.29460  0.91190  Biso   1.000  C
  C187     1.0000 0.81530  0.37320  0.88020  Biso   1.000  C
  H203     1.0000 0.78510  0.40230  0.88620  Biso   1.000  H
  C188     1.0000 0.84820  0.41100  0.83870  Biso   1.000  C
  H204     1.0000 0.83990  0.46730  0.81790  Biso   1.000  H
  C189     1.0000 0.90300  0.30070  0.85880  Biso   1.000  C
  H205     1.0000 0.93450  0.27670  0.85380  Biso   1.000  H
  C190     1.0000 0.87170  0.25460  0.90210  Biso   1.000  C
  H206     1.0000 0.88120  0.19930  0.92320  Biso   1.000  H
  C191     1.0000 0.84180  0.30960  0.05010  Biso   1.000  C
  C192     1.0000 0.86380  0.39590  0.06000  Biso   1.000  C
  H207     1.0000 0.84770  0.45180  0.04840  Biso   1.000  H
  C193     1.0000 0.09160  0.59940  0.91340  Biso   1.000  C
  H208     1.0000 0.07720  0.53990  0.90760  Biso   1.000  H
  C194     1.0000 0.08850  0.75590  0.90450  Biso   1.000  C
  H209     1.0000 0.07200  0.81050  0.89150  Biso   1.000  H
  C195     1.0000 0.86700  0.23210  0.06830  Biso   1.000  C
  H210     1.0000 0.85420  0.17130  0.06240  Biso   1.000  H
  N31      1.0000 0.39100  0.87260  0.82620  Biso   1.000  N
  N32      1.0000 0.56750  0.17650  0.89540  Biso   1.000  N
  C196     1.0000 0.29290  0.75160  0.95890  Biso   1.000  C
  H211     1.0000 0.80510  0.18710  0.96710  Biso   1.000  H
  O31      1.0000 0.31010  0.66290  0.97510  Biso   1.000  O
  H212     1.0000 0.28690  0.62750  0.98330  Biso   1.000  H
  C197     1.0000 0.24250  0.74030  0.93240  Biso   1.000  C
  H213     1.0000 0.24390  0.69980  0.89510  Biso   1.000  H
  H214     1.0000 0.23050  0.80230  0.91910  Biso   1.000  H
  C198     1.0000 0.29250  0.80150  0.02110  Biso   1.000  C
  H215     1.0000 0.28140  0.86670  0.01270  Biso   1.000  H
  O32      1.0000 0.72300  0.10120  0.99220  Biso   1.000  O
  H216     1.0000 0.75300  0.09800  0.99040  Biso   1.000  H
  C199     1.0000 0.32660  0.79460  0.91190  Biso   1.000  C
  C200     1.0000 0.31530  0.87320  0.88020  Biso   1.000  C
  H217     1.0000 0.28510  0.90230  0.88620  Biso   1.000  H
  C201     1.0000 0.34820  0.91100  0.83870  Biso   1.000  C
  H218     1.0000 0.33990  0.96730  0.81790  Biso   1.000  H
  C202     1.0000 0.40300  0.80070  0.85880  Biso   1.000  C
  H219     1.0000 0.43450  0.77670  0.85380  Biso   1.000  H
  C203     1.0000 0.37170  0.75460  0.90210  Biso   1.000  C
  H220     1.0000 0.38120  0.69930  0.92320  Biso   1.000  H
  C204     1.0000 0.34180  0.80960  0.05010  Biso   1.000  C
  C205     1.0000 0.36380  0.89590  0.06000  Biso   1.000  C
  H221     1.0000 0.34770  0.95180  0.04840  Biso   1.000  H
  C206     1.0000 0.59160  0.09940  0.91340  Biso   1.000  C
  H222     1.0000 0.57720  0.03990  0.90760  Biso   1.000  H
  C207     1.0000 0.58850  0.25590  0.90450  Biso   1.000  C
  H223     1.0000 0.57200  0.31050  0.89150  Biso   1.000  H
  C208     1.0000 0.36700  0.73210  0.06830  Biso   1.000  C
  H224     1.0000 0.35420  0.67130  0.06240  Biso   1.000  H
  Cd1      1.0000 0.00000  0.66464  0.83405  Biso   1.000  Cd
  Cl1      1.0000 0.00000  0.49480  0.83240  Biso   1.000  Cl
  Cd2      1.0000 0.50000  0.16464  0.83405  Biso   1.000  Cd
  Cl2      1.0000 0.50000  0.99480  0.83240  Biso   1.000  Cl
  Cd3      1.0000 0.00000  0.33536  0.33405  Biso   1.000  Cd
  Cl3      1.0000 0.00000  0.50520  0.33240  Biso   1.000  Cl
  Cd4      1.0000 0.50000  0.83536  0.33405  Biso   1.000  Cd
  Cl4      1.0000 0.50000  0.00520  0.33240  Biso   1.000  Cl
  Cd5      1.0000 0.00000  0.66464  0.66595  Biso   1.000  Cd
  Cl5      1.0000 0.00000  0.49480  0.66760  Biso   1.000  Cl
  Cd6      1.0000 0.50000  0.16464  0.66595  Biso   1.000  Cd
  Cl6      1.0000 0.50000  0.99480  0.66760  Biso   1.000  Cl
  Cd7      1.0000 0.00000  0.33536  0.16595  Biso   1.000  Cd
  Cl7      1.0000 0.00000  0.50520  0.16760  Biso   1.000  Cl
  Cd8      1.0000 0.50000  0.83536  0.16595  Biso   1.000  Cd
  Cl8      1.0000 0.50000  0.00520  0.16760  Biso   1.000  Cl
  Cd9      1.0000 0.05959  0.43526  0.75000  Biso   1.000  Cd
  O33      1.0000 0.05350  0.67650  0.75000  Biso   1.000  O
  O34      1.0000 0.10840  0.56250  0.75000  Biso   1.000  O
  C209     1.0000 0.13570  0.71600  0.75000  Biso   1.000  C
  C210     1.0000 0.12400  0.81000  0.75000  Biso   1.000  C
  H225     1.0000 0.09130  0.82830  0.75000  Biso   1.000  H
  C211     1.0000 0.16000  0.87870  0.75000  Biso   1.000  C
  H226     1.0000 0.15190  0.94310  0.75000  Biso   1.000  H
  C212     1.0000 0.20760  0.85100  0.75000  Biso   1.000  C
  H227     1.0000 0.23230  0.89670  0.75000  Biso   1.000  H
  C213     1.0000 0.21950  0.75480  0.75000  Biso   1.000  C
  H228     1.0000 0.25210  0.73580  0.75000  Biso   1.000  H
  C214     1.0000 0.18300  0.68810  0.75000  Biso   1.000  C
  H229     1.0000 0.19070  0.62350  0.75000  Biso   1.000  H
  C215     1.0000 0.09720  0.64470  0.75000  Biso   1.000  C
  Cd10     1.0000 0.55959  0.93526  0.75000  Biso   1.000  Cd
  O35      1.0000 0.55350  0.17650  0.75000  Biso   1.000  O
  O36      1.0000 0.60840  0.06250  0.75000  Biso   1.000  O
  C216     1.0000 0.63570  0.21600  0.75000  Biso   1.000  C
  C217     1.0000 0.62400  0.31000  0.75000  Biso   1.000  C
  H230     1.0000 0.59130  0.32830  0.75000  Biso   1.000  H
  C218     1.0000 0.66000  0.37870  0.75000  Biso   1.000  C
  H231     1.0000 0.65190  0.44310  0.75000  Biso   1.000  H
  C219     1.0000 0.70760  0.35100  0.75000  Biso   1.000  C
  H232     1.0000 0.73230  0.39670  0.75000  Biso   1.000  H
  C220     1.0000 0.71950  0.25480  0.75000  Biso   1.000  C
  H233     1.0000 0.75210  0.23580  0.75000  Biso   1.000  H
  C221     1.0000 0.68300  0.18810  0.75000  Biso   1.000  C
  H234     1.0000 0.69070  0.12350  0.75000  Biso   1.000  H
  C222     1.0000 0.59720  0.14470  0.75000  Biso   1.000  C
  Cd11     1.0000 0.94041  0.56474  0.25000  Biso   1.000  Cd
  O37      1.0000 0.94650  0.32350  0.25000  Biso   1.000  O
  O38      1.0000 0.89160  0.43750  0.25000  Biso   1.000  O
  C223     1.0000 0.86430  0.28400  0.25000  Biso   1.000  C
  C224     1.0000 0.87600  0.19000  0.25000  Biso   1.000  C
  H235     1.0000 0.90870  0.17170  0.25000  Biso   1.000  H
  C225     1.0000 0.84000  0.12130  0.25000  Biso   1.000  C
  H236     1.0000 0.84810  0.05690  0.25000  Biso   1.000  H
  C226     1.0000 0.79240  0.14900  0.25000  Biso   1.000  C
  H237     1.0000 0.76770  0.10330  0.25000  Biso   1.000  H
  C227     1.0000 0.78050  0.24520  0.25000  Biso   1.000  C
  H238     1.0000 0.74790  0.26420  0.25000  Biso   1.000  H
  C228     1.0000 0.81700  0.31190  0.25000  Biso   1.000  C
  H239     1.0000 0.80930  0.37650  0.25000  Biso   1.000  H
  C229     1.0000 0.90280  0.35530  0.25000  Biso   1.000  C
  Cd12     1.0000 0.44041  0.06474  0.25000  Biso   1.000  Cd
  O39      1.0000 0.44650  0.82350  0.25000  Biso   1.000  O
  O40      1.0000 0.39160  0.93750  0.25000  Biso   1.000  O
  C230     1.0000 0.36430  0.78400  0.25000  Biso   1.000  C
  C231     1.0000 0.37600  0.69000  0.25000  Biso   1.000  C
  H240     1.0000 0.40870  0.67170  0.25000  Biso   1.000  H
  C232     1.0000 0.34000  0.62130  0.25000  Biso   1.000  C
  H241     1.0000 0.34810  0.55690  0.25000  Biso   1.000  H
  C233     1.0000 0.29240  0.64900  0.25000  Biso   1.000  C
  H242     1.0000 0.26770  0.60330  0.25000  Biso   1.000  H
  C234     1.0000 0.28050  0.74520  0.25000  Biso   1.000  C
  H243     1.0000 0.24790  0.76420  0.25000  Biso   1.000  H
  C235     1.0000 0.31700  0.81190  0.25000  Biso   1.000  C
  H244     1.0000 0.30930  0.87650  0.25000  Biso   1.000  H
  C236     1.0000 0.40280  0.85530  0.25000  Biso   1.000  C
  Cd13     1.0000 0.94041  0.43526  0.75000  Biso   1.000  Cd
  O41      1.0000 0.94650  0.67650  0.75000  Biso   1.000  O
  O42      1.0000 0.89160  0.56250  0.75000  Biso   1.000  O
  C237     1.0000 0.86430  0.71600  0.75000  Biso   1.000  C
  C238     1.0000 0.87600  0.81000  0.75000  Biso   1.000  C
  H245     1.0000 0.90870  0.82830  0.75000  Biso   1.000  H
  C239     1.0000 0.84000  0.87870  0.75000  Biso   1.000  C
  H246     1.0000 0.84810  0.94310  0.75000  Biso   1.000  H
  C240     1.0000 0.79240  0.85100  0.75000  Biso   1.000  C
  H247     1.0000 0.76770  0.89670  0.75000  Biso   1.000  H
  C241     1.0000 0.78050  0.75480  0.75000  Biso   1.000  C
  H248     1.0000 0.74790  0.73580  0.75000  Biso   1.000  H
  C242     1.0000 0.81700  0.68810  0.75000  Biso   1.000  C
  H249     1.0000 0.80930  0.62350  0.75000  Biso   1.000  H
  C243     1.0000 0.90280  0.64470  0.75000  Biso   1.000  C
  Cd14     1.0000 0.44041  0.93526  0.75000  Biso   1.000  Cd
  O43      1.0000 0.44650  0.17650  0.75000  Biso   1.000  O
  O44      1.0000 0.39160  0.06250  0.75000  Biso   1.000  O
  C244     1.0000 0.36430  0.21600  0.75000  Biso   1.000  C
  C245     1.0000 0.37600  0.31000  0.75000  Biso   1.000  C
  H250     1.0000 0.40870  0.32830  0.75000  Biso   1.000  H
  C246     1.0000 0.34000  0.37870  0.75000  Biso   1.000  C
  H251     1.0000 0.34810  0.44310  0.75000  Biso   1.000  H
  C247     1.0000 0.29240  0.35100  0.75000  Biso   1.000  C
  H252     1.0000 0.26770  0.39670  0.75000  Biso   1.000  H
  C248     1.0000 0.28050  0.25480  0.75000  Biso   1.000  C
  H253     1.0000 0.24790  0.23580  0.75000  Biso   1.000  H
  C249     1.0000 0.31700  0.18810  0.75000  Biso   1.000  C
  H254     1.0000 0.30930  0.12350  0.75000  Biso   1.000  H
  C250     1.0000 0.40280  0.14470  0.75000  Biso   1.000  C
  Cd15     1.0000 0.05959  0.56474  0.25000  Biso   1.000  Cd
  O45      1.0000 0.05350  0.32350  0.25000  Biso   1.000  O
  O46      1.0000 0.10840  0.43750  0.25000  Biso   1.000  O
  C251     1.0000 0.13570  0.28400  0.25000  Biso   1.000  C
  C252     1.0000 0.12400  0.19000  0.25000  Biso   1.000  C
  H255     1.0000 0.09130  0.17170  0.25000  Biso   1.000  H
  C253     1.0000 0.16000  0.12130  0.25000  Biso   1.000  C
  H256     1.0000 0.15190  0.05690  0.25000  Biso   1.000  H
  C254     1.0000 0.20760  0.14900  0.25000  Biso   1.000  C
  H257     1.0000 0.23230  0.10330  0.25000  Biso   1.000  H
  C255     1.0000 0.21950  0.24520  0.25000  Biso   1.000  C
  H258     1.0000 0.25210  0.26420  0.25000  Biso   1.000  H
  C256     1.0000 0.18300  0.31190  0.25000  Biso   1.000  C
  H259     1.0000 0.19070  0.37650  0.25000  Biso   1.000  H
  C257     1.0000 0.09720  0.35530  0.25000  Biso   1.000  C
  Cd16     1.0000 0.55959  0.06474  0.25000  Biso   1.000  Cd
  O47      1.0000 0.55350  0.82350  0.25000  Biso   1.000  O
  O48      1.0000 0.60840  0.93750  0.25000  Biso   1.000  O
  C258     1.0000 0.63570  0.78400  0.25000  Biso   1.000  C
  C259     1.0000 0.62400  0.69000  0.25000  Biso   1.000  C
  H260     1.0000 0.59130  0.67170  0.25000  Biso   1.000  H
  C260     1.0000 0.66000  0.62130  0.25000  Biso   1.000  C
  H261     1.0000 0.65190  0.55690  0.25000  Biso   1.000  H
  C261     1.0000 0.70760  0.64900  0.25000  Biso   1.000  C
  H262     1.0000 0.73230  0.60330  0.25000  Biso   1.000  H
  C262     1.0000 0.71950  0.74520  0.25000  Biso   1.000  C
  H263     1.0000 0.75210  0.76420  0.25000  Biso   1.000  H
  C263     1.0000 0.68300  0.81190  0.25000  Biso   1.000  C
  H264     1.0000 0.69070  0.87650  0.25000  Biso   1.000  H
  C264     1.0000 0.59720  0.85530  0.25000  Biso   1.000  C
  H265     1.0000 0.50000  0.96230  0.87370  Biso   1.000  H
  H266     1.0000 0.00000  0.46230  0.87370  Biso   1.000  H
  H267     1.0000 0.50000  0.03770  0.37370  Biso   1.000  H
  H268     1.0000 0.00000  0.53770  0.37370  Biso   1.000  H
  H269     1.0000 0.50000  0.96230  0.62630  Biso   1.000  H
  H270     1.0000 0.00000  0.46230  0.62630  Biso   1.000  H
  H271     1.0000 0.50000  0.03770  0.12630  Biso   1.000  H
  H272     1.0000 0.00000  0.53770  0.12630  Biso   1.000  H
  Cl9      1.0000 0.00000  0.28800  0.75000  Biso   1.000  Cl
  Cl10     1.0000 0.50000  0.78800  0.75000  Biso   1.000  Cl
  Cl11     1.0000 0.00000  0.71200  0.25000  Biso   1.000  Cl
  Cl12     1.0000 0.50000  0.21200  0.25000  Biso   1.000  Cl
