data_image0
_cell_length_a       7.5135
_cell_length_b       37.1568
_cell_length_c       11.1499
_cell_angle_alpha    90
_cell_angle_beta     98.647
_cell_angle_gamma    90

_symmetry_space_group_name_H-M    "P 1"
_symmetry_int_tables_number       1

loop_
  _symmetry_equiv_pos_as_xyz
  'x, y, z'

loop_
  _atom_site_label
  _atom_site_occupancy
  _atom_site_fract_x
  _atom_site_fract_y
  _atom_site_fract_z
  _atom_site_thermal_displace_type
  _atom_site_B_iso_or_equiv
  _atom_site_type_symbol
  O1       1.0000 0.29430  0.15392  0.38520  Biso   1.000  O
  C1       1.0000 0.36030  0.12410  0.35260  Biso   1.000  C
  H1       1.0000 0.34840  0.10550  0.41310  Biso   1.000  H
  H2       1.0000 0.48790  0.12750  0.34610  Biso   1.000  H
  H3       1.0000 0.29500  0.11670  0.27370  Biso   1.000  H
  Mn1      1.0000 0.06554  0.16588  0.47811  Biso   1.000  Mn
  C2       1.0000 0.93180  0.02683  0.41410  Biso   1.000  C
  C3       1.0000 0.90800  0.98992  0.38880  Biso   1.000  C
  H4       1.0000 0.84550  0.98270  0.31220  Biso   1.000  H
  N1       1.0000 0.67430  0.03395  0.12790  Biso   1.000  N
  C4       1.0000 0.02710  0.03587  0.52780  Biso   1.000  C
  H5       1.0000 0.04740  0.06050  0.54780  Biso   1.000  H
  N2       1.0000 0.92420  0.11976  0.38280  Biso   1.000  N
  N3       1.0000 0.94090  0.20219  0.33260  Biso   1.000  N
  N4       1.0000 0.18760  0.13076  0.62960  Biso   1.000  N
  C5       1.0000 0.75850  0.04473  0.21580  Biso   1.000  C
  N5       1.0000 0.46820  0.04597  0.87020  Biso   1.000  N
  C6       1.0000 0.43570  0.07517  0.84220  Biso   1.000  C
  C7       1.0000 0.49360  0.13956  0.89670  Biso   1.000  C
  C8       1.0000 0.58580  0.13107  0.01150  Biso   1.000  C
  H6       1.0000 0.59400  0.10670  0.03700  Biso   1.000  H
  C9       1.0000 0.65570  0.19399  0.05620  Biso   1.000  C
  C10      1.0000 0.89130  0.09062  0.35250  Biso   1.000  C
  C11      1.0000 0.66530  0.15754  0.08880  Biso   1.000  C
  H7       1.0000 0.72800  0.15080  0.16600  Biso   1.000  H
  C12      1.0000 0.85230  0.21237  0.24650  Biso   1.000  C
  C13      1.0000 0.28560  0.12077  0.71190  Biso   1.000  C
  C14      1.0000 0.56410  0.20236  0.94120  Biso   1.000  C
  H8       1.0000 0.55640  0.22680  0.91570  Biso   1.000  H
  N6       1.0000 0.70200  0.28715  0.07090  Biso   1.000  N
  C15      1.0000 0.48460  0.17611  0.86390  Biso   1.000  C
  H9       1.0000 0.42240  0.18290  0.78670  Biso   1.000  H
  C16      1.0000 0.72420  0.25829  0.10570  Biso   1.000  C
  C17      1.0000 0.86050  0.05448  0.32580  Biso   1.000  C
  C18      1.0000 0.40570  0.11170  0.81470  Biso   1.000  C
  C19      1.0000 0.74300  0.22192  0.13760  Biso   1.000  C
  O2       1.0000 0.39060  0.08106  0.37950  Biso   1.000  O
  C20      1.0000 0.41350  0.17180  0.33410  Biso   1.000  C
  H10      1.0000 0.37910  0.19730  0.32730  Biso   1.000  H
  H11      1.0000 0.41830  0.16200  0.25310  Biso   1.000  H
  H12      1.0000 0.53220  0.16960  0.38390  Biso   1.000  H
  C21      1.0000 0.46610  0.06500  0.47430  Biso   1.000  C
  H13      1.0000 0.51270  0.07920  0.54270  Biso   1.000  H
  C22      1.0000 0.41100  0.00640  0.38540  Biso   1.000  C
  H14      1.0000 0.33140  0.02020  0.32440  Biso   1.000  H
  H15      1.0000 0.34240  0.98700  0.41670  Biso   1.000  H
  H16      1.0000 0.50960  0.99610  0.34820  Biso   1.000  H
  N7       1.0000 0.48360  0.02980  0.48330  Biso   1.000  N
  C23      1.0000 0.57140  0.01410  0.59500  Biso   1.000  C
  H17      1.0000 0.59830  0.03300  0.65650  Biso   1.000  H
  H18      1.0000 0.68370  0.00250  0.58110  Biso   1.000  H
  H19      1.0000 0.49190  0.99610  0.62340  Biso   1.000  H
  O3       1.0000 0.20570  0.65392  0.11480  Biso   1.000  O
  C24      1.0000 0.13970  0.62410  0.14740  Biso   1.000  C
  H20      1.0000 0.15160  0.60550  0.08690  Biso   1.000  H
  H21      1.0000 0.01210  0.62750  0.15390  Biso   1.000  H
  H22      1.0000 0.20500  0.61670  0.22630  Biso   1.000  H
  Mn2      1.0000 0.43446  0.66588  0.02189  Biso   1.000  Mn
  C25      1.0000 0.56820  0.52683  0.08590  Biso   1.000  C
  C26      1.0000 0.59200  0.48992  0.11120  Biso   1.000  C
  H23      1.0000 0.65450  0.48270  0.18780  Biso   1.000  H
  N8       1.0000 0.82570  0.53395  0.37210  Biso   1.000  N
  C27      1.0000 0.47290  0.53587  0.97220  Biso   1.000  C
  H24      1.0000 0.45260  0.56050  0.95220  Biso   1.000  H
  N9       1.0000 0.57580  0.61976  0.11720  Biso   1.000  N
  N10      1.0000 0.55910  0.70219  0.16740  Biso   1.000  N
  N11      1.0000 0.31240  0.63076  0.87040  Biso   1.000  N
  C28      1.0000 0.74150  0.54473  0.28420  Biso   1.000  C
  N12      1.0000 0.03180  0.54597  0.62980  Biso   1.000  N
  C29      1.0000 0.06430  0.57517  0.65780  Biso   1.000  C
  C30      1.0000 0.00640  0.63956  0.60330  Biso   1.000  C
  C31      1.0000 0.91420  0.63107  0.48850  Biso   1.000  C
  H25      1.0000 0.90600  0.60670  0.46300  Biso   1.000  H
  C32      1.0000 0.84430  0.69399  0.44380  Biso   1.000  C
  C33      1.0000 0.60870  0.59062  0.14750  Biso   1.000  C
  C34      1.0000 0.83470  0.65754  0.41120  Biso   1.000  C
  H26      1.0000 0.77200  0.65080  0.33400  Biso   1.000  H
  C35      1.0000 0.64770  0.71237  0.25350  Biso   1.000  C
  C36      1.0000 0.21440  0.62077  0.78810  Biso   1.000  C
  C37      1.0000 0.93590  0.70236  0.55880  Biso   1.000  C
  H27      1.0000 0.94360  0.72680  0.58430  Biso   1.000  H
  N13      1.0000 0.79800  0.78715  0.42910  Biso   1.000  N
  C38      1.0000 0.01540  0.67611  0.63610  Biso   1.000  C
  H28      1.0000 0.07760  0.68290  0.71330  Biso   1.000  H
  C39      1.0000 0.77580  0.75829  0.39430  Biso   1.000  C
  C40      1.0000 0.63950  0.55448  0.17420  Biso   1.000  C
  C41      1.0000 0.09430  0.61170  0.68530  Biso   1.000  C
  C42      1.0000 0.75700  0.72192  0.36240  Biso   1.000  C
  O4       1.0000 0.10940  0.58106  0.12050  Biso   1.000  O
  C43      1.0000 0.08650  0.67180  0.16590  Biso   1.000  C
  H29      1.0000 0.12090  0.69730  0.17270  Biso   1.000  H
  H30      1.0000 0.08170  0.66200  0.24690  Biso   1.000  H
  H31      1.0000 0.96780  0.66960  0.11610  Biso   1.000  H
  C44      1.0000 0.03390  0.56500  0.02570  Biso   1.000  C
  H32      1.0000 0.98730  0.57920  0.95730  Biso   1.000  H
  C45      1.0000 0.08900  0.50640  0.11460  Biso   1.000  C
  H33      1.0000 0.16860  0.52020  0.17560  Biso   1.000  H
  H34      1.0000 0.15760  0.48700  0.08330  Biso   1.000  H
  H35      1.0000 0.99040  0.49610  0.15180  Biso   1.000  H
  N14      1.0000 0.01640  0.52980  0.01670  Biso   1.000  N
  C46      1.0000 0.92860  0.51410  0.90500  Biso   1.000  C
  H36      1.0000 0.90170  0.53300  0.84350  Biso   1.000  H
  H37      1.0000 0.81630  0.50250  0.91890  Biso   1.000  H
  H38      1.0000 0.00810  0.49610  0.87660  Biso   1.000  H
  O5       1.0000 0.70570  0.84608  0.61480  Biso   1.000  O
  C47      1.0000 0.63970  0.87590  0.64740  Biso   1.000  C
  H39      1.0000 0.65160  0.89450  0.58690  Biso   1.000  H
  H40      1.0000 0.51210  0.87250  0.65390  Biso   1.000  H
  H41      1.0000 0.70500  0.88330  0.72630  Biso   1.000  H
  Mn3      1.0000 0.93446  0.83412  0.52189  Biso   1.000  Mn
  C48      1.0000 0.06820  0.97317  0.58590  Biso   1.000  C
  C49      1.0000 0.09200  0.01008  0.61120  Biso   1.000  C
  H42      1.0000 0.15450  0.01730  0.68780  Biso   1.000  H
  N15      1.0000 0.32570  0.96605  0.87210  Biso   1.000  N
  C50      1.0000 0.97290  0.96413  0.47220  Biso   1.000  C
  H43      1.0000 0.95260  0.93950  0.45220  Biso   1.000  H
  N16      1.0000 0.07580  0.88024  0.61720  Biso   1.000  N
  N17      1.0000 0.05910  0.79781  0.66740  Biso   1.000  N
  N18      1.0000 0.81240  0.86924  0.37040  Biso   1.000  N
  C51      1.0000 0.24150  0.95527  0.78420  Biso   1.000  C
  N19      1.0000 0.53180  0.95403  0.12980  Biso   1.000  N
  C52      1.0000 0.56430  0.92483  0.15780  Biso   1.000  C
  C53      1.0000 0.50640  0.86044  0.10330  Biso   1.000  C
  C54      1.0000 0.41420  0.86893  0.98850  Biso   1.000  C
  H44      1.0000 0.40600  0.89330  0.96300  Biso   1.000  H
  C55      1.0000 0.34430  0.80601  0.94380  Biso   1.000  C
  C56      1.0000 0.10870  0.90938  0.64750  Biso   1.000  C
  C57      1.0000 0.33470  0.84246  0.91120  Biso   1.000  C
  H45      1.0000 0.27200  0.84920  0.83400  Biso   1.000  H
  C58      1.0000 0.14770  0.78763  0.75350  Biso   1.000  C
  C59      1.0000 0.71440  0.87923  0.28810  Biso   1.000  C
  C60      1.0000 0.43590  0.79764  0.05880  Biso   1.000  C
  H46      1.0000 0.44360  0.77320  0.08430  Biso   1.000  H
  N20      1.0000 0.29800  0.71285  0.92910  Biso   1.000  N
  C61      1.0000 0.51540  0.82389  0.13610  Biso   1.000  C
  H47      1.0000 0.57760  0.81710  0.21330  Biso   1.000  H
  C62      1.0000 0.27580  0.74171  0.89430  Biso   1.000  C
  C63      1.0000 0.13950  0.94552  0.67420  Biso   1.000  C
  C64      1.0000 0.59430  0.88830  0.18530  Biso   1.000  C
  C65      1.0000 0.25700  0.77808  0.86240  Biso   1.000  C
  O6       1.0000 0.60940  0.91894  0.62050  Biso   1.000  O
  C66      1.0000 0.58650  0.82820  0.66590  Biso   1.000  C
  H48      1.0000 0.62090  0.80270  0.67270  Biso   1.000  H
  H49      1.0000 0.58170  0.83800  0.74690  Biso   1.000  H
  H50      1.0000 0.46780  0.83040  0.61610  Biso   1.000  H
  C67      1.0000 0.53390  0.93500  0.52570  Biso   1.000  C
  H51      1.0000 0.48730  0.92080  0.45730  Biso   1.000  H
  C68      1.0000 0.58900  0.99360  0.61460  Biso   1.000  C
  H52      1.0000 0.66860  0.97980  0.67560  Biso   1.000  H
  H53      1.0000 0.65760  0.01300  0.58330  Biso   1.000  H
  H54      1.0000 0.49040  0.00390  0.65180  Biso   1.000  H
  N21      1.0000 0.51640  0.97020  0.51670  Biso   1.000  N
  C69      1.0000 0.42860  0.98590  0.40500  Biso   1.000  C
  H55      1.0000 0.40170  0.96700  0.34350  Biso   1.000  H
  H56      1.0000 0.31630  0.99750  0.41890  Biso   1.000  H
  H57      1.0000 0.50810  0.00390  0.37660  Biso   1.000  H
  O7       1.0000 0.79430  0.34608  0.88520  Biso   1.000  O
  C70      1.0000 0.86030  0.37590  0.85260  Biso   1.000  C
  H58      1.0000 0.84840  0.39450  0.91310  Biso   1.000  H
  H59      1.0000 0.98790  0.37250  0.84610  Biso   1.000  H
  H60      1.0000 0.79500  0.38330  0.77370  Biso   1.000  H
  Mn4      1.0000 0.56554  0.33412  0.97811  Biso   1.000  Mn
  C71      1.0000 0.43180  0.47317  0.91410  Biso   1.000  C
  C72      1.0000 0.40800  0.51008  0.88880  Biso   1.000  C
  H61      1.0000 0.34550  0.51730  0.81220  Biso   1.000  H
  N22      1.0000 0.17430  0.46605  0.62790  Biso   1.000  N
  C73      1.0000 0.52710  0.46413  0.02780  Biso   1.000  C
  H62      1.0000 0.54740  0.43950  0.04780  Biso   1.000  H
  N23      1.0000 0.42420  0.38024  0.88280  Biso   1.000  N
  N24      1.0000 0.44090  0.29781  0.83260  Biso   1.000  N
  N25      1.0000 0.68760  0.36924  0.12960  Biso   1.000  N
  C74      1.0000 0.25850  0.45527  0.71580  Biso   1.000  C
  N26      1.0000 0.96820  0.45403  0.37020  Biso   1.000  N
  C75      1.0000 0.93570  0.42483  0.34220  Biso   1.000  C
  C76      1.0000 0.99360  0.36044  0.39670  Biso   1.000  C
  C77      1.0000 0.08580  0.36893  0.51150  Biso   1.000  C
  H63      1.0000 0.09400  0.39330  0.53700  Biso   1.000  H
  C78      1.0000 0.15570  0.30601  0.55620  Biso   1.000  C
  C79      1.0000 0.39130  0.40938  0.85250  Biso   1.000  C
  C80      1.0000 0.16530  0.34246  0.58880  Biso   1.000  C
  H64      1.0000 0.22800  0.34920  0.66600  Biso   1.000  H
  C81      1.0000 0.35230  0.28763  0.74650  Biso   1.000  C
  C82      1.0000 0.78560  0.37923  0.21190  Biso   1.000  C
  C83      1.0000 0.06410  0.29764  0.44120  Biso   1.000  C
  H65      1.0000 0.05640  0.27320  0.41570  Biso   1.000  H
  N27      1.0000 0.20200  0.21285  0.57090  Biso   1.000  N
  C84      1.0000 0.98460  0.32389  0.36390  Biso   1.000  C
  H66      1.0000 0.92240  0.31710  0.28670  Biso   1.000  H
  C85      1.0000 0.22420  0.24171  0.60570  Biso   1.000  C
  C86      1.0000 0.36050  0.44552  0.82580  Biso   1.000  C
  C87      1.0000 0.90570  0.38830  0.31470  Biso   1.000  C
  C88      1.0000 0.24300  0.27808  0.63760  Biso   1.000  C
  O8       1.0000 0.89060  0.41894  0.87950  Biso   1.000  O
  C89      1.0000 0.91350  0.32820  0.83410  Biso   1.000  C
  H67      1.0000 0.87910  0.30270  0.82730  Biso   1.000  H
  H68      1.0000 0.91830  0.33800  0.75310  Biso   1.000  H
  H69      1.0000 0.03220  0.33040  0.88390  Biso   1.000  H
  C90      1.0000 0.96610  0.43500  0.97430  Biso   1.000  C
  H70      1.0000 0.01270  0.42080  0.04270  Biso   1.000  H
  C91      1.0000 0.91100  0.49360  0.88540  Biso   1.000  C
  H71      1.0000 0.83140  0.47980  0.82440  Biso   1.000  H
  H72      1.0000 0.84240  0.51300  0.91670  Biso   1.000  H
  H73      1.0000 0.00960  0.50390  0.84820  Biso   1.000  H
  N28      1.0000 0.98360  0.47020  0.98330  Biso   1.000  N
  C92      1.0000 0.07140  0.48590  0.09500  Biso   1.000  C
  H74      1.0000 0.09830  0.46700  0.15650  Biso   1.000  H
  H75      1.0000 0.18370  0.49750  0.08110  Biso   1.000  H
  H76      1.0000 0.99190  0.50390  0.12340  Biso   1.000  H
  Mn5      1.0000 0.50000  0.00000  0.00000  Biso   1.000  Mn
  Mn6      1.0000 0.00000  0.50000  0.50000  Biso   1.000  Mn
