data_image0
_cell_length_a       7.4821
_cell_length_b       36.6491
_cell_length_c       11.0566
_cell_angle_alpha    90
_cell_angle_beta     99.283
_cell_angle_gamma    90

_symmetry_space_group_name_H-M    "P 1"
_symmetry_int_tables_number       1

loop_
  _symmetry_equiv_pos_as_xyz
  'x, y, z'

loop_
  _atom_site_label
  _atom_site_occupancy
  _atom_site_fract_x
  _atom_site_fract_y
  _atom_site_fract_z
  _atom_site_thermal_displace_type
  _atom_site_B_iso_or_equiv
  _atom_site_type_symbol
  Zn1      1.0000 0.06869  0.16585  0.47535  Biso   1.000  Zn
  O1       1.0000 0.28540  0.15528  0.38180  Biso   1.000  O
  N1       1.0000 0.94330  0.20145  0.33500  Biso   1.000  N
  N2       1.0000 0.19290  0.13128  0.62070  Biso   1.000  N
  N3       1.0000 0.70340  0.28861  0.06500  Biso   1.000  N
  N4       1.0000 0.93070  0.12081  0.38310  Biso   1.000  N
  N5       1.0000 0.46850  0.04434  0.87310  Biso   1.000  N
  N6       1.0000 0.67010  0.03301  0.12440  Biso   1.000  N
  C1       1.0000 0.85600  0.21275  0.24720  Biso   1.000  C
  C2       1.0000 0.74730  0.22260  0.13810  Biso   1.000  C
  C3       1.0000 0.72690  0.25916  0.10320  Biso   1.000  C
  C4       1.0000 0.66190  0.19417  0.05460  Biso   1.000  C
  C5       1.0000 0.66940  0.15765  0.08840  Biso   1.000  C
  H1       1.0000 0.73010  0.15090  0.16740  Biso   1.000  H
  C6       1.0000 0.57010  0.20271  0.93730  Biso   1.000  C
  H2       1.0000 0.56200  0.22750  0.91160  Biso   1.000  H
  C7       1.0000 0.59030  0.13090  0.00950  Biso   1.000  C
  H3       1.0000 0.59920  0.10610  0.03510  Biso   1.000  H
  C8       1.0000 0.49130  0.17605  0.85850  Biso   1.000  C
  H4       1.0000 0.43160  0.18280  0.77920  Biso   1.000  H
  C9       1.0000 0.49730  0.13940  0.89270  Biso   1.000  C
  C10      1.0000 0.40860  0.11097  0.80950  Biso   1.000  C
  C11      1.0000 0.43690  0.07395  0.84110  Biso   1.000  C
  C12      1.0000 0.28840  0.12063  0.70450  Biso   1.000  C
  C13      1.0000 0.85910  0.05490  0.32220  Biso   1.000  C
  C14      1.0000 0.75600  0.04451  0.21220  Biso   1.000  C
  C15      1.0000 0.93180  0.02703  0.41260  Biso   1.000  C
  C16      1.0000 0.90530  0.98982  0.38750  Biso   1.000  C
  H5       1.0000 0.84030  0.98250  0.31030  Biso   1.000  H
  C17      1.0000 0.02890  0.03632  0.52830  Biso   1.000  C
  H6       1.0000 0.04950  0.06130  0.54850  Biso   1.000  H
  C18      1.0000 0.89530  0.09168  0.34990  Biso   1.000  C
  C19      1.0000 0.41400  0.17490  0.33530  Biso   1.000  C
  H7       1.0000 0.42620  0.16550  0.25410  Biso   1.000  H
  H8       1.0000 0.53050  0.17270  0.39010  Biso   1.000  H
  H9       1.0000 0.37810  0.20070  0.32850  Biso   1.000  H
  C20      1.0000 0.35100  0.12380  0.35790  Biso   1.000  C
  H10      1.0000 0.35190  0.10750  0.42820  Biso   1.000  H
  H11      1.0000 0.47510  0.12700  0.34160  Biso   1.000  H
  H12      1.0000 0.27600  0.11320  0.28570  Biso   1.000  H
  O2       1.0000 0.38760  0.08250  0.37440  Biso   1.000  O
  N7       1.0000 0.48030  0.03060  0.48050  Biso   1.000  N
  C21      1.0000 0.46580  0.06630  0.47030  Biso   1.000  C
  H13      1.0000 0.51650  0.08090  0.53850  Biso   1.000  H
  C22      1.0000 0.57240  0.01380  0.59290  Biso   1.000  C
  H14      1.0000 0.67980  0.00070  0.57590  Biso   1.000  H
  H15      1.0000 0.49030  0.99670  0.62410  Biso   1.000  H
  H16      1.0000 0.60910  0.03280  0.65420  Biso   1.000  H
  C23      1.0000 0.40200  0.00580  0.38210  Biso   1.000  C
  H17      1.0000 0.32700  0.01980  0.31720  Biso   1.000  H
  H18      1.0000 0.32670  0.98750  0.41480  Biso   1.000  H
  H19      1.0000 0.49920  0.99350  0.34840  Biso   1.000  H
  Zn2      1.0000 0.43131  0.66585  0.02465  Biso   1.000  Zn
  O3       1.0000 0.21460  0.65528  0.11820  Biso   1.000  O
  N8       1.0000 0.55670  0.70145  0.16500  Biso   1.000  N
  N9       1.0000 0.30710  0.63128  0.87930  Biso   1.000  N
  N10      1.0000 0.79660  0.78861  0.43500  Biso   1.000  N
  N11      1.0000 0.56930  0.62081  0.11690  Biso   1.000  N
  N12      1.0000 0.03150  0.54434  0.62690  Biso   1.000  N
  N13      1.0000 0.82990  0.53301  0.37560  Biso   1.000  N
  C24      1.0000 0.64400  0.71275  0.25280  Biso   1.000  C
  C25      1.0000 0.75270  0.72260  0.36190  Biso   1.000  C
  C26      1.0000 0.77310  0.75916  0.39680  Biso   1.000  C
  C27      1.0000 0.83810  0.69417  0.44540  Biso   1.000  C
  C28      1.0000 0.83060  0.65765  0.41160  Biso   1.000  C
  H20      1.0000 0.76990  0.65090  0.33260  Biso   1.000  H
  C29      1.0000 0.92990  0.70271  0.56270  Biso   1.000  C
  H21      1.0000 0.93800  0.72750  0.58840  Biso   1.000  H
  C30      1.0000 0.90970  0.63090  0.49050  Biso   1.000  C
  H22      1.0000 0.90080  0.60610  0.46490  Biso   1.000  H
  C31      1.0000 0.00870  0.67605  0.64150  Biso   1.000  C
  H23      1.0000 0.06840  0.68280  0.72080  Biso   1.000  H
  C32      1.0000 0.00270  0.63940  0.60730  Biso   1.000  C
  C33      1.0000 0.09140  0.61097  0.69050  Biso   1.000  C
  C34      1.0000 0.06310  0.57395  0.65890  Biso   1.000  C
  C35      1.0000 0.21160  0.62063  0.79550  Biso   1.000  C
  C36      1.0000 0.64090  0.55490  0.17780  Biso   1.000  C
  C37      1.0000 0.74400  0.54451  0.28780  Biso   1.000  C
  C38      1.0000 0.56820  0.52703  0.08740  Biso   1.000  C
  C39      1.0000 0.59470  0.48982  0.11250  Biso   1.000  C
  H24      1.0000 0.65970  0.48250  0.18970  Biso   1.000  H
  C40      1.0000 0.47110  0.53632  0.97170  Biso   1.000  C
  H25      1.0000 0.45050  0.56130  0.95150  Biso   1.000  H
  C41      1.0000 0.60470  0.59168  0.15010  Biso   1.000  C
  C42      1.0000 0.08600  0.67490  0.16470  Biso   1.000  C
  H26      1.0000 0.07380  0.66550  0.24590  Biso   1.000  H
  H27      1.0000 0.96950  0.67270  0.10990  Biso   1.000  H
  H28      1.0000 0.12190  0.70070  0.17150  Biso   1.000  H
  C43      1.0000 0.14900  0.62380  0.14210  Biso   1.000  C
  H29      1.0000 0.14810  0.60750  0.07180  Biso   1.000  H
  H30      1.0000 0.02490  0.62700  0.15840  Biso   1.000  H
  H31      1.0000 0.22400  0.61320  0.21430  Biso   1.000  H
  O4       1.0000 0.11240  0.58250  0.12560  Biso   1.000  O
  N14      1.0000 0.01970  0.53060  0.01950  Biso   1.000  N
  C44      1.0000 0.03420  0.56630  0.02970  Biso   1.000  C
  H32      1.0000 0.98350  0.58090  0.96150  Biso   1.000  H
  C45      1.0000 0.92760  0.51380  0.90710  Biso   1.000  C
  H33      1.0000 0.82020  0.50070  0.92410  Biso   1.000  H
  H34      1.0000 0.00970  0.49670  0.87590  Biso   1.000  H
  H35      1.0000 0.89090  0.53280  0.84580  Biso   1.000  H
  C46      1.0000 0.09800  0.50580  0.11790  Biso   1.000  C
  H36      1.0000 0.17300  0.51980  0.18280  Biso   1.000  H
  H37      1.0000 0.17330  0.48750  0.08520  Biso   1.000  H
  H38      1.0000 0.00080  0.49350  0.15160  Biso   1.000  H
  Zn3      1.0000 0.93131  0.83415  0.52465  Biso   1.000  Zn
  O5       1.0000 0.71460  0.84472  0.61820  Biso   1.000  O
  N15      1.0000 0.05670  0.79855  0.66500  Biso   1.000  N
  N16      1.0000 0.80710  0.86872  0.37930  Biso   1.000  N
  N17      1.0000 0.29660  0.71139  0.93500  Biso   1.000  N
  N18      1.0000 0.06930  0.87919  0.61690  Biso   1.000  N
  N19      1.0000 0.53150  0.95566  0.12690  Biso   1.000  N
  N20      1.0000 0.32990  0.96699  0.87560  Biso   1.000  N
  C47      1.0000 0.14400  0.78725  0.75280  Biso   1.000  C
  C48      1.0000 0.25270  0.77740  0.86190  Biso   1.000  C
  C49      1.0000 0.27310  0.74084  0.89680  Biso   1.000  C
  C50      1.0000 0.33810  0.80583  0.94540  Biso   1.000  C
  C51      1.0000 0.33060  0.84235  0.91160  Biso   1.000  C
  H39      1.0000 0.26990  0.84910  0.83260  Biso   1.000  H
  C52      1.0000 0.42990  0.79729  0.06270  Biso   1.000  C
  H40      1.0000 0.43800  0.77250  0.08840  Biso   1.000  H
  C53      1.0000 0.40970  0.86910  0.99050  Biso   1.000  C
  H41      1.0000 0.40080  0.89390  0.96490  Biso   1.000  H
  C54      1.0000 0.50870  0.82395  0.14150  Biso   1.000  C
  H42      1.0000 0.56840  0.81720  0.22080  Biso   1.000  H
  C55      1.0000 0.50270  0.86060  0.10730  Biso   1.000  C
  C56      1.0000 0.59140  0.88903  0.19050  Biso   1.000  C
  C57      1.0000 0.56310  0.92605  0.15890  Biso   1.000  C
  C58      1.0000 0.71160  0.87937  0.29550  Biso   1.000  C
  C59      1.0000 0.14090  0.94510  0.67780  Biso   1.000  C
  C60      1.0000 0.24400  0.95549  0.78780  Biso   1.000  C
  C61      1.0000 0.06820  0.97297  0.58740  Biso   1.000  C
  C62      1.0000 0.09470  0.01018  0.61250  Biso   1.000  C
  H43      1.0000 0.15970  0.01750  0.68970  Biso   1.000  H
  C63      1.0000 0.97110  0.96368  0.47170  Biso   1.000  C
  H44      1.0000 0.95050  0.93870  0.45150  Biso   1.000  H
  C64      1.0000 0.10470  0.90832  0.65010  Biso   1.000  C
  C65      1.0000 0.58600  0.82510  0.66470  Biso   1.000  C
  H45      1.0000 0.57380  0.83450  0.74590  Biso   1.000  H
  H46      1.0000 0.46950  0.82730  0.60990  Biso   1.000  H
  H47      1.0000 0.62190  0.79930  0.67150  Biso   1.000  H
  C66      1.0000 0.64900  0.87620  0.64210  Biso   1.000  C
  H48      1.0000 0.64810  0.89250  0.57180  Biso   1.000  H
  H49      1.0000 0.52490  0.87300  0.65840  Biso   1.000  H
  H50      1.0000 0.72400  0.88680  0.71430  Biso   1.000  H
  O6       1.0000 0.61240  0.91750  0.62560  Biso   1.000  O
  N21      1.0000 0.51970  0.96940  0.51950  Biso   1.000  N
  C67      1.0000 0.53420  0.93370  0.52970  Biso   1.000  C
  H51      1.0000 0.48350  0.91910  0.46150  Biso   1.000  H
  C68      1.0000 0.42760  0.98620  0.40710  Biso   1.000  C
  H52      1.0000 0.32020  0.99930  0.42410  Biso   1.000  H
  H53      1.0000 0.50970  0.00330  0.37590  Biso   1.000  H
  H54      1.0000 0.39090  0.96720  0.34580  Biso   1.000  H
  C69      1.0000 0.59800  0.99420  0.61790  Biso   1.000  C
  H55      1.0000 0.67300  0.98020  0.68280  Biso   1.000  H
  H56      1.0000 0.67330  0.01250  0.58520  Biso   1.000  H
  H57      1.0000 0.50080  0.00650  0.65160  Biso   1.000  H
  Zn4      1.0000 0.56869  0.33415  0.97535  Biso   1.000  Zn
  O7       1.0000 0.78540  0.34472  0.88180  Biso   1.000  O
  N22      1.0000 0.44330  0.29855  0.83500  Biso   1.000  N
  N23      1.0000 0.69290  0.36872  0.12070  Biso   1.000  N
  N24      1.0000 0.20340  0.21139  0.56500  Biso   1.000  N
  N25      1.0000 0.43070  0.37919  0.88310  Biso   1.000  N
  N26      1.0000 0.96850  0.45566  0.37310  Biso   1.000  N
  N27      1.0000 0.17010  0.46699  0.62440  Biso   1.000  N
  C70      1.0000 0.35600  0.28725  0.74720  Biso   1.000  C
  C71      1.0000 0.24730  0.27740  0.63810  Biso   1.000  C
  C72      1.0000 0.22690  0.24084  0.60320  Biso   1.000  C
  C73      1.0000 0.16190  0.30583  0.55460  Biso   1.000  C
  C74      1.0000 0.16940  0.34235  0.58840  Biso   1.000  C
  H58      1.0000 0.23010  0.34910  0.66740  Biso   1.000  H
  C75      1.0000 0.07010  0.29729  0.43730  Biso   1.000  C
  H59      1.0000 0.06200  0.27250  0.41160  Biso   1.000  H
  C76      1.0000 0.09030  0.36910  0.50950  Biso   1.000  C
  H60      1.0000 0.09920  0.39390  0.53510  Biso   1.000  H
  C77      1.0000 0.99130  0.32395  0.35850  Biso   1.000  C
  H61      1.0000 0.93160  0.31720  0.27920  Biso   1.000  H
  C78      1.0000 0.99730  0.36060  0.39270  Biso   1.000  C
  C79      1.0000 0.90860  0.38903  0.30950  Biso   1.000  C
  C80      1.0000 0.93690  0.42605  0.34110  Biso   1.000  C
  C81      1.0000 0.78840  0.37937  0.20450  Biso   1.000  C
  C82      1.0000 0.35910  0.44510  0.82220  Biso   1.000  C
  C83      1.0000 0.25600  0.45549  0.71220  Biso   1.000  C
  C84      1.0000 0.43180  0.47297  0.91260  Biso   1.000  C
  C85      1.0000 0.40530  0.51018  0.88750  Biso   1.000  C
  H62      1.0000 0.34030  0.51750  0.81030  Biso   1.000  H
  C86      1.0000 0.52890  0.46368  0.02830  Biso   1.000  C
  H63      1.0000 0.54950  0.43870  0.04850  Biso   1.000  H
  C87      1.0000 0.39530  0.40832  0.84990  Biso   1.000  C
  C88      1.0000 0.91400  0.32510  0.83530  Biso   1.000  C
  H64      1.0000 0.92620  0.33450  0.75410  Biso   1.000  H
  H65      1.0000 0.03050  0.32730  0.89010  Biso   1.000  H
  H66      1.0000 0.87810  0.29930  0.82850  Biso   1.000  H
  C89      1.0000 0.85100  0.37620  0.85790  Biso   1.000  C
  H67      1.0000 0.85190  0.39250  0.92820  Biso   1.000  H
  H68      1.0000 0.97510  0.37300  0.84160  Biso   1.000  H
  H69      1.0000 0.77600  0.38680  0.78570  Biso   1.000  H
  O8       1.0000 0.88760  0.41750  0.87440  Biso   1.000  O
  N28      1.0000 0.98030  0.46940  0.98050  Biso   1.000  N
  C90      1.0000 0.96580  0.43370  0.97030  Biso   1.000  C
  H70      1.0000 0.01650  0.41910  0.03850  Biso   1.000  H
  C91      1.0000 0.07240  0.48620  0.09290  Biso   1.000  C
  H71      1.0000 0.17980  0.49930  0.07590  Biso   1.000  H
  H72      1.0000 0.99030  0.50330  0.12410  Biso   1.000  H
  H73      1.0000 0.10910  0.46720  0.15420  Biso   1.000  H
  C92      1.0000 0.90200  0.49420  0.88210  Biso   1.000  C
  H74      1.0000 0.82700  0.48020  0.81720  Biso   1.000  H
  H75      1.0000 0.82670  0.51250  0.91480  Biso   1.000  H
  H76      1.0000 0.99920  0.50650  0.84840  Biso   1.000  H
  Zn5      1.0000 0.50000  0.00000  0.00000  Biso   1.000  Zn
  Zn6      1.0000 0.00000  0.50000  0.50000  Biso   1.000  Zn
