data_image0
_cell_length_a       17.1728
_cell_length_b       17.1728
_cell_length_c       17.1728
_cell_angle_alpha    90
_cell_angle_beta     90
_cell_angle_gamma    90

_symmetry_space_group_name_H-M    "P 1"
_symmetry_int_tables_number       1

loop_
  _symmetry_equiv_pos_as_xyz
  'x, y, z'

loop_
  _atom_site_label
  _atom_site_occupancy
  _atom_site_fract_x
  _atom_site_fract_y
  _atom_site_fract_z
  _atom_site_thermal_displace_type
  _atom_site_B_iso_or_equiv
  _atom_site_type_symbol
  H1       1.0000 0.01080  0.83730  0.22660  Biso   1.000  H
  C1       1.0000 0.13880  0.79480  0.30640  Biso   1.000  C
  H2       1.0000 0.10720  0.82940  0.33680  Biso   1.000  H
  H3       1.0000 0.16660  0.76020  0.34040  Biso   1.000  H
  H4       1.0000 0.98950  0.77340  0.16300  Biso   1.000  H
  H5       1.0000 0.91950  0.83180  0.16640  Biso   1.000  H
  C2       1.0000 0.86100  0.69440  0.20540  Biso   1.000  C
  H6       1.0000 0.89230  0.66360  0.17080  Biso   1.000  H
  H7       1.0000 0.83280  0.66070  0.23990  Biso   1.000  H
  H8       1.0000 0.98920  0.16270  0.22660  Biso   1.000  H
  C3       1.0000 0.86120  0.20520  0.30640  Biso   1.000  C
  H9       1.0000 0.89280  0.17060  0.33680  Biso   1.000  H
  H10      1.0000 0.83340  0.23980  0.34040  Biso   1.000  H
  H11      1.0000 0.01050  0.22660  0.16300  Biso   1.000  H
  H12      1.0000 0.08050  0.16820  0.16640  Biso   1.000  H
  C4       1.0000 0.13900  0.30560  0.20540  Biso   1.000  C
  H13      1.0000 0.10770  0.33640  0.17080  Biso   1.000  H
  H14      1.0000 0.16720  0.33930  0.23990  Biso   1.000  H
  H15      1.0000 0.98920  0.83730  0.77340  Biso   1.000  H
  C5       1.0000 0.86120  0.79480  0.69360  Biso   1.000  C
  H16      1.0000 0.89280  0.82940  0.66320  Biso   1.000  H
  H17      1.0000 0.83340  0.76020  0.65960  Biso   1.000  H
  H18      1.0000 0.01050  0.77340  0.83700  Biso   1.000  H
  H19      1.0000 0.08050  0.83180  0.83360  Biso   1.000  H
  C6       1.0000 0.13900  0.69440  0.79460  Biso   1.000  C
  H20      1.0000 0.10770  0.66360  0.82920  Biso   1.000  H
  H21      1.0000 0.16720  0.66070  0.76010  Biso   1.000  H
  H22      1.0000 0.01080  0.16270  0.77340  Biso   1.000  H
  C7       1.0000 0.13880  0.20520  0.69360  Biso   1.000  C
  H23      1.0000 0.10720  0.17060  0.66320  Biso   1.000  H
  H24      1.0000 0.16660  0.23980  0.65960  Biso   1.000  H
  H25      1.0000 0.98950  0.22660  0.83700  Biso   1.000  H
  H26      1.0000 0.91950  0.16820  0.83360  Biso   1.000  H
  C8       1.0000 0.86100  0.30560  0.79460  Biso   1.000  C
  H27      1.0000 0.89230  0.33640  0.82920  Biso   1.000  H
  H28      1.0000 0.83280  0.33930  0.76010  Biso   1.000  H
  H29      1.0000 0.22660  0.01080  0.83730  Biso   1.000  H
  C9       1.0000 0.30640  0.13880  0.79480  Biso   1.000  C
  H30      1.0000 0.33680  0.10720  0.82940  Biso   1.000  H
  H31      1.0000 0.34040  0.16660  0.76020  Biso   1.000  H
  H32      1.0000 0.16300  0.98950  0.77340  Biso   1.000  H
  H33      1.0000 0.16640  0.91950  0.83180  Biso   1.000  H
  C10      1.0000 0.20540  0.86100  0.69440  Biso   1.000  C
  H34      1.0000 0.17080  0.89230  0.66360  Biso   1.000  H
  H35      1.0000 0.23990  0.83280  0.66070  Biso   1.000  H
  H36      1.0000 0.22660  0.98920  0.16270  Biso   1.000  H
  C11      1.0000 0.30640  0.86120  0.20520  Biso   1.000  C
  H37      1.0000 0.33680  0.89280  0.17060  Biso   1.000  H
  H38      1.0000 0.34040  0.83340  0.23980  Biso   1.000  H
  H39      1.0000 0.16300  0.01050  0.22660  Biso   1.000  H
  H40      1.0000 0.16640  0.08050  0.16820  Biso   1.000  H
  C12      1.0000 0.20540  0.13900  0.30560  Biso   1.000  C
  H41      1.0000 0.17080  0.10770  0.33640  Biso   1.000  H
  H42      1.0000 0.23990  0.16720  0.33930  Biso   1.000  H
  H43      1.0000 0.77340  0.98920  0.83730  Biso   1.000  H
  C13      1.0000 0.69360  0.86120  0.79480  Biso   1.000  C
  H44      1.0000 0.66320  0.89280  0.82940  Biso   1.000  H
  H45      1.0000 0.65960  0.83340  0.76020  Biso   1.000  H
  H46      1.0000 0.83700  0.01050  0.77340  Biso   1.000  H
  H47      1.0000 0.83360  0.08050  0.83180  Biso   1.000  H
  C14      1.0000 0.79460  0.13900  0.69440  Biso   1.000  C
  H48      1.0000 0.82920  0.10770  0.66360  Biso   1.000  H
  H49      1.0000 0.76010  0.16720  0.66070  Biso   1.000  H
  H50      1.0000 0.77340  0.01080  0.16270  Biso   1.000  H
  C15      1.0000 0.69360  0.13880  0.20520  Biso   1.000  C
  H51      1.0000 0.66320  0.10720  0.17060  Biso   1.000  H
  H52      1.0000 0.65960  0.16660  0.23980  Biso   1.000  H
  H53      1.0000 0.83700  0.98950  0.22660  Biso   1.000  H
  H54      1.0000 0.83360  0.91950  0.16820  Biso   1.000  H
  C16      1.0000 0.79460  0.86100  0.30560  Biso   1.000  C
  H55      1.0000 0.82920  0.89230  0.33640  Biso   1.000  H
  H56      1.0000 0.76010  0.83280  0.33930  Biso   1.000  H
  H57      1.0000 0.83730  0.22660  0.01080  Biso   1.000  H
  C17      1.0000 0.79480  0.30640  0.13880  Biso   1.000  C
  H58      1.0000 0.82940  0.33680  0.10720  Biso   1.000  H
  H59      1.0000 0.76020  0.34040  0.16660  Biso   1.000  H
  H60      1.0000 0.77340  0.16300  0.98950  Biso   1.000  H
  H61      1.0000 0.83180  0.16640  0.91950  Biso   1.000  H
  C18      1.0000 0.69440  0.20540  0.86100  Biso   1.000  C
  H62      1.0000 0.66360  0.17080  0.89230  Biso   1.000  H
  H63      1.0000 0.66070  0.23990  0.83280  Biso   1.000  H
  H64      1.0000 0.16270  0.22660  0.98920  Biso   1.000  H
  C19      1.0000 0.20520  0.30640  0.86120  Biso   1.000  C
  H65      1.0000 0.17060  0.33680  0.89280  Biso   1.000  H
  H66      1.0000 0.23980  0.34040  0.83340  Biso   1.000  H
  H67      1.0000 0.22660  0.16300  0.01050  Biso   1.000  H
  H68      1.0000 0.16820  0.16640  0.08050  Biso   1.000  H
  C20      1.0000 0.30560  0.20540  0.13900  Biso   1.000  C
  H69      1.0000 0.33640  0.17080  0.10770  Biso   1.000  H
  H70      1.0000 0.33930  0.23990  0.16720  Biso   1.000  H
  H71      1.0000 0.83730  0.77340  0.98920  Biso   1.000  H
  C21      1.0000 0.79480  0.69360  0.86120  Biso   1.000  C
  H72      1.0000 0.82940  0.66320  0.89280  Biso   1.000  H
  H73      1.0000 0.76020  0.65960  0.83340  Biso   1.000  H
  H74      1.0000 0.77340  0.83700  0.01050  Biso   1.000  H
  H75      1.0000 0.83180  0.83360  0.08050  Biso   1.000  H
  C22      1.0000 0.69440  0.79460  0.13900  Biso   1.000  C
  H76      1.0000 0.66360  0.82920  0.10770  Biso   1.000  H
  H77      1.0000 0.66070  0.76010  0.16720  Biso   1.000  H
  H78      1.0000 0.16270  0.77340  0.01080  Biso   1.000  H
  C23      1.0000 0.20520  0.69360  0.13880  Biso   1.000  C
  H79      1.0000 0.17060  0.66320  0.10720  Biso   1.000  H
  H80      1.0000 0.23980  0.65960  0.16660  Biso   1.000  H
  H81      1.0000 0.22660  0.83700  0.98950  Biso   1.000  H
  H82      1.0000 0.16820  0.83360  0.91950  Biso   1.000  H
  C24      1.0000 0.30560  0.79460  0.86100  Biso   1.000  C
  H83      1.0000 0.33640  0.82920  0.89230  Biso   1.000  H
  H84      1.0000 0.33930  0.76010  0.83280  Biso   1.000  H
  H85      1.0000 0.83730  0.01080  0.22660  Biso   1.000  H
  C25      1.0000 0.79480  0.13880  0.30640  Biso   1.000  C
  H86      1.0000 0.82940  0.10720  0.33680  Biso   1.000  H
  H87      1.0000 0.76020  0.16660  0.34040  Biso   1.000  H
  H88      1.0000 0.77340  0.98950  0.16300  Biso   1.000  H
  H89      1.0000 0.83180  0.91950  0.16640  Biso   1.000  H
  C26      1.0000 0.69440  0.86100  0.20540  Biso   1.000  C
  H90      1.0000 0.66360  0.89230  0.17080  Biso   1.000  H
  H91      1.0000 0.66070  0.83280  0.23990  Biso   1.000  H
  H92      1.0000 0.16270  0.98920  0.22660  Biso   1.000  H
  C27      1.0000 0.20520  0.86120  0.30640  Biso   1.000  C
  H93      1.0000 0.17060  0.89280  0.33680  Biso   1.000  H
  H94      1.0000 0.23980  0.83340  0.34040  Biso   1.000  H
  H95      1.0000 0.22660  0.01050  0.16300  Biso   1.000  H
  H96      1.0000 0.16820  0.08050  0.16640  Biso   1.000  H
  C28      1.0000 0.30560  0.13900  0.20540  Biso   1.000  C
  H97      1.0000 0.33640  0.10770  0.17080  Biso   1.000  H
  H98      1.0000 0.33930  0.16720  0.23990  Biso   1.000  H
  H99      1.0000 0.83730  0.98920  0.77340  Biso   1.000  H
  C29      1.0000 0.79480  0.86120  0.69360  Biso   1.000  C
  H100     1.0000 0.82940  0.89280  0.66320  Biso   1.000  H
  H101     1.0000 0.76020  0.83340  0.65960  Biso   1.000  H
  H102     1.0000 0.77340  0.01050  0.83700  Biso   1.000  H
  H103     1.0000 0.83180  0.08050  0.83360  Biso   1.000  H
  C30      1.0000 0.69440  0.13900  0.79460  Biso   1.000  C
  H104     1.0000 0.66360  0.10770  0.82920  Biso   1.000  H
  H105     1.0000 0.66070  0.16720  0.76010  Biso   1.000  H
  H106     1.0000 0.16270  0.01080  0.77340  Biso   1.000  H
  C31      1.0000 0.20520  0.13880  0.69360  Biso   1.000  C
  H107     1.0000 0.17060  0.10720  0.66320  Biso   1.000  H
  H108     1.0000 0.23980  0.16660  0.65960  Biso   1.000  H
  H109     1.0000 0.22660  0.98950  0.83700  Biso   1.000  H
  H110     1.0000 0.16820  0.91950  0.83360  Biso   1.000  H
  C32      1.0000 0.30560  0.86100  0.79460  Biso   1.000  C
  H111     1.0000 0.33640  0.89230  0.82920  Biso   1.000  H
  H112     1.0000 0.33930  0.83280  0.76010  Biso   1.000  H
  H113     1.0000 0.01080  0.22660  0.83730  Biso   1.000  H
  C33      1.0000 0.13880  0.30640  0.79480  Biso   1.000  C
  H114     1.0000 0.10720  0.33680  0.82940  Biso   1.000  H
  H115     1.0000 0.16660  0.34040  0.76020  Biso   1.000  H
  H116     1.0000 0.98950  0.16300  0.77340  Biso   1.000  H
  H117     1.0000 0.91950  0.16640  0.83180  Biso   1.000  H
  C34      1.0000 0.86100  0.20540  0.69440  Biso   1.000  C
  H118     1.0000 0.89230  0.17080  0.66360  Biso   1.000  H
  H119     1.0000 0.83280  0.23990  0.66070  Biso   1.000  H
  H120     1.0000 0.98920  0.22660  0.16270  Biso   1.000  H
  C35      1.0000 0.86120  0.30640  0.20520  Biso   1.000  C
  H121     1.0000 0.89280  0.33680  0.17060  Biso   1.000  H
  H122     1.0000 0.83340  0.34040  0.23980  Biso   1.000  H
  H123     1.0000 0.01050  0.16300  0.22660  Biso   1.000  H
  H124     1.0000 0.08050  0.16640  0.16820  Biso   1.000  H
  C36      1.0000 0.13900  0.20540  0.30560  Biso   1.000  C
  H125     1.0000 0.10770  0.17080  0.33640  Biso   1.000  H
  H126     1.0000 0.16720  0.23990  0.33930  Biso   1.000  H
  H127     1.0000 0.98920  0.77340  0.83730  Biso   1.000  H
  C37      1.0000 0.86120  0.69360  0.79480  Biso   1.000  C
  H128     1.0000 0.89280  0.66320  0.82940  Biso   1.000  H
  H129     1.0000 0.83340  0.65960  0.76020  Biso   1.000  H
  H130     1.0000 0.01050  0.83700  0.77340  Biso   1.000  H
  H131     1.0000 0.08050  0.83360  0.83180  Biso   1.000  H
  C38      1.0000 0.13900  0.79460  0.69440  Biso   1.000  C
  H132     1.0000 0.10770  0.82920  0.66360  Biso   1.000  H
  H133     1.0000 0.16720  0.76010  0.66070  Biso   1.000  H
  H134     1.0000 0.01080  0.77340  0.16270  Biso   1.000  H
  C39      1.0000 0.13880  0.69360  0.20520  Biso   1.000  C
  H135     1.0000 0.10720  0.66320  0.17060  Biso   1.000  H
  H136     1.0000 0.16660  0.65960  0.23980  Biso   1.000  H
  H137     1.0000 0.98950  0.83700  0.22660  Biso   1.000  H
  H138     1.0000 0.91950  0.83360  0.16820  Biso   1.000  H
  C40      1.0000 0.86100  0.79460  0.30560  Biso   1.000  C
  H139     1.0000 0.89230  0.82920  0.33640  Biso   1.000  H
  H140     1.0000 0.83280  0.76010  0.33930  Biso   1.000  H
  H141     1.0000 0.22660  0.83730  0.01080  Biso   1.000  H
  C41      1.0000 0.30640  0.79480  0.13880  Biso   1.000  C
  H142     1.0000 0.33680  0.82940  0.10720  Biso   1.000  H
  H143     1.0000 0.34040  0.76020  0.16660  Biso   1.000  H
  H144     1.0000 0.16300  0.77340  0.98950  Biso   1.000  H
  H145     1.0000 0.16640  0.83180  0.91950  Biso   1.000  H
  C42      1.0000 0.20540  0.69440  0.86100  Biso   1.000  C
  H146     1.0000 0.17080  0.66360  0.89230  Biso   1.000  H
  H147     1.0000 0.23990  0.66070  0.83280  Biso   1.000  H
  H148     1.0000 0.22660  0.16270  0.98920  Biso   1.000  H
  C43      1.0000 0.30640  0.20520  0.86120  Biso   1.000  C
  H149     1.0000 0.33680  0.17060  0.89280  Biso   1.000  H
  H150     1.0000 0.34040  0.23980  0.83340  Biso   1.000  H
  H151     1.0000 0.16300  0.22660  0.01050  Biso   1.000  H
  H152     1.0000 0.16640  0.16820  0.08050  Biso   1.000  H
  C44      1.0000 0.20540  0.30560  0.13900  Biso   1.000  C
  H153     1.0000 0.17080  0.33640  0.10770  Biso   1.000  H
  H154     1.0000 0.23990  0.33930  0.16720  Biso   1.000  H
  H155     1.0000 0.77340  0.83730  0.98920  Biso   1.000  H
  C45      1.0000 0.69360  0.79480  0.86120  Biso   1.000  C
  H156     1.0000 0.66320  0.82940  0.89280  Biso   1.000  H
  H157     1.0000 0.65960  0.76020  0.83340  Biso   1.000  H
  H158     1.0000 0.83700  0.77340  0.01050  Biso   1.000  H
  H159     1.0000 0.83360  0.83180  0.08050  Biso   1.000  H
  C46      1.0000 0.79460  0.69440  0.13900  Biso   1.000  C
  H160     1.0000 0.82920  0.66360  0.10770  Biso   1.000  H
  H161     1.0000 0.76010  0.66070  0.16720  Biso   1.000  H
  H162     1.0000 0.77340  0.16270  0.01080  Biso   1.000  H
  C47      1.0000 0.69360  0.20520  0.13880  Biso   1.000  C
  H163     1.0000 0.66320  0.17060  0.10720  Biso   1.000  H
  H164     1.0000 0.65960  0.23980  0.16660  Biso   1.000  H
  H165     1.0000 0.83700  0.22660  0.98950  Biso   1.000  H
  H166     1.0000 0.83360  0.16820  0.91950  Biso   1.000  H
  C48      1.0000 0.79460  0.30560  0.86100  Biso   1.000  C
  H167     1.0000 0.82920  0.33640  0.89230  Biso   1.000  H
  H168     1.0000 0.76010  0.33930  0.83280  Biso   1.000  H
  O1       1.0000 0.50000  0.50000  0.50000  Biso   1.000  O
  C49      1.0000 0.29260  0.50000  0.50000  Biso   1.000  C
  C50      1.0000 0.20400  0.50000  0.50000  Biso   1.000  C
  C51      1.0000 0.04260  0.50000  0.50000  Biso   1.000  C
  C52      1.0000 0.70740  0.50000  0.50000  Biso   1.000  C
  C53      1.0000 0.79600  0.50000  0.50000  Biso   1.000  C
  C54      1.0000 0.95740  0.50000  0.50000  Biso   1.000  C
  C55      1.0000 0.50000  0.29260  0.50000  Biso   1.000  C
  C56      1.0000 0.50000  0.20400  0.50000  Biso   1.000  C
  C57      1.0000 0.50000  0.04260  0.50000  Biso   1.000  C
  C58      1.0000 0.50000  0.70740  0.50000  Biso   1.000  C
  C59      1.0000 0.50000  0.79600  0.50000  Biso   1.000  C
  C60      1.0000 0.50000  0.95740  0.50000  Biso   1.000  C
  C61      1.0000 0.50000  0.50000  0.29260  Biso   1.000  C
  C62      1.0000 0.50000  0.50000  0.20400  Biso   1.000  C
  C63      1.0000 0.50000  0.50000  0.04260  Biso   1.000  C
  C64      1.0000 0.50000  0.50000  0.70740  Biso   1.000  C
  C65      1.0000 0.50000  0.50000  0.79600  Biso   1.000  C
  C66      1.0000 0.50000  0.50000  0.95740  Biso   1.000  C
  Zn1      1.0000 0.43504  0.43504  0.56496  Biso   1.000  Zn
  Zn2      1.0000 0.56496  0.56496  0.56496  Biso   1.000  Zn
  Zn3      1.0000 0.56496  0.43504  0.43504  Biso   1.000  Zn
  Zn4      1.0000 0.43504  0.56496  0.43504  Biso   1.000  Zn
  O2       1.0000 0.32570  0.45240  0.54760  Biso   1.000  O
  C67      1.0000 0.16400  0.54940  0.45060  Biso   1.000  C
  H169     1.0000 0.19120  0.58250  0.41750  Biso   1.000  H
  C68      1.0000 0.08320  0.54960  0.45040  Biso   1.000  C
  N1       1.0000 0.04610  0.60050  0.39950  Biso   1.000  N
  H170     1.0000 0.99600  0.59960  0.40040  Biso   1.000  H
  C69      1.0000 0.07990  0.65390  0.34610  Biso   1.000  C
  C70      1.0000 0.08710  0.74765  0.25235  Biso   1.000  C
  C71      1.0000 0.04350  0.80310  0.19690  Biso   1.000  C
  H171     1.0000 0.08050  0.83270  0.16730  Biso   1.000  H
  O3       1.0000 0.03290  0.70410  0.29590  Biso   1.000  O
  O4       1.0000 0.15110  0.65680  0.34320  Biso   1.000  O
  N2       1.0000 0.95390  0.60000  0.40000  Biso   1.000  N
  H172     1.0000 0.00400  0.59900  0.40100  Biso   1.000  H
  C72      1.0000 0.92010  0.65390  0.34610  Biso   1.000  C
  C73      1.0000 0.91290  0.74760  0.25240  Biso   1.000  C
  C74      1.0000 0.95650  0.80310  0.19690  Biso   1.000  C
  O5       1.0000 0.96710  0.70410  0.29590  Biso   1.000  O
  O6       1.0000 0.84890  0.65680  0.34320  Biso   1.000  O
  H173     1.0000 0.05350  0.58850  0.41150  Biso   1.000  H
  C75      1.0000 0.83620  0.45030  0.54970  Biso   1.000  C
  C76      1.0000 0.91730  0.45030  0.54970  Biso   1.000  C
  H174     1.0000 0.80910  0.41720  0.58280  Biso   1.000  H
  O7       1.0000 0.66900  0.45600  0.54400  Biso   1.000  O
  O8       1.0000 0.67430  0.54760  0.54760  Biso   1.000  O
  C77      1.0000 0.83600  0.45060  0.45060  Biso   1.000  C
  H175     1.0000 0.80880  0.41750  0.41750  Biso   1.000  H
  C78      1.0000 0.91680  0.45040  0.45040  Biso   1.000  C
  N3       1.0000 0.95390  0.39950  0.39950  Biso   1.000  N
  H176     1.0000 0.00400  0.40040  0.40040  Biso   1.000  H
  C79      1.0000 0.92010  0.34610  0.34610  Biso   1.000  C
  C80      1.0000 0.91290  0.25235  0.25235  Biso   1.000  C
  C81      1.0000 0.95650  0.19690  0.19690  Biso   1.000  C
  H177     1.0000 0.91950  0.16730  0.16730  Biso   1.000  H
  O9       1.0000 0.96710  0.29590  0.29590  Biso   1.000  O
  O10      1.0000 0.84890  0.34320  0.34320  Biso   1.000  O
  N4       1.0000 0.04610  0.40000  0.40000  Biso   1.000  N
  H178     1.0000 0.99600  0.40100  0.40100  Biso   1.000  H
  C82      1.0000 0.07990  0.34610  0.34610  Biso   1.000  C
  C83      1.0000 0.08710  0.25240  0.25240  Biso   1.000  C
  C84      1.0000 0.04350  0.19690  0.19690  Biso   1.000  C
  O11      1.0000 0.03290  0.29590  0.29590  Biso   1.000  O
  O12      1.0000 0.15110  0.34320  0.34320  Biso   1.000  O
  H179     1.0000 0.94650  0.41150  0.41150  Biso   1.000  H
  C85      1.0000 0.16380  0.54970  0.54970  Biso   1.000  C
  C86      1.0000 0.08270  0.54970  0.54970  Biso   1.000  C
  H180     1.0000 0.19090  0.58280  0.58280  Biso   1.000  H
  O13      1.0000 0.33100  0.54400  0.54400  Biso   1.000  O
  O14      1.0000 0.67430  0.45240  0.45240  Biso   1.000  O
  C87      1.0000 0.83600  0.54940  0.54940  Biso   1.000  C
  H181     1.0000 0.80880  0.58250  0.58250  Biso   1.000  H
  C88      1.0000 0.91680  0.54960  0.54960  Biso   1.000  C
  N5       1.0000 0.95390  0.60050  0.60050  Biso   1.000  N
  H182     1.0000 0.00400  0.59960  0.59960  Biso   1.000  H
  C89      1.0000 0.92010  0.65390  0.65390  Biso   1.000  C
  C90      1.0000 0.91290  0.74765  0.74765  Biso   1.000  C
  C91      1.0000 0.95650  0.80310  0.80310  Biso   1.000  C
  H183     1.0000 0.91950  0.83270  0.83270  Biso   1.000  H
  O15      1.0000 0.96710  0.70410  0.70410  Biso   1.000  O
  O16      1.0000 0.84890  0.65680  0.65680  Biso   1.000  O
  N6       1.0000 0.04610  0.60000  0.60000  Biso   1.000  N
  H184     1.0000 0.99600  0.59900  0.59900  Biso   1.000  H
  C92      1.0000 0.07990  0.65390  0.65390  Biso   1.000  C
  C93      1.0000 0.08710  0.74760  0.74760  Biso   1.000  C
  C94      1.0000 0.04350  0.80310  0.80310  Biso   1.000  C
  O17      1.0000 0.03290  0.70410  0.70410  Biso   1.000  O
  O18      1.0000 0.15110  0.65680  0.65680  Biso   1.000  O
  H185     1.0000 0.94650  0.58850  0.58850  Biso   1.000  H
  C95      1.0000 0.16380  0.45030  0.45030  Biso   1.000  C
  C96      1.0000 0.08270  0.45030  0.45030  Biso   1.000  C
  H186     1.0000 0.19090  0.41720  0.41720  Biso   1.000  H
  O19      1.0000 0.33100  0.45600  0.45600  Biso   1.000  O
  O20      1.0000 0.32570  0.54760  0.45240  Biso   1.000  O
  C97      1.0000 0.16400  0.45060  0.54940  Biso   1.000  C
  H187     1.0000 0.19120  0.41750  0.58250  Biso   1.000  H
  C98      1.0000 0.08320  0.45040  0.54960  Biso   1.000  C
  N7       1.0000 0.04610  0.39950  0.60050  Biso   1.000  N
  H188     1.0000 0.99600  0.40040  0.59960  Biso   1.000  H
  C99      1.0000 0.07990  0.34610  0.65390  Biso   1.000  C
  C100     1.0000 0.08710  0.25235  0.74765  Biso   1.000  C
  C101     1.0000 0.04350  0.19690  0.80310  Biso   1.000  C
  H189     1.0000 0.08050  0.16730  0.83270  Biso   1.000  H
  O21      1.0000 0.03290  0.29590  0.70410  Biso   1.000  O
  O22      1.0000 0.15110  0.34320  0.65680  Biso   1.000  O
  N8       1.0000 0.95390  0.40000  0.60000  Biso   1.000  N
  H190     1.0000 0.00400  0.40100  0.59900  Biso   1.000  H
  C102     1.0000 0.92010  0.34610  0.65390  Biso   1.000  C
  C103     1.0000 0.91290  0.25240  0.74760  Biso   1.000  C
  C104     1.0000 0.95650  0.19690  0.80310  Biso   1.000  C
  O23      1.0000 0.96710  0.29590  0.70410  Biso   1.000  O
  O24      1.0000 0.84890  0.34320  0.65680  Biso   1.000  O
  H191     1.0000 0.05350  0.41150  0.58850  Biso   1.000  H
  C105     1.0000 0.83620  0.54970  0.45030  Biso   1.000  C
  C106     1.0000 0.91730  0.54970  0.45030  Biso   1.000  C
  H192     1.0000 0.80910  0.58280  0.41720  Biso   1.000  H
  O25      1.0000 0.66900  0.54400  0.45600  Biso   1.000  O
  O26      1.0000 0.54760  0.32570  0.45240  Biso   1.000  O
  C107     1.0000 0.45060  0.16400  0.54940  Biso   1.000  C
  H193     1.0000 0.41750  0.19120  0.58250  Biso   1.000  H
  C108     1.0000 0.45040  0.08320  0.54960  Biso   1.000  C
  N9       1.0000 0.39950  0.04610  0.60050  Biso   1.000  N
  H194     1.0000 0.40040  0.99600  0.59960  Biso   1.000  H
  C109     1.0000 0.34610  0.07990  0.65390  Biso   1.000  C
  C110     1.0000 0.25235  0.08710  0.74765  Biso   1.000  C
  C111     1.0000 0.19690  0.04350  0.80310  Biso   1.000  C
  H195     1.0000 0.16730  0.08050  0.83270  Biso   1.000  H
  O27      1.0000 0.29590  0.03290  0.70410  Biso   1.000  O
  O28      1.0000 0.34320  0.15110  0.65680  Biso   1.000  O
  N10      1.0000 0.40000  0.95390  0.60000  Biso   1.000  N
  H196     1.0000 0.40100  0.00400  0.59900  Biso   1.000  H
  C112     1.0000 0.34610  0.92010  0.65390  Biso   1.000  C
  C113     1.0000 0.25240  0.91290  0.74760  Biso   1.000  C
  C114     1.0000 0.19690  0.95650  0.80310  Biso   1.000  C
  O29      1.0000 0.29590  0.96710  0.70410  Biso   1.000  O
  O30      1.0000 0.34320  0.84890  0.65680  Biso   1.000  O
  H197     1.0000 0.41150  0.05350  0.58850  Biso   1.000  H
  C115     1.0000 0.54970  0.83620  0.45030  Biso   1.000  C
  C116     1.0000 0.54970  0.91730  0.45030  Biso   1.000  C
  H198     1.0000 0.58280  0.80910  0.41720  Biso   1.000  H
  O31      1.0000 0.54400  0.66900  0.45600  Biso   1.000  O
  O32      1.0000 0.54760  0.67430  0.54760  Biso   1.000  O
  C117     1.0000 0.45060  0.83600  0.45060  Biso   1.000  C
  H199     1.0000 0.41750  0.80880  0.41750  Biso   1.000  H
  C118     1.0000 0.45040  0.91680  0.45040  Biso   1.000  C
  N11      1.0000 0.39950  0.95390  0.39950  Biso   1.000  N
  H200     1.0000 0.40040  0.00400  0.40040  Biso   1.000  H
  C119     1.0000 0.34610  0.92010  0.34610  Biso   1.000  C
  C120     1.0000 0.25235  0.91290  0.25235  Biso   1.000  C
  C121     1.0000 0.19690  0.95650  0.19690  Biso   1.000  C
  H201     1.0000 0.16730  0.91950  0.16730  Biso   1.000  H
  O33      1.0000 0.29590  0.96710  0.29590  Biso   1.000  O
  O34      1.0000 0.34320  0.84890  0.34320  Biso   1.000  O
  N12      1.0000 0.40000  0.04610  0.40000  Biso   1.000  N
  H202     1.0000 0.40100  0.99600  0.40100  Biso   1.000  H
  C122     1.0000 0.34610  0.07990  0.34610  Biso   1.000  C
  C123     1.0000 0.25240  0.08710  0.25240  Biso   1.000  C
  C124     1.0000 0.19690  0.04350  0.19690  Biso   1.000  C
  O35      1.0000 0.29590  0.03290  0.29590  Biso   1.000  O
  O36      1.0000 0.34320  0.15110  0.34320  Biso   1.000  O
  H203     1.0000 0.41150  0.94650  0.41150  Biso   1.000  H
  C125     1.0000 0.54970  0.16380  0.54970  Biso   1.000  C
  C126     1.0000 0.54970  0.08270  0.54970  Biso   1.000  C
  H204     1.0000 0.58280  0.19090  0.58280  Biso   1.000  H
  O37      1.0000 0.54400  0.33100  0.54400  Biso   1.000  O
  O38      1.0000 0.45240  0.67430  0.45240  Biso   1.000  O
  C127     1.0000 0.54940  0.83600  0.54940  Biso   1.000  C
  H205     1.0000 0.58250  0.80880  0.58250  Biso   1.000  H
  C128     1.0000 0.54960  0.91680  0.54960  Biso   1.000  C
  N13      1.0000 0.60050  0.95390  0.60050  Biso   1.000  N
  H206     1.0000 0.59960  0.00400  0.59960  Biso   1.000  H
  C129     1.0000 0.65390  0.92010  0.65390  Biso   1.000  C
  C130     1.0000 0.74765  0.91290  0.74765  Biso   1.000  C
  C131     1.0000 0.80310  0.95650  0.80310  Biso   1.000  C
  H207     1.0000 0.83270  0.91950  0.83270  Biso   1.000  H
  O39      1.0000 0.70410  0.96710  0.70410  Biso   1.000  O
  O40      1.0000 0.65680  0.84890  0.65680  Biso   1.000  O
  N14      1.0000 0.60000  0.04610  0.60000  Biso   1.000  N
  H208     1.0000 0.59900  0.99600  0.59900  Biso   1.000  H
  C132     1.0000 0.65390  0.07990  0.65390  Biso   1.000  C
  C133     1.0000 0.74760  0.08710  0.74760  Biso   1.000  C
  C134     1.0000 0.80310  0.04350  0.80310  Biso   1.000  C
  O41      1.0000 0.70410  0.03290  0.70410  Biso   1.000  O
  O42      1.0000 0.65680  0.15110  0.65680  Biso   1.000  O
  H209     1.0000 0.58850  0.94650  0.58850  Biso   1.000  H
  C135     1.0000 0.45030  0.16380  0.45030  Biso   1.000  C
  C136     1.0000 0.45030  0.08270  0.45030  Biso   1.000  C
  H210     1.0000 0.41720  0.19090  0.41720  Biso   1.000  H
  O43      1.0000 0.45600  0.33100  0.45600  Biso   1.000  O
  O44      1.0000 0.45240  0.32570  0.54760  Biso   1.000  O
  C137     1.0000 0.54940  0.16400  0.45060  Biso   1.000  C
  H211     1.0000 0.58250  0.19120  0.41750  Biso   1.000  H
  C138     1.0000 0.54960  0.08320  0.45040  Biso   1.000  C
  N15      1.0000 0.60050  0.04610  0.39950  Biso   1.000  N
  H212     1.0000 0.59960  0.99600  0.40040  Biso   1.000  H
  C139     1.0000 0.65390  0.07990  0.34610  Biso   1.000  C
  C140     1.0000 0.74765  0.08710  0.25235  Biso   1.000  C
  C141     1.0000 0.80310  0.04350  0.19690  Biso   1.000  C
  H213     1.0000 0.83270  0.08050  0.16730  Biso   1.000  H
  O45      1.0000 0.70410  0.03290  0.29590  Biso   1.000  O
  O46      1.0000 0.65680  0.15110  0.34320  Biso   1.000  O
  N16      1.0000 0.60000  0.95390  0.40000  Biso   1.000  N
  H214     1.0000 0.59900  0.00400  0.40100  Biso   1.000  H
  C142     1.0000 0.65390  0.92010  0.34610  Biso   1.000  C
  C143     1.0000 0.74760  0.91290  0.25240  Biso   1.000  C
  C144     1.0000 0.80310  0.95650  0.19690  Biso   1.000  C
  O47      1.0000 0.70410  0.96710  0.29590  Biso   1.000  O
  O48      1.0000 0.65680  0.84890  0.34320  Biso   1.000  O
  H215     1.0000 0.58850  0.05350  0.41150  Biso   1.000  H
  C145     1.0000 0.45030  0.83620  0.54970  Biso   1.000  C
  C146     1.0000 0.45030  0.91730  0.54970  Biso   1.000  C
  H216     1.0000 0.41720  0.80910  0.58280  Biso   1.000  H
  O49      1.0000 0.45600  0.66900  0.54400  Biso   1.000  O
  O50      1.0000 0.45240  0.54760  0.32570  Biso   1.000  O
  C147     1.0000 0.54940  0.45060  0.16400  Biso   1.000  C
  H217     1.0000 0.58250  0.41750  0.19120  Biso   1.000  H
  C148     1.0000 0.54960  0.45040  0.08320  Biso   1.000  C
  N17      1.0000 0.60050  0.39950  0.04610  Biso   1.000  N
  H218     1.0000 0.59960  0.40040  0.99600  Biso   1.000  H
  C149     1.0000 0.65390  0.34610  0.07990  Biso   1.000  C
  C150     1.0000 0.74765  0.25235  0.08710  Biso   1.000  C
  C151     1.0000 0.80310  0.19690  0.04350  Biso   1.000  C
  H219     1.0000 0.83270  0.16730  0.08050  Biso   1.000  H
  O51      1.0000 0.70410  0.29590  0.03290  Biso   1.000  O
  O52      1.0000 0.65680  0.34320  0.15110  Biso   1.000  O
  N18      1.0000 0.60000  0.40000  0.95390  Biso   1.000  N
  H220     1.0000 0.59900  0.40100  0.00400  Biso   1.000  H
  C152     1.0000 0.65390  0.34610  0.92010  Biso   1.000  C
  C153     1.0000 0.74760  0.25240  0.91290  Biso   1.000  C
  C154     1.0000 0.80310  0.19690  0.95650  Biso   1.000  C
  O53      1.0000 0.70410  0.29590  0.96710  Biso   1.000  O
  O54      1.0000 0.65680  0.34320  0.84890  Biso   1.000  O
  H221     1.0000 0.58850  0.41150  0.05350  Biso   1.000  H
  C155     1.0000 0.45030  0.54970  0.83620  Biso   1.000  C
  C156     1.0000 0.45030  0.54970  0.91730  Biso   1.000  C
  H222     1.0000 0.41720  0.58280  0.80910  Biso   1.000  H
  O55      1.0000 0.45600  0.54400  0.66900  Biso   1.000  O
  O56      1.0000 0.54760  0.54760  0.67430  Biso   1.000  O
  C157     1.0000 0.45060  0.45060  0.83600  Biso   1.000  C
  H223     1.0000 0.41750  0.41750  0.80880  Biso   1.000  H
  C158     1.0000 0.45040  0.45040  0.91680  Biso   1.000  C
  N19      1.0000 0.39950  0.39950  0.95390  Biso   1.000  N
  H224     1.0000 0.40040  0.40040  0.00400  Biso   1.000  H
  C159     1.0000 0.34610  0.34610  0.92010  Biso   1.000  C
  C160     1.0000 0.25235  0.25235  0.91290  Biso   1.000  C
  C161     1.0000 0.19690  0.19690  0.95650  Biso   1.000  C
  H225     1.0000 0.16730  0.16730  0.91950  Biso   1.000  H
  O57      1.0000 0.29590  0.29590  0.96710  Biso   1.000  O
  O58      1.0000 0.34320  0.34320  0.84890  Biso   1.000  O
  N20      1.0000 0.40000  0.40000  0.04610  Biso   1.000  N
  H226     1.0000 0.40100  0.40100  0.99600  Biso   1.000  H
  C162     1.0000 0.34610  0.34610  0.07990  Biso   1.000  C
  C163     1.0000 0.25240  0.25240  0.08710  Biso   1.000  C
  C164     1.0000 0.19690  0.19690  0.04350  Biso   1.000  C
  O59      1.0000 0.29590  0.29590  0.03290  Biso   1.000  O
  O60      1.0000 0.34320  0.34320  0.15110  Biso   1.000  O
  H227     1.0000 0.41150  0.41150  0.94650  Biso   1.000  H
  C165     1.0000 0.54970  0.54970  0.16380  Biso   1.000  C
  C166     1.0000 0.54970  0.54970  0.08270  Biso   1.000  C
  H228     1.0000 0.58280  0.58280  0.19090  Biso   1.000  H
  O61      1.0000 0.54400  0.54400  0.33100  Biso   1.000  O
  O62      1.0000 0.45240  0.45240  0.67430  Biso   1.000  O
  C167     1.0000 0.54940  0.54940  0.83600  Biso   1.000  C
  H229     1.0000 0.58250  0.58250  0.80880  Biso   1.000  H
  C168     1.0000 0.54960  0.54960  0.91680  Biso   1.000  C
  N21      1.0000 0.60050  0.60050  0.95390  Biso   1.000  N
  H230     1.0000 0.59960  0.59960  0.00400  Biso   1.000  H
  C169     1.0000 0.65390  0.65390  0.92010  Biso   1.000  C
  C170     1.0000 0.74765  0.74765  0.91290  Biso   1.000  C
  C171     1.0000 0.80310  0.80310  0.95650  Biso   1.000  C
  H231     1.0000 0.83270  0.83270  0.91950  Biso   1.000  H
  O63      1.0000 0.70410  0.70410  0.96710  Biso   1.000  O
  O64      1.0000 0.65680  0.65680  0.84890  Biso   1.000  O
  N22      1.0000 0.60000  0.60000  0.04610  Biso   1.000  N
  H232     1.0000 0.59900  0.59900  0.99600  Biso   1.000  H
  C172     1.0000 0.65390  0.65390  0.07990  Biso   1.000  C
  C173     1.0000 0.74760  0.74760  0.08710  Biso   1.000  C
  C174     1.0000 0.80310  0.80310  0.04350  Biso   1.000  C
  O65      1.0000 0.70410  0.70410  0.03290  Biso   1.000  O
  O66      1.0000 0.65680  0.65680  0.15110  Biso   1.000  O
  H233     1.0000 0.58850  0.58850  0.94650  Biso   1.000  H
  C175     1.0000 0.45030  0.45030  0.16380  Biso   1.000  C
  C176     1.0000 0.45030  0.45030  0.08270  Biso   1.000  C
  H234     1.0000 0.41720  0.41720  0.19090  Biso   1.000  H
  O67      1.0000 0.45600  0.45600  0.33100  Biso   1.000  O
  O68      1.0000 0.54760  0.45240  0.32570  Biso   1.000  O
  C177     1.0000 0.45060  0.54940  0.16400  Biso   1.000  C
  H235     1.0000 0.41750  0.58250  0.19120  Biso   1.000  H
  C178     1.0000 0.45040  0.54960  0.08320  Biso   1.000  C
  N23      1.0000 0.39950  0.60050  0.04610  Biso   1.000  N
  H236     1.0000 0.40040  0.59960  0.99600  Biso   1.000  H
  C179     1.0000 0.34610  0.65390  0.07990  Biso   1.000  C
  C180     1.0000 0.25235  0.74765  0.08710  Biso   1.000  C
  C181     1.0000 0.19690  0.80310  0.04350  Biso   1.000  C
  H237     1.0000 0.16730  0.83270  0.08050  Biso   1.000  H
  O69      1.0000 0.29590  0.70410  0.03290  Biso   1.000  O
  O70      1.0000 0.34320  0.65680  0.15110  Biso   1.000  O
  N24      1.0000 0.40000  0.60000  0.95390  Biso   1.000  N
  H238     1.0000 0.40100  0.59900  0.00400  Biso   1.000  H
  C182     1.0000 0.34610  0.65390  0.92010  Biso   1.000  C
  C183     1.0000 0.25240  0.74760  0.91290  Biso   1.000  C
  C184     1.0000 0.19690  0.80310  0.95650  Biso   1.000  C
  O71      1.0000 0.29590  0.70410  0.96710  Biso   1.000  O
  O72      1.0000 0.34320  0.65680  0.84890  Biso   1.000  O
  H239     1.0000 0.41150  0.58850  0.05350  Biso   1.000  H
  C185     1.0000 0.54970  0.45030  0.83620  Biso   1.000  C
  C186     1.0000 0.54970  0.45030  0.91730  Biso   1.000  C
  H240     1.0000 0.58280  0.41720  0.80910  Biso   1.000  H
  O73      1.0000 0.54400  0.45600  0.66900  Biso   1.000  O
  H241     1.0000 0.17535  0.82465  0.27610  Biso   1.000  H
  H242     1.0000 0.82465  0.17535  0.27610  Biso   1.000  H
  H243     1.0000 0.82465  0.82465  0.72390  Biso   1.000  H
  H244     1.0000 0.17535  0.17535  0.72390  Biso   1.000  H
  H245     1.0000 0.27610  0.17535  0.82465  Biso   1.000  H
  H246     1.0000 0.27610  0.82465  0.17535  Biso   1.000  H
  H247     1.0000 0.72390  0.82465  0.82465  Biso   1.000  H
  H248     1.0000 0.72390  0.17535  0.17535  Biso   1.000  H
  H249     1.0000 0.82465  0.27610  0.17535  Biso   1.000  H
  H250     1.0000 0.17535  0.27610  0.82465  Biso   1.000  H
  H251     1.0000 0.82465  0.72390  0.82465  Biso   1.000  H
  H252     1.0000 0.17535  0.72390  0.17535  Biso   1.000  H
  H253     1.0000 0.05350  0.41150  0.41150  Biso   1.000  H
  H254     1.0000 0.94650  0.58850  0.41150  Biso   1.000  H
  H255     1.0000 0.94650  0.41150  0.58850  Biso   1.000  H
  H256     1.0000 0.05350  0.58850  0.58850  Biso   1.000  H
  H257     1.0000 0.41150  0.05350  0.41150  Biso   1.000  H
  H258     1.0000 0.41150  0.94650  0.58850  Biso   1.000  H
  H259     1.0000 0.58850  0.94650  0.41150  Biso   1.000  H
  H260     1.0000 0.58850  0.05350  0.58850  Biso   1.000  H
  H261     1.0000 0.41150  0.41150  0.05350  Biso   1.000  H
  H262     1.0000 0.58850  0.41150  0.94650  Biso   1.000  H
  H263     1.0000 0.41150  0.58850  0.94650  Biso   1.000  H
  H264     1.0000 0.58850  0.58850  0.05350  Biso   1.000  H
  H265     1.0000 0.82470  0.72500  0.17530  Biso   1.000  H
  H266     1.0000 0.17530  0.27500  0.17530  Biso   1.000  H
  H267     1.0000 0.17530  0.72500  0.82470  Biso   1.000  H
  H268     1.0000 0.82470  0.27500  0.82470  Biso   1.000  H
  H269     1.0000 0.17530  0.82470  0.72500  Biso   1.000  H
  H270     1.0000 0.17530  0.17530  0.27500  Biso   1.000  H
  H271     1.0000 0.82470  0.17530  0.72500  Biso   1.000  H
  H272     1.0000 0.82470  0.82470  0.27500  Biso   1.000  H
  H273     1.0000 0.72500  0.17530  0.82470  Biso   1.000  H
  H274     1.0000 0.27500  0.17530  0.17530  Biso   1.000  H
  H275     1.0000 0.72500  0.82470  0.17530  Biso   1.000  H
  H276     1.0000 0.27500  0.82470  0.82470  Biso   1.000  H
  Zn5      1.0000 0.43660  0.43660  0.43660  Biso   1.000  Zn
  Zn6      1.0000 0.56340  0.56340  0.43660  Biso   1.000  Zn
  Zn7      1.0000 0.56340  0.43660  0.56340  Biso   1.000  Zn
  Zn8      1.0000 0.43660  0.56340  0.56340  Biso   1.000  Zn
