data_image0
_cell_length_a       15.9684
_cell_length_b       15.9684
_cell_length_c       33.649
_cell_angle_alpha    90
_cell_angle_beta     90
_cell_angle_gamma    120

_symmetry_space_group_name_H-M    "P 1"
_symmetry_int_tables_number       1

loop_
  _symmetry_equiv_pos_as_xyz
  'x, y, z'

loop_
  _atom_site_label
  _atom_site_occupancy
  _atom_site_fract_x
  _atom_site_fract_y
  _atom_site_fract_z
  _atom_site_thermal_displace_type
  _atom_site_B_iso_or_equiv
  _atom_site_type_symbol
  C1       1.0000 0.91430  0.58190  0.94230  Biso   1.000  C
  C2       1.0000 0.87080  0.64050  0.95320  Biso   1.000  C
  C3       1.0000 0.83170  0.63040  0.99100  Biso   1.000  C
  H1       1.0000 0.83600  0.58910  0.00930  Biso   1.000  H
  C4       1.0000 0.78620  0.68210  0.00147  Biso   1.000  C
  H2       1.0000 0.76010  0.67530  0.02680  Biso   1.000  H
  C5       1.0000 0.77980  0.74390  0.97410  Biso   1.000  C
  C6       1.0000 0.81880  0.75400  0.93630  Biso   1.000  C
  H3       1.0000 0.81450  0.79530  0.91800  Biso   1.000  H
  C7       1.0000 0.86440  0.70230  0.92588  Biso   1.000  C
  H4       1.0000 0.89050  0.70910  0.90060  Biso   1.000  H
  C8       1.0000 0.72430  0.79620  0.98350  Biso   1.000  C
  C9       1.0000 0.77530  0.89600  0.98810  Biso   1.000  C
  H5       1.0000 0.84230  0.92970  0.98560  Biso   1.000  H
  C10      1.0000 0.72610  0.94630  0.99670  Biso   1.000  C
  C11      1.0000 0.62820  0.89300  0.00070  Biso   1.000  C
  H6       1.0000 0.59550  0.92580  0.00710  Biso   1.000  H
  C12      1.0000 0.57350  0.79320  0.99600  Biso   1.000  C
  C13      1.0000 0.62530  0.74210  0.98690  Biso   1.000  C
  C14      1.0000 0.46830  0.73920  0.99800  Biso   1.000  C
  C15      1.0000 0.26600  0.62500  0.99910  Biso   1.000  C
  C16      1.0000 0.41840  0.69140  0.96290  Biso   1.000  C
  H7       1.0000 0.45220  0.69770  0.93950  Biso   1.000  H
  C17      1.0000 0.31730  0.63440  0.96370  Biso   1.000  C
  H8       1.0000 0.28390  0.60260  0.94090  Biso   1.000  H
  C18      1.0000 0.31650  0.67240  0.03330  Biso   1.000  C
  H9       1.0000 0.28330  0.66660  0.05670  Biso   1.000  H
  C19      1.0000 0.41670  0.72830  0.03230  Biso   1.000  C
  H10      1.0000 0.44980  0.75930  0.05530  Biso   1.000  H
  C20      1.0000 0.15840  0.55820  0.99970  Biso   1.000  C
  N1       1.0000 0.57190  0.64040  0.98360  Biso   1.000  N
  H11      1.0000 0.60610  0.62340  0.96750  Biso   1.000  H
  H12      1.0000 0.51720  0.62580  0.97040  Biso   1.000  H
  O1       1.0000 0.11290  0.53660  0.03250  Biso   1.000  O
  O2       1.0000 0.12010  0.52970  0.96730  Biso   1.000  O
  O3       1.0000 0.91620  0.52490  0.96740  Biso   1.000  O
  O4       1.0000 0.94610  0.59290  0.90730  Biso   1.000  O
  Zn1      1.0000 0.53190  0.55007  0.03182  Biso   1.000  Zn
  C21      1.0000 0.41290  0.74790  0.96780  Biso   1.000  C
  H13      1.0000 0.44330  0.79180  0.94720  Biso   1.000  H
  C22      1.0000 0.31190  0.69110  0.96840  Biso   1.000  C
  H14      1.0000 0.27540  0.69750  0.94830  Biso   1.000  H
  C23      1.0000 0.32040  0.61590  0.02950  Biso   1.000  C
  H15      1.0000 0.28970  0.57220  0.05010  Biso   1.000  H
  C24      1.0000 0.42150  0.67300  0.02890  Biso   1.000  C
  H16      1.0000 0.45770  0.66690  0.04920  Biso   1.000  H
  C25      1.0000 0.41810  0.33240  0.60897  Biso   1.000  C
  C26      1.0000 0.35950  0.23030  0.61987  Biso   1.000  C
  C27      1.0000 0.36960  0.20130  0.65767  Biso   1.000  C
  H17      1.0000 0.41090  0.24690  0.67597  Biso   1.000  H
  C28      1.0000 0.31790  0.10410  0.66814  Biso   1.000  C
  H18      1.0000 0.32470  0.08480  0.69347  Biso   1.000  H
  C29      1.0000 0.25610  0.03590  0.64077  Biso   1.000  C
  C30      1.0000 0.24600  0.06480  0.60297  Biso   1.000  C
  H19      1.0000 0.20470  0.01920  0.58467  Biso   1.000  H
  C31      1.0000 0.29770  0.16210  0.59255  Biso   1.000  C
  H20      1.0000 0.29090  0.18140  0.56727  Biso   1.000  H
  C32      1.0000 0.20380  0.92810  0.65017  Biso   1.000  C
  C33      1.0000 0.10400  0.87930  0.65477  Biso   1.000  C
  H21      1.0000 0.07030  0.91260  0.65227  Biso   1.000  H
  C34      1.0000 0.05370  0.77980  0.66337  Biso   1.000  C
  C35      1.0000 0.10700  0.73520  0.66737  Biso   1.000  C
  H22      1.0000 0.07420  0.66970  0.67377  Biso   1.000  H
  C36      1.0000 0.20680  0.78030  0.66267  Biso   1.000  C
  C37      1.0000 0.25790  0.88320  0.65357  Biso   1.000  C
  C38      1.0000 0.26080  0.72910  0.66467  Biso   1.000  C
  C39      1.0000 0.37500  0.64100  0.66577  Biso   1.000  C
  C40      1.0000 0.30860  0.72700  0.62957  Biso   1.000  C
  H23      1.0000 0.30230  0.75450  0.60617  Biso   1.000  H
  C41      1.0000 0.36560  0.68290  0.63037  Biso   1.000  C
  H24      1.0000 0.39740  0.68130  0.60757  Biso   1.000  H
  C42      1.0000 0.32760  0.64410  0.69997  Biso   1.000  C
  H25      1.0000 0.33340  0.61670  0.72337  Biso   1.000  H
  C43      1.0000 0.27170  0.68840  0.69897  Biso   1.000  C
  H26      1.0000 0.24070  0.69050  0.72197  Biso   1.000  H
  C44      1.0000 0.44180  0.60020  0.66637  Biso   1.000  C
  N2       1.0000 0.35960  0.93150  0.65027  Biso   1.000  N
  H27      1.0000 0.37660  0.98270  0.63417  Biso   1.000  H
  H28      1.0000 0.37420  0.89140  0.63707  Biso   1.000  H
  O5       1.0000 0.46340  0.57630  0.69917  Biso   1.000  O
  O6       1.0000 0.47030  0.59040  0.63397  Biso   1.000  O
  O7       1.0000 0.47510  0.39130  0.63407  Biso   1.000  O
  O8       1.0000 0.40710  0.35320  0.57397  Biso   1.000  O
  Zn2      1.0000 0.44993  0.98183  0.69849  Biso   1.000  Zn
  C45      1.0000 0.25210  0.66500  0.63447  Biso   1.000  C
  H29      1.0000 0.20820  0.65150  0.61387  Biso   1.000  H
  C46      1.0000 0.30890  0.62080  0.63507  Biso   1.000  C
  H30      1.0000 0.30250  0.57790  0.61497  Biso   1.000  H
  C47      1.0000 0.38410  0.70450  0.69617  Biso   1.000  C
  H31      1.0000 0.42780  0.71750  0.71677  Biso   1.000  H
  C48      1.0000 0.32700  0.74850  0.69557  Biso   1.000  C
  H32      1.0000 0.33310  0.79080  0.71587  Biso   1.000  H
  C49      1.0000 0.66760  0.08570  0.27563  Biso   1.000  C
  C50      1.0000 0.76970  0.12920  0.28653  Biso   1.000  C
  C51      1.0000 0.79870  0.16830  0.32433  Biso   1.000  C
  H33      1.0000 0.75310  0.16400  0.34263  Biso   1.000  H
  C52      1.0000 0.89590  0.21380  0.33480  Biso   1.000  C
  H34      1.0000 0.91520  0.23990  0.36013  Biso   1.000  H
  C53      1.0000 0.96410  0.22020  0.30743  Biso   1.000  C
  C54      1.0000 0.93520  0.18120  0.26963  Biso   1.000  C
  H35      1.0000 0.98080  0.18550  0.25133  Biso   1.000  H
  C55      1.0000 0.83790  0.13560  0.25921  Biso   1.000  C
  H36      1.0000 0.81860  0.10950  0.23393  Biso   1.000  H
  C56      1.0000 0.07190  0.27570  0.31683  Biso   1.000  C
  C57      1.0000 0.12070  0.22470  0.32143  Biso   1.000  C
  H37      1.0000 0.08740  0.15770  0.31893  Biso   1.000  H
  C58      1.0000 0.22020  0.27390  0.33003  Biso   1.000  C
  C59      1.0000 0.26480  0.37180  0.33403  Biso   1.000  C
  H38      1.0000 0.33030  0.40450  0.34043  Biso   1.000  H
  C60      1.0000 0.21970  0.42650  0.32933  Biso   1.000  C
  C61      1.0000 0.11680  0.37470  0.32023  Biso   1.000  C
  C62      1.0000 0.27090  0.53170  0.33133  Biso   1.000  C
  C63      1.0000 0.35900  0.73400  0.33243  Biso   1.000  C
  C64      1.0000 0.27300  0.58160  0.29623  Biso   1.000  C
  H39      1.0000 0.24550  0.54780  0.27283  Biso   1.000  H
  C65      1.0000 0.31710  0.68270  0.29703  Biso   1.000  C
  H40      1.0000 0.31870  0.71610  0.27423  Biso   1.000  H
  C66      1.0000 0.35590  0.68350  0.36663  Biso   1.000  C
  H41      1.0000 0.38330  0.71670  0.39003  Biso   1.000  H
  C67      1.0000 0.31160  0.58330  0.36563  Biso   1.000  C
  H42      1.0000 0.30950  0.55020  0.38863  Biso   1.000  H
  C68      1.0000 0.39980  0.84160  0.33303  Biso   1.000  C
  N3       1.0000 0.06850  0.42810  0.31693  Biso   1.000  N
  H43      1.0000 0.01730  0.39390  0.30083  Biso   1.000  H
  H44      1.0000 0.10860  0.48280  0.30373  Biso   1.000  H
  O9       1.0000 0.42370  0.88710  0.36583  Biso   1.000  O
  O10      1.0000 0.40960  0.87990  0.30063  Biso   1.000  O
  O11      1.0000 0.60870  0.08380  0.30073  Biso   1.000  O
  O12      1.0000 0.64680  0.05390  0.24063  Biso   1.000  O
  Zn3      1.0000 0.01817  0.46810  0.36515  Biso   1.000  Zn
  C69      1.0000 0.33500  0.58710  0.30113  Biso   1.000  C
  H45      1.0000 0.34850  0.55670  0.28053  Biso   1.000  H
  C70      1.0000 0.37920  0.68810  0.30173  Biso   1.000  C
  H46      1.0000 0.42210  0.72460  0.28163  Biso   1.000  H
  C71      1.0000 0.29550  0.67960  0.36283  Biso   1.000  C
  H47      1.0000 0.28250  0.71030  0.38343  Biso   1.000  H
  C72      1.0000 0.25150  0.57850  0.36223  Biso   1.000  C
  H48      1.0000 0.20920  0.54230  0.38253  Biso   1.000  H
  C73      1.0000 0.08570  0.41810  0.44230  Biso   1.000  C
  C74      1.0000 0.12920  0.35950  0.45320  Biso   1.000  C
  C75      1.0000 0.16830  0.36960  0.49100  Biso   1.000  C
  H49      1.0000 0.16400  0.41090  0.50930  Biso   1.000  H
  C76      1.0000 0.21380  0.31790  0.50147  Biso   1.000  C
  H50      1.0000 0.23990  0.32470  0.52680  Biso   1.000  H
  C77      1.0000 0.22020  0.25610  0.47410  Biso   1.000  C
  C78      1.0000 0.18120  0.24600  0.43630  Biso   1.000  C
  H51      1.0000 0.18550  0.20470  0.41800  Biso   1.000  H
  C79      1.0000 0.13560  0.29770  0.42588  Biso   1.000  C
  H52      1.0000 0.10950  0.29090  0.40060  Biso   1.000  H
  C80      1.0000 0.27570  0.20380  0.48350  Biso   1.000  C
  C81      1.0000 0.22470  0.10400  0.48810  Biso   1.000  C
  H53      1.0000 0.15770  0.07030  0.48560  Biso   1.000  H
  C82      1.0000 0.27390  0.05370  0.49670  Biso   1.000  C
  C83      1.0000 0.37180  0.10700  0.50070  Biso   1.000  C
  H54      1.0000 0.40450  0.07420  0.50710  Biso   1.000  H
  C84      1.0000 0.42650  0.20680  0.49600  Biso   1.000  C
  C85      1.0000 0.37470  0.25790  0.48690  Biso   1.000  C
  C86      1.0000 0.53170  0.26080  0.49800  Biso   1.000  C
  C87      1.0000 0.73400  0.37500  0.49910  Biso   1.000  C
  C88      1.0000 0.58160  0.30860  0.46290  Biso   1.000  C
  H55      1.0000 0.54780  0.30230  0.43950  Biso   1.000  H
  C89      1.0000 0.68270  0.36560  0.46370  Biso   1.000  C
  H56      1.0000 0.71610  0.39740  0.44090  Biso   1.000  H
  C90      1.0000 0.68350  0.32760  0.53330  Biso   1.000  C
  H57      1.0000 0.71670  0.33340  0.55670  Biso   1.000  H
  C91      1.0000 0.58330  0.27170  0.53230  Biso   1.000  C
  H58      1.0000 0.55020  0.24070  0.55530  Biso   1.000  H
  C92      1.0000 0.84160  0.44180  0.49970  Biso   1.000  C
  N4       1.0000 0.42810  0.35960  0.48360  Biso   1.000  N
  H59      1.0000 0.39390  0.37660  0.46750  Biso   1.000  H
  H60      1.0000 0.48280  0.37420  0.47040  Biso   1.000  H
  O13      1.0000 0.88710  0.46340  0.53250  Biso   1.000  O
  O14      1.0000 0.87990  0.47030  0.46730  Biso   1.000  O
  O15      1.0000 0.08380  0.47510  0.46740  Biso   1.000  O
  O16      1.0000 0.05390  0.40710  0.40730  Biso   1.000  O
  Zn4      1.0000 0.46810  0.44993  0.53182  Biso   1.000  Zn
  C93      1.0000 0.58710  0.25210  0.46780  Biso   1.000  C
  H61      1.0000 0.55670  0.20820  0.44720  Biso   1.000  H
  C94      1.0000 0.68810  0.30890  0.46840  Biso   1.000  C
  H62      1.0000 0.72460  0.30250  0.44830  Biso   1.000  H
  C95      1.0000 0.67960  0.38410  0.52950  Biso   1.000  C
  H63      1.0000 0.71030  0.42780  0.55010  Biso   1.000  H
  C96      1.0000 0.57850  0.32700  0.52890  Biso   1.000  C
  H64      1.0000 0.54230  0.33310  0.54920  Biso   1.000  H
  C97      1.0000 0.58190  0.66760  0.10897  Biso   1.000  C
  C98      1.0000 0.64050  0.76970  0.11987  Biso   1.000  C
  C99      1.0000 0.63040  0.79870  0.15767  Biso   1.000  C
  H65      1.0000 0.58910  0.75310  0.17597  Biso   1.000  H
  C100     1.0000 0.68210  0.89590  0.16814  Biso   1.000  C
  H66      1.0000 0.67530  0.91520  0.19347  Biso   1.000  H
  C101     1.0000 0.74390  0.96410  0.14077  Biso   1.000  C
  C102     1.0000 0.75400  0.93520  0.10297  Biso   1.000  C
  H67      1.0000 0.79530  0.98080  0.08467  Biso   1.000  H
  C103     1.0000 0.70230  0.83790  0.09255  Biso   1.000  C
  H68      1.0000 0.70910  0.81860  0.06727  Biso   1.000  H
  C104     1.0000 0.79620  0.07190  0.15017  Biso   1.000  C
  C105     1.0000 0.89600  0.12070  0.15477  Biso   1.000  C
  H69      1.0000 0.92970  0.08740  0.15227  Biso   1.000  H
  C106     1.0000 0.94630  0.22020  0.16337  Biso   1.000  C
  C107     1.0000 0.89300  0.26480  0.16737  Biso   1.000  C
  H70      1.0000 0.92580  0.33030  0.17377  Biso   1.000  H
  C108     1.0000 0.79320  0.21970  0.16267  Biso   1.000  C
  C109     1.0000 0.74210  0.11680  0.15357  Biso   1.000  C
  C110     1.0000 0.73920  0.27090  0.16467  Biso   1.000  C
  C111     1.0000 0.62500  0.35900  0.16577  Biso   1.000  C
  C112     1.0000 0.69140  0.27300  0.12957  Biso   1.000  C
  H71      1.0000 0.69770  0.24550  0.10617  Biso   1.000  H
  C113     1.0000 0.63440  0.31710  0.13037  Biso   1.000  C
  H72      1.0000 0.60260  0.31870  0.10757  Biso   1.000  H
  C114     1.0000 0.67240  0.35590  0.19997  Biso   1.000  C
  H73      1.0000 0.66660  0.38330  0.22337  Biso   1.000  H
  C115     1.0000 0.72830  0.31160  0.19897  Biso   1.000  C
  H74      1.0000 0.75930  0.30950  0.22197  Biso   1.000  H
  C116     1.0000 0.55820  0.39980  0.16637  Biso   1.000  C
  N5       1.0000 0.64040  0.06850  0.15027  Biso   1.000  N
  H75      1.0000 0.62340  0.01730  0.13417  Biso   1.000  H
  H76      1.0000 0.62580  0.10860  0.13707  Biso   1.000  H
  O17      1.0000 0.53660  0.42370  0.19917  Biso   1.000  O
  O18      1.0000 0.52970  0.40960  0.13397  Biso   1.000  O
  O19      1.0000 0.52490  0.60870  0.13407  Biso   1.000  O
  O20      1.0000 0.59290  0.64680  0.07397  Biso   1.000  O
  Zn5      1.0000 0.55007  0.01817  0.19849  Biso   1.000  Zn
  C117     1.0000 0.74790  0.33500  0.13447  Biso   1.000  C
  H77      1.0000 0.79180  0.34850  0.11387  Biso   1.000  H
  C118     1.0000 0.69110  0.37920  0.13507  Biso   1.000  C
  H78      1.0000 0.69750  0.42210  0.11497  Biso   1.000  H
  C119     1.0000 0.61590  0.29550  0.19617  Biso   1.000  C
  H79      1.0000 0.57220  0.28250  0.21677  Biso   1.000  H
  C120     1.0000 0.67300  0.25150  0.19557  Biso   1.000  C
  H80      1.0000 0.66690  0.20920  0.21587  Biso   1.000  H
  C121     1.0000 0.33240  0.91430  0.77563  Biso   1.000  C
  C122     1.0000 0.23030  0.87080  0.78653  Biso   1.000  C
  C123     1.0000 0.20130  0.83170  0.82433  Biso   1.000  C
  H81      1.0000 0.24690  0.83600  0.84263  Biso   1.000  H
  C124     1.0000 0.10410  0.78620  0.83480  Biso   1.000  C
  H82      1.0000 0.08480  0.76010  0.86013  Biso   1.000  H
  C125     1.0000 0.03590  0.77980  0.80743  Biso   1.000  C
  C126     1.0000 0.06480  0.81880  0.76963  Biso   1.000  C
  H83      1.0000 0.01920  0.81450  0.75133  Biso   1.000  H
  C127     1.0000 0.16210  0.86440  0.75921  Biso   1.000  C
  H84      1.0000 0.18140  0.89050  0.73393  Biso   1.000  H
  C128     1.0000 0.92810  0.72430  0.81683  Biso   1.000  C
  C129     1.0000 0.87930  0.77530  0.82143  Biso   1.000  C
  H85      1.0000 0.91260  0.84230  0.81893  Biso   1.000  H
  C130     1.0000 0.77980  0.72610  0.83003  Biso   1.000  C
  C131     1.0000 0.73520  0.62820  0.83403  Biso   1.000  C
  H86      1.0000 0.66970  0.59550  0.84043  Biso   1.000  H
  C132     1.0000 0.78030  0.57350  0.82933  Biso   1.000  C
  C133     1.0000 0.88320  0.62530  0.82023  Biso   1.000  C
  C134     1.0000 0.72910  0.46830  0.83133  Biso   1.000  C
  C135     1.0000 0.64100  0.26600  0.83243  Biso   1.000  C
  C136     1.0000 0.72700  0.41840  0.79623  Biso   1.000  C
  H87      1.0000 0.75450  0.45220  0.77283  Biso   1.000  H
  C137     1.0000 0.68290  0.31730  0.79703  Biso   1.000  C
  H88      1.0000 0.68130  0.28390  0.77423  Biso   1.000  H
  C138     1.0000 0.64410  0.31650  0.86663  Biso   1.000  C
  H89      1.0000 0.61670  0.28330  0.89003  Biso   1.000  H
  C139     1.0000 0.68840  0.41670  0.86563  Biso   1.000  C
  H90      1.0000 0.69050  0.44980  0.88863  Biso   1.000  H
  C140     1.0000 0.60020  0.15840  0.83303  Biso   1.000  C
  N6       1.0000 0.93150  0.57190  0.81693  Biso   1.000  N
  H91      1.0000 0.98270  0.60610  0.80083  Biso   1.000  H
  H92      1.0000 0.89140  0.51720  0.80373  Biso   1.000  H
  O21      1.0000 0.57630  0.11290  0.86583  Biso   1.000  O
  O22      1.0000 0.59040  0.12010  0.80063  Biso   1.000  O
  O23      1.0000 0.39130  0.91620  0.80073  Biso   1.000  O
  O24      1.0000 0.35320  0.94610  0.74063  Biso   1.000  O
  Zn6      1.0000 0.98183  0.53190  0.86515  Biso   1.000  Zn
  C141     1.0000 0.66500  0.41290  0.80113  Biso   1.000  C
  H93      1.0000 0.65150  0.44330  0.78053  Biso   1.000  H
  C142     1.0000 0.62080  0.31190  0.80173  Biso   1.000  C
  H94      1.0000 0.57790  0.27540  0.78163  Biso   1.000  H
  C143     1.0000 0.70450  0.32040  0.86283  Biso   1.000  C
  H95      1.0000 0.71750  0.28970  0.88343  Biso   1.000  H
  C144     1.0000 0.74850  0.42150  0.86223  Biso   1.000  C
  H96      1.0000 0.79080  0.45770  0.88253  Biso   1.000  H
  C145     1.0000 0.58190  0.91430  0.72437  Biso   1.000  C
  C146     1.0000 0.64050  0.87080  0.71347  Biso   1.000  C
  C147     1.0000 0.63040  0.83170  0.67567  Biso   1.000  C
  H97      1.0000 0.58910  0.83600  0.65737  Biso   1.000  H
  C148     1.0000 0.68210  0.78620  0.66520  Biso   1.000  C
  H98      1.0000 0.67530  0.76010  0.63987  Biso   1.000  H
  C149     1.0000 0.74390  0.77980  0.69257  Biso   1.000  C
  C150     1.0000 0.75400  0.81880  0.73037  Biso   1.000  C
  H99      1.0000 0.79530  0.81450  0.74867  Biso   1.000  H
  C151     1.0000 0.70230  0.86440  0.74079  Biso   1.000  C
  H100     1.0000 0.70910  0.89050  0.76607  Biso   1.000  H
  C152     1.0000 0.79620  0.72430  0.68317  Biso   1.000  C
  C153     1.0000 0.89600  0.77530  0.67857  Biso   1.000  C
  H101     1.0000 0.92970  0.84230  0.68107  Biso   1.000  H
  C154     1.0000 0.94630  0.72610  0.66997  Biso   1.000  C
  C155     1.0000 0.89300  0.62820  0.66597  Biso   1.000  C
  H102     1.0000 0.92580  0.59550  0.65957  Biso   1.000  H
  C156     1.0000 0.79320  0.57350  0.67067  Biso   1.000  C
  C157     1.0000 0.74210  0.62530  0.67977  Biso   1.000  C
  C158     1.0000 0.73920  0.46830  0.66867  Biso   1.000  C
  C159     1.0000 0.62500  0.26600  0.66757  Biso   1.000  C
  C160     1.0000 0.69140  0.41840  0.70377  Biso   1.000  C
  H103     1.0000 0.69770  0.45220  0.72717  Biso   1.000  H
  C161     1.0000 0.63440  0.31730  0.70297  Biso   1.000  C
  H104     1.0000 0.60260  0.28390  0.72577  Biso   1.000  H
  C162     1.0000 0.67240  0.31650  0.63337  Biso   1.000  C
  H105     1.0000 0.66660  0.28330  0.60997  Biso   1.000  H
  C163     1.0000 0.72830  0.41670  0.63437  Biso   1.000  C
  H106     1.0000 0.75930  0.44980  0.61137  Biso   1.000  H
  C164     1.0000 0.55820  0.15840  0.66697  Biso   1.000  C
  N7       1.0000 0.64040  0.57190  0.68307  Biso   1.000  N
  H107     1.0000 0.62340  0.60610  0.69917  Biso   1.000  H
  H108     1.0000 0.62580  0.51720  0.69627  Biso   1.000  H
  O25      1.0000 0.53660  0.11290  0.63417  Biso   1.000  O
  O26      1.0000 0.52970  0.12010  0.69937  Biso   1.000  O
  O27      1.0000 0.52490  0.91620  0.69927  Biso   1.000  O
  O28      1.0000 0.59290  0.94610  0.75937  Biso   1.000  O
  Zn7      1.0000 0.55007  0.53190  0.63485  Biso   1.000  Zn
  C165     1.0000 0.74790  0.41290  0.69887  Biso   1.000  C
  H109     1.0000 0.79180  0.44330  0.71947  Biso   1.000  H
  C166     1.0000 0.69110  0.31190  0.69827  Biso   1.000  C
  H110     1.0000 0.69750  0.27540  0.71837  Biso   1.000  H
  C167     1.0000 0.61590  0.32040  0.63717  Biso   1.000  C
  H111     1.0000 0.57220  0.28970  0.61657  Biso   1.000  H
  C168     1.0000 0.67300  0.42150  0.63777  Biso   1.000  C
  H112     1.0000 0.66690  0.45770  0.61747  Biso   1.000  H
  C169     1.0000 0.33240  0.41810  0.05770  Biso   1.000  C
  C170     1.0000 0.23030  0.35950  0.04680  Biso   1.000  C
  C171     1.0000 0.20130  0.36960  0.00900  Biso   1.000  C
  H113     1.0000 0.24690  0.41090  0.99070  Biso   1.000  H
  C172     1.0000 0.10410  0.31790  0.99853  Biso   1.000  C
  H114     1.0000 0.08480  0.32470  0.97320  Biso   1.000  H
  C173     1.0000 0.03590  0.25610  0.02590  Biso   1.000  C
  C174     1.0000 0.06480  0.24600  0.06370  Biso   1.000  C
  H115     1.0000 0.01920  0.20470  0.08200  Biso   1.000  H
  C175     1.0000 0.16210  0.29770  0.07412  Biso   1.000  C
  H116     1.0000 0.18140  0.29090  0.09940  Biso   1.000  H
  C176     1.0000 0.92810  0.20380  0.01650  Biso   1.000  C
  C177     1.0000 0.87930  0.10400  0.01190  Biso   1.000  C
  H117     1.0000 0.91260  0.07030  0.01440  Biso   1.000  H
  C178     1.0000 0.77980  0.05370  0.00330  Biso   1.000  C
  C179     1.0000 0.73520  0.10700  0.99930  Biso   1.000  C
  H118     1.0000 0.66970  0.07420  0.99290  Biso   1.000  H
  C180     1.0000 0.78030  0.20680  0.00400  Biso   1.000  C
  C181     1.0000 0.88320  0.25790  0.01310  Biso   1.000  C
  C182     1.0000 0.72910  0.26080  0.00200  Biso   1.000  C
  C183     1.0000 0.64100  0.37500  0.00090  Biso   1.000  C
  C184     1.0000 0.72700  0.30860  0.03710  Biso   1.000  C
  H119     1.0000 0.75450  0.30230  0.06050  Biso   1.000  H
  C185     1.0000 0.68290  0.36560  0.03630  Biso   1.000  C
  H120     1.0000 0.68130  0.39740  0.05910  Biso   1.000  H
  C186     1.0000 0.64410  0.32760  0.96670  Biso   1.000  C
  H121     1.0000 0.61670  0.33340  0.94330  Biso   1.000  H
  C187     1.0000 0.68840  0.27170  0.96770  Biso   1.000  C
  H122     1.0000 0.69050  0.24070  0.94470  Biso   1.000  H
  C188     1.0000 0.60020  0.44180  0.00030  Biso   1.000  C
  N8       1.0000 0.93150  0.35960  0.01640  Biso   1.000  N
  H123     1.0000 0.98270  0.37660  0.03250  Biso   1.000  H
  H124     1.0000 0.89140  0.37420  0.02960  Biso   1.000  H
  O29      1.0000 0.57630  0.46340  0.96750  Biso   1.000  O
  O30      1.0000 0.59040  0.47030  0.03270  Biso   1.000  O
  O31      1.0000 0.39130  0.47510  0.03260  Biso   1.000  O
  O32      1.0000 0.35320  0.40710  0.09270  Biso   1.000  O
  Zn8      1.0000 0.98183  0.44993  0.96818  Biso   1.000  Zn
  C189     1.0000 0.66500  0.25210  0.03220  Biso   1.000  C
  H125     1.0000 0.65150  0.20820  0.05280  Biso   1.000  H
  C190     1.0000 0.62080  0.30890  0.03160  Biso   1.000  C
  H126     1.0000 0.57790  0.30250  0.05170  Biso   1.000  H
  C191     1.0000 0.70450  0.38410  0.97050  Biso   1.000  C
  H127     1.0000 0.71750  0.42780  0.94990  Biso   1.000  H
  C192     1.0000 0.74850  0.32700  0.97110  Biso   1.000  C
  H128     1.0000 0.79080  0.33310  0.95080  Biso   1.000  H
  C193     1.0000 0.08570  0.66760  0.39103  Biso   1.000  C
  C194     1.0000 0.12920  0.76970  0.38013  Biso   1.000  C
  C195     1.0000 0.16830  0.79870  0.34233  Biso   1.000  C
  H129     1.0000 0.16400  0.75310  0.32403  Biso   1.000  H
  C196     1.0000 0.21380  0.89590  0.33186  Biso   1.000  C
  H130     1.0000 0.23990  0.91520  0.30653  Biso   1.000  H
  C197     1.0000 0.22020  0.96410  0.35923  Biso   1.000  C
  C198     1.0000 0.18120  0.93520  0.39703  Biso   1.000  C
  H131     1.0000 0.18550  0.98080  0.41533  Biso   1.000  H
  C199     1.0000 0.13560  0.83790  0.40745  Biso   1.000  C
  H132     1.0000 0.10950  0.81860  0.43273  Biso   1.000  H
  C200     1.0000 0.27570  0.07190  0.34983  Biso   1.000  C
  C201     1.0000 0.22470  0.12070  0.34523  Biso   1.000  C
  H133     1.0000 0.15770  0.08740  0.34773  Biso   1.000  H
  C202     1.0000 0.27390  0.22020  0.33663  Biso   1.000  C
  C203     1.0000 0.37180  0.26480  0.33263  Biso   1.000  C
  H134     1.0000 0.40450  0.33030  0.32623  Biso   1.000  H
  C204     1.0000 0.42650  0.21970  0.33733  Biso   1.000  C
  C205     1.0000 0.37470  0.11680  0.34643  Biso   1.000  C
  C206     1.0000 0.53170  0.27090  0.33533  Biso   1.000  C
  C207     1.0000 0.73400  0.35900  0.33423  Biso   1.000  C
  C208     1.0000 0.58160  0.27300  0.37043  Biso   1.000  C
  H135     1.0000 0.54780  0.24550  0.39383  Biso   1.000  H
  C209     1.0000 0.68270  0.31710  0.36963  Biso   1.000  C
  H136     1.0000 0.71610  0.31870  0.39243  Biso   1.000  H
  C210     1.0000 0.68350  0.35590  0.30003  Biso   1.000  C
  H137     1.0000 0.71670  0.38330  0.27663  Biso   1.000  H
  C211     1.0000 0.58330  0.31160  0.30103  Biso   1.000  C
  H138     1.0000 0.55020  0.30950  0.27803  Biso   1.000  H
  C212     1.0000 0.84160  0.39980  0.33363  Biso   1.000  C
  N9       1.0000 0.42810  0.06850  0.34973  Biso   1.000  N
  H139     1.0000 0.39390  0.01730  0.36583  Biso   1.000  H
  H140     1.0000 0.48280  0.10860  0.36293  Biso   1.000  H
  O33      1.0000 0.88710  0.42370  0.30083  Biso   1.000  O
  O34      1.0000 0.87990  0.40960  0.36603  Biso   1.000  O
  O35      1.0000 0.08380  0.60870  0.36593  Biso   1.000  O
  O36      1.0000 0.05390  0.64680  0.42603  Biso   1.000  O
  Zn9      1.0000 0.46810  0.01817  0.30151  Biso   1.000  Zn
  C213     1.0000 0.58710  0.33500  0.36553  Biso   1.000  C
  H141     1.0000 0.55670  0.34850  0.38613  Biso   1.000  H
  C214     1.0000 0.68810  0.37920  0.36493  Biso   1.000  C
  H142     1.0000 0.72460  0.42210  0.38503  Biso   1.000  H
  C215     1.0000 0.67960  0.29550  0.30383  Biso   1.000  C
  H143     1.0000 0.71030  0.28250  0.28323  Biso   1.000  H
  C216     1.0000 0.57850  0.25150  0.30443  Biso   1.000  C
  H144     1.0000 0.54230  0.20920  0.28413  Biso   1.000  H
  C217     1.0000 0.41810  0.08570  0.22437  Biso   1.000  C
  C218     1.0000 0.35950  0.12920  0.21347  Biso   1.000  C
  C219     1.0000 0.36960  0.16830  0.17567  Biso   1.000  C
  H145     1.0000 0.41090  0.16400  0.15737  Biso   1.000  H
  C220     1.0000 0.31790  0.21380  0.16520  Biso   1.000  C
  H146     1.0000 0.32470  0.23990  0.13987  Biso   1.000  H
  C221     1.0000 0.25610  0.22020  0.19257  Biso   1.000  C
  C222     1.0000 0.24600  0.18120  0.23037  Biso   1.000  C
  H147     1.0000 0.20470  0.18550  0.24867  Biso   1.000  H
  C223     1.0000 0.29770  0.13560  0.24079  Biso   1.000  C
  H148     1.0000 0.29090  0.10950  0.26607  Biso   1.000  H
  C224     1.0000 0.20380  0.27570  0.18317  Biso   1.000  C
  C225     1.0000 0.10400  0.22470  0.17857  Biso   1.000  C
  H149     1.0000 0.07030  0.15770  0.18107  Biso   1.000  H
  C226     1.0000 0.05370  0.27390  0.16997  Biso   1.000  C
  C227     1.0000 0.10700  0.37180  0.16597  Biso   1.000  C
  H150     1.0000 0.07420  0.40450  0.15957  Biso   1.000  H
  C228     1.0000 0.20680  0.42650  0.17067  Biso   1.000  C
  C229     1.0000 0.25790  0.37470  0.17977  Biso   1.000  C
  C230     1.0000 0.26080  0.53170  0.16867  Biso   1.000  C
  C231     1.0000 0.37500  0.73400  0.16757  Biso   1.000  C
  C232     1.0000 0.30860  0.58160  0.20377  Biso   1.000  C
  H151     1.0000 0.30230  0.54780  0.22717  Biso   1.000  H
  C233     1.0000 0.36560  0.68270  0.20297  Biso   1.000  C
  H152     1.0000 0.39740  0.71610  0.22577  Biso   1.000  H
  C234     1.0000 0.32760  0.68350  0.13337  Biso   1.000  C
  H153     1.0000 0.33340  0.71670  0.10997  Biso   1.000  H
  C235     1.0000 0.27170  0.58330  0.13437  Biso   1.000  C
  H154     1.0000 0.24070  0.55020  0.11137  Biso   1.000  H
  C236     1.0000 0.44180  0.84160  0.16697  Biso   1.000  C
  N10      1.0000 0.35960  0.42810  0.18307  Biso   1.000  N
  H155     1.0000 0.37660  0.39390  0.19917  Biso   1.000  H
  H156     1.0000 0.37420  0.48280  0.19627  Biso   1.000  H
  O37      1.0000 0.46340  0.88710  0.13417  Biso   1.000  O
  O38      1.0000 0.47030  0.87990  0.19937  Biso   1.000  O
  O39      1.0000 0.47510  0.08380  0.19927  Biso   1.000  O
  O40      1.0000 0.40710  0.05390  0.25937  Biso   1.000  O
  Zn10     1.0000 0.44993  0.46810  0.13485  Biso   1.000  Zn
  C237     1.0000 0.25210  0.58710  0.19887  Biso   1.000  C
  H157     1.0000 0.20820  0.55670  0.21947  Biso   1.000  H
  C238     1.0000 0.30890  0.68810  0.19827  Biso   1.000  C
  H158     1.0000 0.30250  0.72460  0.21837  Biso   1.000  H
  C239     1.0000 0.38410  0.67960  0.13717  Biso   1.000  C
  H159     1.0000 0.42780  0.71030  0.11657  Biso   1.000  H
  C240     1.0000 0.32700  0.57850  0.13777  Biso   1.000  C
  H160     1.0000 0.33310  0.54230  0.11747  Biso   1.000  H
  C241     1.0000 0.66760  0.58190  0.55770  Biso   1.000  C
  C242     1.0000 0.76970  0.64050  0.54680  Biso   1.000  C
  C243     1.0000 0.79870  0.63040  0.50900  Biso   1.000  C
  H161     1.0000 0.75310  0.58910  0.49070  Biso   1.000  H
  C244     1.0000 0.89590  0.68210  0.49853  Biso   1.000  C
  H162     1.0000 0.91520  0.67530  0.47320  Biso   1.000  H
  C245     1.0000 0.96410  0.74390  0.52590  Biso   1.000  C
  C246     1.0000 0.93520  0.75400  0.56370  Biso   1.000  C
  H163     1.0000 0.98080  0.79530  0.58200  Biso   1.000  H
  C247     1.0000 0.83790  0.70230  0.57412  Biso   1.000  C
  H164     1.0000 0.81860  0.70910  0.59940  Biso   1.000  H
  C248     1.0000 0.07190  0.79620  0.51650  Biso   1.000  C
  C249     1.0000 0.12070  0.89600  0.51190  Biso   1.000  C
  H165     1.0000 0.08740  0.92970  0.51440  Biso   1.000  H
  C250     1.0000 0.22020  0.94630  0.50330  Biso   1.000  C
  C251     1.0000 0.26480  0.89300  0.49930  Biso   1.000  C
  H166     1.0000 0.33030  0.92580  0.49290  Biso   1.000  H
  C252     1.0000 0.21970  0.79320  0.50400  Biso   1.000  C
  C253     1.0000 0.11680  0.74210  0.51310  Biso   1.000  C
  C254     1.0000 0.27090  0.73920  0.50200  Biso   1.000  C
  C255     1.0000 0.35900  0.62500  0.50090  Biso   1.000  C
  C256     1.0000 0.27300  0.69140  0.53710  Biso   1.000  C
  H167     1.0000 0.24550  0.69770  0.56050  Biso   1.000  H
  C257     1.0000 0.31710  0.63440  0.53630  Biso   1.000  C
  H168     1.0000 0.31870  0.60260  0.55910  Biso   1.000  H
  C258     1.0000 0.35590  0.67240  0.46670  Biso   1.000  C
  H169     1.0000 0.38330  0.66660  0.44330  Biso   1.000  H
  C259     1.0000 0.31160  0.72830  0.46770  Biso   1.000  C
  H170     1.0000 0.30950  0.75930  0.44470  Biso   1.000  H
  C260     1.0000 0.39980  0.55820  0.50030  Biso   1.000  C
  N11      1.0000 0.06850  0.64040  0.51640  Biso   1.000  N
  H171     1.0000 0.01730  0.62340  0.53250  Biso   1.000  H
  H172     1.0000 0.10860  0.62580  0.52960  Biso   1.000  H
  O41      1.0000 0.42370  0.53660  0.46750  Biso   1.000  O
  O42      1.0000 0.40960  0.52970  0.53270  Biso   1.000  O
  O43      1.0000 0.60870  0.52490  0.53260  Biso   1.000  O
  O44      1.0000 0.64680  0.59290  0.59270  Biso   1.000  O
  Zn11     1.0000 0.01817  0.55007  0.46818  Biso   1.000  Zn
  C261     1.0000 0.33500  0.74790  0.53220  Biso   1.000  C
  H173     1.0000 0.34850  0.79180  0.55280  Biso   1.000  H
  C262     1.0000 0.37920  0.69110  0.53160  Biso   1.000  C
  H174     1.0000 0.42210  0.69750  0.55170  Biso   1.000  H
  C263     1.0000 0.29550  0.61590  0.47050  Biso   1.000  C
  H175     1.0000 0.28250  0.57220  0.44990  Biso   1.000  H
  C264     1.0000 0.25150  0.67300  0.47110  Biso   1.000  C
  H176     1.0000 0.20920  0.66690  0.45080  Biso   1.000  H
  C265     1.0000 0.91430  0.33240  0.89103  Biso   1.000  C
  C266     1.0000 0.87080  0.23030  0.88013  Biso   1.000  C
  C267     1.0000 0.83170  0.20130  0.84233  Biso   1.000  C
  H177     1.0000 0.83600  0.24690  0.82403  Biso   1.000  H
  C268     1.0000 0.78620  0.10410  0.83186  Biso   1.000  C
  H178     1.0000 0.76010  0.08480  0.80653  Biso   1.000  H
  C269     1.0000 0.77980  0.03590  0.85923  Biso   1.000  C
  C270     1.0000 0.81880  0.06480  0.89703  Biso   1.000  C
  H179     1.0000 0.81450  0.01920  0.91533  Biso   1.000  H
  C271     1.0000 0.86440  0.16210  0.90745  Biso   1.000  C
  H180     1.0000 0.89050  0.18140  0.93273  Biso   1.000  H
  C272     1.0000 0.72430  0.92810  0.84983  Biso   1.000  C
  C273     1.0000 0.77530  0.87930  0.84523  Biso   1.000  C
  H181     1.0000 0.84230  0.91260  0.84773  Biso   1.000  H
  C274     1.0000 0.72610  0.77980  0.83663  Biso   1.000  C
  C275     1.0000 0.62820  0.73520  0.83263  Biso   1.000  C
  H182     1.0000 0.59550  0.66970  0.82623  Biso   1.000  H
  C276     1.0000 0.57350  0.78030  0.83733  Biso   1.000  C
  C277     1.0000 0.62530  0.88320  0.84643  Biso   1.000  C
  C278     1.0000 0.46830  0.72910  0.83533  Biso   1.000  C
  C279     1.0000 0.26600  0.64100  0.83423  Biso   1.000  C
  C280     1.0000 0.41840  0.72700  0.87043  Biso   1.000  C
  H183     1.0000 0.45220  0.75450  0.89383  Biso   1.000  H
  C281     1.0000 0.31730  0.68290  0.86963  Biso   1.000  C
  H184     1.0000 0.28390  0.68130  0.89243  Biso   1.000  H
  C282     1.0000 0.31650  0.64410  0.80003  Biso   1.000  C
  H185     1.0000 0.28330  0.61670  0.77663  Biso   1.000  H
  C283     1.0000 0.41670  0.68840  0.80103  Biso   1.000  C
  H186     1.0000 0.44980  0.69050  0.77803  Biso   1.000  H
  C284     1.0000 0.15840  0.60020  0.83363  Biso   1.000  C
  N12      1.0000 0.57190  0.93150  0.84973  Biso   1.000  N
  H187     1.0000 0.60610  0.98270  0.86583  Biso   1.000  H
  H188     1.0000 0.51720  0.89140  0.86293  Biso   1.000  H
  O45      1.0000 0.11290  0.57630  0.80083  Biso   1.000  O
  O46      1.0000 0.12010  0.59040  0.86603  Biso   1.000  O
  O47      1.0000 0.91620  0.39130  0.86593  Biso   1.000  O
  O48      1.0000 0.94610  0.35320  0.92603  Biso   1.000  O
  Zn12     1.0000 0.53190  0.98183  0.80151  Biso   1.000  Zn
  C285     1.0000 0.41290  0.66500  0.86553  Biso   1.000  C
  H189     1.0000 0.44330  0.65150  0.88613  Biso   1.000  H
  C286     1.0000 0.31190  0.62080  0.86493  Biso   1.000  C
  H190     1.0000 0.27540  0.57790  0.88503  Biso   1.000  H
  C287     1.0000 0.32040  0.70450  0.80383  Biso   1.000  C
  H191     1.0000 0.28970  0.71750  0.78323  Biso   1.000  H
  C288     1.0000 0.42150  0.74850  0.80443  Biso   1.000  C
  H192     1.0000 0.45770  0.79080  0.78413  Biso   1.000  H
