data_image0
_cell_length_a       28.2573
_cell_length_b       14.6878
_cell_length_c       13.639
_cell_angle_alpha    90
_cell_angle_beta     99.327
_cell_angle_gamma    90

_symmetry_space_group_name_H-M    "P 1"
_symmetry_int_tables_number       1

loop_
  _symmetry_equiv_pos_as_xyz
  'x, y, z'

loop_
  _atom_site_label
  _atom_site_occupancy
  _atom_site_fract_x
  _atom_site_fract_y
  _atom_site_fract_z
  _atom_site_thermal_displace_type
  _atom_site_B_iso_or_equiv
  _atom_site_type_symbol
  C1       1.0000 0.40490  0.25890  0.97470  Biso   1.000  C
  C2       1.0000 0.44930  0.28630  0.93670  Biso   1.000  C
  C3       1.0000 0.47850  0.21850  0.90330  Biso   1.000  C
  H1       1.0000 0.46920  0.15780  0.90300  Biso   1.000  H
  C4       1.0000 0.52000  0.24120  0.87160  Biso   1.000  C
  H2       1.0000 0.53870  0.19610  0.84910  Biso   1.000  H
  C5       1.0000 0.53510  0.33380  0.87270  Biso   1.000  C
  C6       1.0000 0.50500  0.40220  0.90180  Biso   1.000  C
  H3       1.0000 0.51300  0.46340  0.89870  Biso   1.000  H
  C7       1.0000 0.46230  0.37510  0.93570  Biso   1.000  C
  H4       1.0000 0.44290  0.41910  0.95770  Biso   1.000  H
  C8       1.0000 0.58260  0.35070  0.84550  Biso   1.000  C
  C9       1.0000 0.75090  0.59680  0.90820  Biso   1.000  C
  C10      1.0000 0.71990  0.52760  0.85060  Biso   1.000  C
  C11      1.0000 0.73780  0.47200  0.78450  Biso   1.000  C
  H5       1.0000 0.76950  0.47830  0.77520  Biso   1.000  H
  C12      1.0000 0.70900  0.40680  0.73160  Biso   1.000  C
  C13      1.0000 0.66060  0.39650  0.74560  Biso   1.000  C
  H6       1.0000 0.64080  0.35420  0.70860  Biso   1.000  H
  C14      1.0000 0.64320  0.45130  0.81660  Biso   1.000  C
  C15      1.0000 0.67190  0.51800  0.86480  Biso   1.000  C
  H7       1.0000 0.65950  0.55740  0.90760  Biso   1.000  H
  C16      1.0000 0.72750  0.34620  0.65970  Biso   1.000  C
  N1       1.0000 0.59690  0.43860  0.83930  Biso   1.000  N
  O1       1.0000 0.38740  0.18070  0.95390  Biso   1.000  O
  O2       1.0000 0.38590  0.31370  0.02660  Biso   1.000  O
  O3       1.0000 0.79551  0.58460  0.92450  Biso   1.000  O
  O4       1.0000 0.73260  0.66470  0.94360  Biso   1.000  O
  O5       1.0000 0.69910  0.28630  0.61730  Biso   1.000  O
  O6       1.0000 0.76970  0.35670  0.64600  Biso   1.000  O
  O7       1.0000 0.35460  0.26500  0.20800  Biso   1.000  O
  C17      1.0000 0.33180  0.29300  0.27300  Biso   1.000  C
  N2       1.0000 0.36060  0.34500  0.35200  Biso   1.000  N
  C18      1.0000 0.37880  0.39300  0.44300  Biso   1.000  C
  H8       1.0000 0.40240  0.43670  0.43030  Biso   1.000  H
  H9       1.0000 0.39320  0.35050  0.49220  Biso   1.000  H
  H10      1.0000 0.35300  0.42410  0.46650  Biso   1.000  H
  H11      1.0000 0.59900  0.31600  0.90600  Biso   1.000  H
  Eu1      1.0000 0.31788  0.21057  0.03755  Biso   1.000  Eu
  C19      1.0000 0.32340  0.39100  0.39500  Biso   1.000  C
  H12      1.0000 0.33800  0.42940  0.44860  Biso   1.000  H
  H13      1.0000 0.30340  0.34680  0.42000  Biso   1.000  H
  H14      1.0000 0.30430  0.42760  0.34530  Biso   1.000  H
  O8       1.0000 0.35030  0.25500  0.20280  Biso   1.000  O
  C20      1.0000 0.90490  0.75890  0.97470  Biso   1.000  C
  C21      1.0000 0.94930  0.78630  0.93670  Biso   1.000  C
  C22      1.0000 0.97850  0.71850  0.90330  Biso   1.000  C
  H15      1.0000 0.96920  0.65780  0.90300  Biso   1.000  H
  C23      1.0000 0.02000  0.74120  0.87160  Biso   1.000  C
  H16      1.0000 0.03870  0.69610  0.84910  Biso   1.000  H
  C24      1.0000 0.03510  0.83380  0.87270  Biso   1.000  C
  C25      1.0000 0.00500  0.90220  0.90180  Biso   1.000  C
  H17      1.0000 0.01300  0.96340  0.89870  Biso   1.000  H
  C26      1.0000 0.96230  0.87510  0.93570  Biso   1.000  C
  H18      1.0000 0.94290  0.91910  0.95770  Biso   1.000  H
  C27      1.0000 0.08260  0.85070  0.84550  Biso   1.000  C
  C28      1.0000 0.25090  0.09680  0.90820  Biso   1.000  C
  C29      1.0000 0.21990  0.02760  0.85060  Biso   1.000  C
  C30      1.0000 0.23780  0.97200  0.78450  Biso   1.000  C
  H19      1.0000 0.26950  0.97830  0.77520  Biso   1.000  H
  C31      1.0000 0.20900  0.90680  0.73160  Biso   1.000  C
  C32      1.0000 0.16060  0.89650  0.74560  Biso   1.000  C
  H20      1.0000 0.14080  0.85420  0.70860  Biso   1.000  H
  C33      1.0000 0.14320  0.95130  0.81660  Biso   1.000  C
  C34      1.0000 0.17190  0.01800  0.86480  Biso   1.000  C
  H21      1.0000 0.15950  0.05740  0.90760  Biso   1.000  H
  C35      1.0000 0.22750  0.84620  0.65970  Biso   1.000  C
  N3       1.0000 0.09690  0.93860  0.83930  Biso   1.000  N
  O9       1.0000 0.88740  0.68070  0.95390  Biso   1.000  O
  O10      1.0000 0.88590  0.81370  0.02660  Biso   1.000  O
  O11      1.0000 0.29551  0.08460  0.92450  Biso   1.000  O
  O12      1.0000 0.23260  0.16470  0.94360  Biso   1.000  O
  O13      1.0000 0.19910  0.78630  0.61730  Biso   1.000  O
  O14      1.0000 0.26970  0.85670  0.64600  Biso   1.000  O
  O15      1.0000 0.85460  0.76500  0.20800  Biso   1.000  O
  C36      1.0000 0.83180  0.79300  0.27300  Biso   1.000  C
  N4       1.0000 0.86060  0.84500  0.35200  Biso   1.000  N
  C37      1.0000 0.87880  0.89300  0.44300  Biso   1.000  C
  H22      1.0000 0.90240  0.93670  0.43030  Biso   1.000  H
  H23      1.0000 0.89320  0.85050  0.49220  Biso   1.000  H
  H24      1.0000 0.85300  0.92410  0.46650  Biso   1.000  H
  H25      1.0000 0.09900  0.81600  0.90600  Biso   1.000  H
  Eu2      1.0000 0.81788  0.71057  0.03755  Biso   1.000  Eu
  C38      1.0000 0.82340  0.89100  0.39500  Biso   1.000  C
  H26      1.0000 0.83800  0.92940  0.44860  Biso   1.000  H
  H27      1.0000 0.80340  0.84680  0.42000  Biso   1.000  H
  H28      1.0000 0.80430  0.92760  0.34530  Biso   1.000  H
  O16      1.0000 0.85030  0.75500  0.20280  Biso   1.000  O
  C39      1.0000 0.59510  0.25890  0.52530  Biso   1.000  C
  C40      1.0000 0.55070  0.28630  0.56330  Biso   1.000  C
  C41      1.0000 0.52150  0.21850  0.59670  Biso   1.000  C
  H29      1.0000 0.53080  0.15780  0.59700  Biso   1.000  H
  C42      1.0000 0.48000  0.24120  0.62840  Biso   1.000  C
  H30      1.0000 0.46130  0.19610  0.65090  Biso   1.000  H
  C43      1.0000 0.46490  0.33380  0.62730  Biso   1.000  C
  C44      1.0000 0.49500  0.40220  0.59820  Biso   1.000  C
  H31      1.0000 0.48700  0.46340  0.60130  Biso   1.000  H
  C45      1.0000 0.53770  0.37510  0.56430  Biso   1.000  C
  H32      1.0000 0.55710  0.41910  0.54230  Biso   1.000  H
  C46      1.0000 0.41740  0.35070  0.65450  Biso   1.000  C
  C47      1.0000 0.24910  0.59680  0.59180  Biso   1.000  C
  C48      1.0000 0.28010  0.52760  0.64940  Biso   1.000  C
  C49      1.0000 0.26220  0.47200  0.71550  Biso   1.000  C
  H33      1.0000 0.23050  0.47830  0.72480  Biso   1.000  H
  C50      1.0000 0.29100  0.40680  0.76840  Biso   1.000  C
  C51      1.0000 0.33940  0.39650  0.75440  Biso   1.000  C
  H34      1.0000 0.35920  0.35420  0.79140  Biso   1.000  H
  C52      1.0000 0.35680  0.45130  0.68340  Biso   1.000  C
  C53      1.0000 0.32810  0.51800  0.63520  Biso   1.000  C
  H35      1.0000 0.34050  0.55740  0.59240  Biso   1.000  H
  C54      1.0000 0.27250  0.34620  0.84030  Biso   1.000  C
  N5       1.0000 0.40310  0.43860  0.66070  Biso   1.000  N
  O17      1.0000 0.61260  0.18070  0.54610  Biso   1.000  O
  O18      1.0000 0.61410  0.31370  0.47340  Biso   1.000  O
  O19      1.0000 0.20449  0.58460  0.57550  Biso   1.000  O
  O20      1.0000 0.26740  0.66470  0.55640  Biso   1.000  O
  O21      1.0000 0.30090  0.28630  0.88270  Biso   1.000  O
  O22      1.0000 0.23030  0.35670  0.85400  Biso   1.000  O
  O23      1.0000 0.64540  0.26500  0.29200  Biso   1.000  O
  C55      1.0000 0.66820  0.29300  0.22700  Biso   1.000  C
  N6       1.0000 0.63940  0.34500  0.14800  Biso   1.000  N
  C56      1.0000 0.62120  0.39300  0.05700  Biso   1.000  C
  H36      1.0000 0.59760  0.43670  0.06970  Biso   1.000  H
  H37      1.0000 0.60680  0.35050  0.00780  Biso   1.000  H
  H38      1.0000 0.64700  0.42410  0.03350  Biso   1.000  H
  H39      1.0000 0.40100  0.31600  0.59400  Biso   1.000  H
  Eu3      1.0000 0.68212  0.21057  0.46245  Biso   1.000  Eu
  C57      1.0000 0.67660  0.39100  0.10500  Biso   1.000  C
  H40      1.0000 0.66200  0.42940  0.05140  Biso   1.000  H
  H41      1.0000 0.69660  0.34680  0.08000  Biso   1.000  H
  H42      1.0000 0.69570  0.42760  0.15470  Biso   1.000  H
  O24      1.0000 0.64970  0.25500  0.29720  Biso   1.000  O
  C58      1.0000 0.09510  0.75890  0.52530  Biso   1.000  C
  C59      1.0000 0.05070  0.78630  0.56330  Biso   1.000  C
  C60      1.0000 0.02150  0.71850  0.59670  Biso   1.000  C
  H43      1.0000 0.03080  0.65780  0.59700  Biso   1.000  H
  C61      1.0000 0.98000  0.74120  0.62840  Biso   1.000  C
  H44      1.0000 0.96130  0.69610  0.65090  Biso   1.000  H
  C62      1.0000 0.96490  0.83380  0.62730  Biso   1.000  C
  C63      1.0000 0.99500  0.90220  0.59820  Biso   1.000  C
  H45      1.0000 0.98700  0.96340  0.60130  Biso   1.000  H
  C64      1.0000 0.03770  0.87510  0.56430  Biso   1.000  C
  H46      1.0000 0.05710  0.91910  0.54230  Biso   1.000  H
  C65      1.0000 0.91740  0.85070  0.65450  Biso   1.000  C
  C66      1.0000 0.74910  0.09680  0.59180  Biso   1.000  C
  C67      1.0000 0.78010  0.02760  0.64940  Biso   1.000  C
  C68      1.0000 0.76220  0.97200  0.71550  Biso   1.000  C
  H47      1.0000 0.73050  0.97830  0.72480  Biso   1.000  H
  C69      1.0000 0.79100  0.90680  0.76840  Biso   1.000  C
  C70      1.0000 0.83940  0.89650  0.75440  Biso   1.000  C
  H48      1.0000 0.85920  0.85420  0.79140  Biso   1.000  H
  C71      1.0000 0.85680  0.95130  0.68340  Biso   1.000  C
  C72      1.0000 0.82810  0.01800  0.63520  Biso   1.000  C
  H49      1.0000 0.84050  0.05740  0.59240  Biso   1.000  H
  C73      1.0000 0.77250  0.84620  0.84030  Biso   1.000  C
  N7       1.0000 0.90310  0.93860  0.66070  Biso   1.000  N
  O25      1.0000 0.11260  0.68070  0.54610  Biso   1.000  O
  O26      1.0000 0.11410  0.81370  0.47340  Biso   1.000  O
  O27      1.0000 0.70449  0.08460  0.57550  Biso   1.000  O
  O28      1.0000 0.76740  0.16470  0.55640  Biso   1.000  O
  O29      1.0000 0.80090  0.78630  0.88270  Biso   1.000  O
  O30      1.0000 0.73030  0.85670  0.85400  Biso   1.000  O
  O31      1.0000 0.14540  0.76500  0.29200  Biso   1.000  O
  C74      1.0000 0.16820  0.79300  0.22700  Biso   1.000  C
  N8       1.0000 0.13940  0.84500  0.14800  Biso   1.000  N
  C75      1.0000 0.12120  0.89300  0.05700  Biso   1.000  C
  H50      1.0000 0.09760  0.93670  0.06970  Biso   1.000  H
  H51      1.0000 0.10680  0.85050  0.00780  Biso   1.000  H
  H52      1.0000 0.14700  0.92410  0.03350  Biso   1.000  H
  H53      1.0000 0.90100  0.81600  0.59400  Biso   1.000  H
  Eu4      1.0000 0.18212  0.71057  0.46245  Biso   1.000  Eu
  C76      1.0000 0.17660  0.89100  0.10500  Biso   1.000  C
  H54      1.0000 0.16200  0.92940  0.05140  Biso   1.000  H
  H55      1.0000 0.19660  0.84680  0.08000  Biso   1.000  H
  H56      1.0000 0.19570  0.92760  0.15470  Biso   1.000  H
  O32      1.0000 0.14970  0.75500  0.29720  Biso   1.000  O
  C77      1.0000 0.59510  0.74110  0.02530  Biso   1.000  C
  C78      1.0000 0.55070  0.71370  0.06330  Biso   1.000  C
  C79      1.0000 0.52150  0.78150  0.09670  Biso   1.000  C
  H57      1.0000 0.53080  0.84220  0.09700  Biso   1.000  H
  C80      1.0000 0.48000  0.75880  0.12840  Biso   1.000  C
  H58      1.0000 0.46130  0.80390  0.15090  Biso   1.000  H
  C81      1.0000 0.46490  0.66620  0.12730  Biso   1.000  C
  C82      1.0000 0.49500  0.59780  0.09820  Biso   1.000  C
  H59      1.0000 0.48700  0.53660  0.10130  Biso   1.000  H
  C83      1.0000 0.53770  0.62490  0.06430  Biso   1.000  C
  H60      1.0000 0.55710  0.58090  0.04230  Biso   1.000  H
  C84      1.0000 0.41740  0.64930  0.15450  Biso   1.000  C
  C85      1.0000 0.24910  0.40320  0.09180  Biso   1.000  C
  C86      1.0000 0.28010  0.47240  0.14940  Biso   1.000  C
  C87      1.0000 0.26220  0.52800  0.21550  Biso   1.000  C
  H61      1.0000 0.23050  0.52170  0.22480  Biso   1.000  H
  C88      1.0000 0.29100  0.59320  0.26840  Biso   1.000  C
  C89      1.0000 0.33940  0.60350  0.25440  Biso   1.000  C
  H62      1.0000 0.35920  0.64580  0.29140  Biso   1.000  H
  C90      1.0000 0.35680  0.54870  0.18340  Biso   1.000  C
  C91      1.0000 0.32810  0.48200  0.13520  Biso   1.000  C
  H63      1.0000 0.34050  0.44260  0.09240  Biso   1.000  H
  C92      1.0000 0.27250  0.65380  0.34030  Biso   1.000  C
  N9       1.0000 0.40310  0.56140  0.16070  Biso   1.000  N
  O33      1.0000 0.61260  0.81930  0.04610  Biso   1.000  O
  O34      1.0000 0.61410  0.68630  0.97340  Biso   1.000  O
  O35      1.0000 0.20449  0.41540  0.07550  Biso   1.000  O
  O36      1.0000 0.26740  0.33530  0.05640  Biso   1.000  O
  O37      1.0000 0.30090  0.71370  0.38270  Biso   1.000  O
  O38      1.0000 0.23030  0.64330  0.35400  Biso   1.000  O
  O39      1.0000 0.64540  0.73500  0.79200  Biso   1.000  O
  C93      1.0000 0.66820  0.70700  0.72700  Biso   1.000  C
  N10      1.0000 0.63940  0.65500  0.64800  Biso   1.000  N
  C94      1.0000 0.62120  0.60700  0.55700  Biso   1.000  C
  H64      1.0000 0.59760  0.56330  0.56970  Biso   1.000  H
  H65      1.0000 0.60680  0.64950  0.50780  Biso   1.000  H
  H66      1.0000 0.64700  0.57590  0.53350  Biso   1.000  H
  H67      1.0000 0.40100  0.68400  0.09400  Biso   1.000  H
  Eu5      1.0000 0.68212  0.78943  0.96245  Biso   1.000  Eu
  C95      1.0000 0.67660  0.60900  0.60500  Biso   1.000  C
  H68      1.0000 0.66200  0.57060  0.55140  Biso   1.000  H
  H69      1.0000 0.69660  0.65320  0.58000  Biso   1.000  H
  H70      1.0000 0.69570  0.57240  0.65470  Biso   1.000  H
  O40      1.0000 0.64970  0.74500  0.79720  Biso   1.000  O
  C96      1.0000 0.09510  0.24110  0.02530  Biso   1.000  C
  C97      1.0000 0.05070  0.21370  0.06330  Biso   1.000  C
  C98      1.0000 0.02150  0.28150  0.09670  Biso   1.000  C
  H71      1.0000 0.03080  0.34220  0.09700  Biso   1.000  H
  C99      1.0000 0.98000  0.25880  0.12840  Biso   1.000  C
  H72      1.0000 0.96130  0.30390  0.15090  Biso   1.000  H
  C100     1.0000 0.96490  0.16620  0.12730  Biso   1.000  C
  C101     1.0000 0.99500  0.09780  0.09820  Biso   1.000  C
  H73      1.0000 0.98700  0.03660  0.10130  Biso   1.000  H
  C102     1.0000 0.03770  0.12490  0.06430  Biso   1.000  C
  H74      1.0000 0.05710  0.08090  0.04230  Biso   1.000  H
  C103     1.0000 0.91740  0.14930  0.15450  Biso   1.000  C
  C104     1.0000 0.74910  0.90320  0.09180  Biso   1.000  C
  C105     1.0000 0.78010  0.97240  0.14940  Biso   1.000  C
  C106     1.0000 0.76220  0.02800  0.21550  Biso   1.000  C
  H75      1.0000 0.73050  0.02170  0.22480  Biso   1.000  H
  C107     1.0000 0.79100  0.09320  0.26840  Biso   1.000  C
  C108     1.0000 0.83940  0.10350  0.25440  Biso   1.000  C
  H76      1.0000 0.85920  0.14580  0.29140  Biso   1.000  H
  C109     1.0000 0.85680  0.04870  0.18340  Biso   1.000  C
  C110     1.0000 0.82810  0.98200  0.13520  Biso   1.000  C
  H77      1.0000 0.84050  0.94260  0.09240  Biso   1.000  H
  C111     1.0000 0.77250  0.15380  0.34030  Biso   1.000  C
  N11      1.0000 0.90310  0.06140  0.16070  Biso   1.000  N
  O41      1.0000 0.11260  0.31930  0.04610  Biso   1.000  O
  O42      1.0000 0.11410  0.18630  0.97340  Biso   1.000  O
  O43      1.0000 0.70449  0.91540  0.07550  Biso   1.000  O
  O44      1.0000 0.76740  0.83530  0.05640  Biso   1.000  O
  O45      1.0000 0.80090  0.21370  0.38270  Biso   1.000  O
  O46      1.0000 0.73030  0.14330  0.35400  Biso   1.000  O
  O47      1.0000 0.14540  0.23500  0.79200  Biso   1.000  O
  C112     1.0000 0.16820  0.20700  0.72700  Biso   1.000  C
  N12      1.0000 0.13940  0.15500  0.64800  Biso   1.000  N
  C113     1.0000 0.12120  0.10700  0.55700  Biso   1.000  C
  H78      1.0000 0.09760  0.06330  0.56970  Biso   1.000  H
  H79      1.0000 0.10680  0.14950  0.50780  Biso   1.000  H
  H80      1.0000 0.14700  0.07590  0.53350  Biso   1.000  H
  H81      1.0000 0.90100  0.18400  0.09400  Biso   1.000  H
  Eu6      1.0000 0.18212  0.28943  0.96245  Biso   1.000  Eu
  C114     1.0000 0.17660  0.10900  0.60500  Biso   1.000  C
  H82      1.0000 0.16200  0.07060  0.55140  Biso   1.000  H
  H83      1.0000 0.19660  0.15320  0.58000  Biso   1.000  H
  H84      1.0000 0.19570  0.07240  0.65470  Biso   1.000  H
  O48      1.0000 0.14970  0.24500  0.79720  Biso   1.000  O
  C115     1.0000 0.40490  0.74110  0.47470  Biso   1.000  C
  C116     1.0000 0.44930  0.71370  0.43670  Biso   1.000  C
  C117     1.0000 0.47850  0.78150  0.40330  Biso   1.000  C
  H85      1.0000 0.46920  0.84220  0.40300  Biso   1.000  H
  C118     1.0000 0.52000  0.75880  0.37160  Biso   1.000  C
  H86      1.0000 0.53870  0.80390  0.34910  Biso   1.000  H
  C119     1.0000 0.53510  0.66620  0.37270  Biso   1.000  C
  C120     1.0000 0.50500  0.59780  0.40180  Biso   1.000  C
  H87      1.0000 0.51300  0.53660  0.39870  Biso   1.000  H
  C121     1.0000 0.46230  0.62490  0.43570  Biso   1.000  C
  H88      1.0000 0.44290  0.58090  0.45770  Biso   1.000  H
  C122     1.0000 0.58260  0.64930  0.34550  Biso   1.000  C
  C123     1.0000 0.75090  0.40320  0.40820  Biso   1.000  C
  C124     1.0000 0.71990  0.47240  0.35060  Biso   1.000  C
  C125     1.0000 0.73780  0.52800  0.28450  Biso   1.000  C
  H89      1.0000 0.76950  0.52170  0.27520  Biso   1.000  H
  C126     1.0000 0.70900  0.59320  0.23160  Biso   1.000  C
  C127     1.0000 0.66060  0.60350  0.24560  Biso   1.000  C
  H90      1.0000 0.64080  0.64580  0.20860  Biso   1.000  H
  C128     1.0000 0.64320  0.54870  0.31660  Biso   1.000  C
  C129     1.0000 0.67190  0.48200  0.36480  Biso   1.000  C
  H91      1.0000 0.65950  0.44260  0.40760  Biso   1.000  H
  C130     1.0000 0.72750  0.65380  0.15970  Biso   1.000  C
  N13      1.0000 0.59690  0.56140  0.33930  Biso   1.000  N
  O49      1.0000 0.38740  0.81930  0.45390  Biso   1.000  O
  O50      1.0000 0.38590  0.68630  0.52660  Biso   1.000  O
  O51      1.0000 0.79551  0.41540  0.42450  Biso   1.000  O
  O52      1.0000 0.73260  0.33530  0.44360  Biso   1.000  O
  O53      1.0000 0.69910  0.71370  0.11730  Biso   1.000  O
  O54      1.0000 0.76970  0.64330  0.14600  Biso   1.000  O
  O55      1.0000 0.35460  0.73500  0.70800  Biso   1.000  O
  C131     1.0000 0.33180  0.70700  0.77300  Biso   1.000  C
  N14      1.0000 0.36060  0.65500  0.85200  Biso   1.000  N
  C132     1.0000 0.37880  0.60700  0.94300  Biso   1.000  C
  H92      1.0000 0.40240  0.56330  0.93030  Biso   1.000  H
  H93      1.0000 0.39320  0.64950  0.99220  Biso   1.000  H
  H94      1.0000 0.35300  0.57590  0.96650  Biso   1.000  H
  H95      1.0000 0.59900  0.68400  0.40600  Biso   1.000  H
  Eu7      1.0000 0.31788  0.78943  0.53755  Biso   1.000  Eu
  C133     1.0000 0.32340  0.60900  0.89500  Biso   1.000  C
  H96      1.0000 0.33800  0.57060  0.94860  Biso   1.000  H
  H97      1.0000 0.30340  0.65320  0.92000  Biso   1.000  H
  H98      1.0000 0.30430  0.57240  0.84530  Biso   1.000  H
  O56      1.0000 0.35030  0.74500  0.70280  Biso   1.000  O
  C134     1.0000 0.90490  0.24110  0.47470  Biso   1.000  C
  C135     1.0000 0.94930  0.21370  0.43670  Biso   1.000  C
  C136     1.0000 0.97850  0.28150  0.40330  Biso   1.000  C
  H99      1.0000 0.96920  0.34220  0.40300  Biso   1.000  H
  C137     1.0000 0.02000  0.25880  0.37160  Biso   1.000  C
  H100     1.0000 0.03870  0.30390  0.34910  Biso   1.000  H
  C138     1.0000 0.03510  0.16620  0.37270  Biso   1.000  C
  C139     1.0000 0.00500  0.09780  0.40180  Biso   1.000  C
  H101     1.0000 0.01300  0.03660  0.39870  Biso   1.000  H
  C140     1.0000 0.96230  0.12490  0.43570  Biso   1.000  C
  H102     1.0000 0.94290  0.08090  0.45770  Biso   1.000  H
  C141     1.0000 0.08260  0.14930  0.34550  Biso   1.000  C
  C142     1.0000 0.25090  0.90320  0.40820  Biso   1.000  C
  C143     1.0000 0.21990  0.97240  0.35060  Biso   1.000  C
  C144     1.0000 0.23780  0.02800  0.28450  Biso   1.000  C
  H103     1.0000 0.26950  0.02170  0.27520  Biso   1.000  H
  C145     1.0000 0.20900  0.09320  0.23160  Biso   1.000  C
  C146     1.0000 0.16060  0.10350  0.24560  Biso   1.000  C
  H104     1.0000 0.14080  0.14580  0.20860  Biso   1.000  H
  C147     1.0000 0.14320  0.04870  0.31660  Biso   1.000  C
  C148     1.0000 0.17190  0.98200  0.36480  Biso   1.000  C
  H105     1.0000 0.15950  0.94260  0.40760  Biso   1.000  H
  C149     1.0000 0.22750  0.15380  0.15970  Biso   1.000  C
  N15      1.0000 0.09690  0.06140  0.33930  Biso   1.000  N
  O57      1.0000 0.88740  0.31930  0.45390  Biso   1.000  O
  O58      1.0000 0.88590  0.18630  0.52660  Biso   1.000  O
  O59      1.0000 0.29551  0.91540  0.42450  Biso   1.000  O
  O60      1.0000 0.23260  0.83530  0.44360  Biso   1.000  O
  O61      1.0000 0.19910  0.21370  0.11730  Biso   1.000  O
  O62      1.0000 0.26970  0.14330  0.14600  Biso   1.000  O
  O63      1.0000 0.85460  0.23500  0.70800  Biso   1.000  O
  C150     1.0000 0.83180  0.20700  0.77300  Biso   1.000  C
  N16      1.0000 0.86060  0.15500  0.85200  Biso   1.000  N
  C151     1.0000 0.87880  0.10700  0.94300  Biso   1.000  C
  H106     1.0000 0.90240  0.06330  0.93030  Biso   1.000  H
  H107     1.0000 0.89320  0.14950  0.99220  Biso   1.000  H
  H108     1.0000 0.85300  0.07590  0.96650  Biso   1.000  H
  H109     1.0000 0.09900  0.18400  0.40600  Biso   1.000  H
  Eu8      1.0000 0.81788  0.28943  0.53755  Biso   1.000  Eu
  C152     1.0000 0.82340  0.10900  0.89500  Biso   1.000  C
  H110     1.0000 0.83800  0.07060  0.94860  Biso   1.000  H
  H111     1.0000 0.80340  0.15320  0.92000  Biso   1.000  H
  H112     1.0000 0.80430  0.07240  0.84530  Biso   1.000  H
  O64      1.0000 0.85030  0.24500  0.70280  Biso   1.000  O
