data_image0
_cell_length_a       8.9751
_cell_length_b       24.4278
_cell_length_c       12.0085
_cell_angle_alpha    90
_cell_angle_beta     107.797
_cell_angle_gamma    90

_symmetry_space_group_name_H-M    "P 1"
_symmetry_int_tables_number       1

loop_
  _symmetry_equiv_pos_as_xyz
  'x, y, z'

loop_
  _atom_site_label
  _atom_site_occupancy
  _atom_site_fract_x
  _atom_site_fract_y
  _atom_site_fract_z
  _atom_site_thermal_displace_type
  _atom_site_B_iso_or_equiv
  _atom_site_type_symbol
  O1       1.0000 0.35800  0.24990  0.40240  Biso   1.000  O
  O2       1.0000 0.33430  0.30540  0.58820  Biso   1.000  O
  N1       1.0000 0.62720  0.37247  0.62150  Biso   1.000  N
  C1       1.0000 0.72050  0.40850  0.59930  Biso   1.000  C
  H1       1.0000 0.71990  0.41260  0.52050  Biso   1.000  H
  C2       1.0000 0.81870  0.44050  0.68150  Biso   1.000  C
  H2       1.0000 0.89510  0.46250  0.66270  Biso   1.000  H
  C3       1.0000 0.80480  0.44078  0.80050  Biso   1.000  C
  C4       1.0000 0.72850  0.40230  0.81480  Biso   1.000  C
  H3       1.0000 0.73780  0.39370  0.89380  Biso   1.000  H
  C5       1.0000 0.62810  0.36860  0.73060  Biso   1.000  C
  H4       1.0000 0.56140  0.34330  0.75210  Biso   1.000  H
  C6       1.0000 0.78280  0.37420  0.66280  Biso   1.000  C
  H5       1.0000 0.84360  0.35150  0.62930  Biso   1.000  H
  C7       1.0000 0.85960  0.41040  0.75760  Biso   1.000  C
  H6       1.0000 0.97040  0.40780  0.78650  Biso   1.000  H
  C8       1.0000 0.62680  0.44290  0.75860  Biso   1.000  C
  H7       1.0000 0.57050  0.46650  0.79410  Biso   1.000  H
  C9       1.0000 0.55280  0.41000  0.66920  Biso   1.000  C
  H8       1.0000 0.44240  0.41310  0.63760  Biso   1.000  H
  C10      1.0000 0.85840  0.47470  0.91540  Biso   1.000  C
  C11      1.0000 0.94140  0.47550  0.88250  Biso   1.000  C
  C12      1.0000 0.25690  0.23452  0.44560  Biso   1.000  C
  O3       1.0000 0.85800  0.74990  0.40240  Biso   1.000  O
  O4       1.0000 0.83430  0.80540  0.58820  Biso   1.000  O
  N2       1.0000 0.12720  0.87247  0.62150  Biso   1.000  N
  C13      1.0000 0.22050  0.90850  0.59930  Biso   1.000  C
  H9       1.0000 0.21990  0.91260  0.52050  Biso   1.000  H
  C14      1.0000 0.31870  0.94050  0.68150  Biso   1.000  C
  H10      1.0000 0.39510  0.96250  0.66270  Biso   1.000  H
  C15      1.0000 0.30480  0.94078  0.80050  Biso   1.000  C
  C16      1.0000 0.22850  0.90230  0.81480  Biso   1.000  C
  H11      1.0000 0.23780  0.89370  0.89380  Biso   1.000  H
  C17      1.0000 0.12810  0.86860  0.73060  Biso   1.000  C
  H12      1.0000 0.06140  0.84330  0.75210  Biso   1.000  H
  C18      1.0000 0.28280  0.87420  0.66280  Biso   1.000  C
  H13      1.0000 0.34360  0.85150  0.62930  Biso   1.000  H
  C19      1.0000 0.35960  0.91040  0.75760  Biso   1.000  C
  H14      1.0000 0.47040  0.90780  0.78650  Biso   1.000  H
  C20      1.0000 0.12680  0.94290  0.75860  Biso   1.000  C
  H15      1.0000 0.07050  0.96650  0.79410  Biso   1.000  H
  C21      1.0000 0.05280  0.91000  0.66920  Biso   1.000  C
  H16      1.0000 0.94240  0.91310  0.63760  Biso   1.000  H
  C22      1.0000 0.35840  0.97470  0.91540  Biso   1.000  C
  C23      1.0000 0.44140  0.97550  0.88250  Biso   1.000  C
  C24      1.0000 0.75690  0.73452  0.44560  Biso   1.000  C
  O5       1.0000 0.64200  0.24990  0.59760  Biso   1.000  O
  O6       1.0000 0.66570  0.30540  0.41180  Biso   1.000  O
  N3       1.0000 0.37280  0.37247  0.37850  Biso   1.000  N
  C25      1.0000 0.27950  0.40850  0.40070  Biso   1.000  C
  H17      1.0000 0.28010  0.41260  0.47950  Biso   1.000  H
  C26      1.0000 0.18130  0.44050  0.31850  Biso   1.000  C
  H18      1.0000 0.10490  0.46250  0.33730  Biso   1.000  H
  C27      1.0000 0.19520  0.44078  0.19950  Biso   1.000  C
  C28      1.0000 0.27150  0.40230  0.18520  Biso   1.000  C
  H19      1.0000 0.26220  0.39370  0.10620  Biso   1.000  H
  C29      1.0000 0.37190  0.36860  0.26940  Biso   1.000  C
  H20      1.0000 0.43860  0.34330  0.24790  Biso   1.000  H
  C30      1.0000 0.21720  0.37420  0.33720  Biso   1.000  C
  H21      1.0000 0.15640  0.35150  0.37070  Biso   1.000  H
  C31      1.0000 0.14040  0.41040  0.24240  Biso   1.000  C
  H22      1.0000 0.02960  0.40780  0.21350  Biso   1.000  H
  C32      1.0000 0.37320  0.44290  0.24140  Biso   1.000  C
  H23      1.0000 0.42950  0.46650  0.20590  Biso   1.000  H
  C33      1.0000 0.44720  0.41000  0.33080  Biso   1.000  C
  H24      1.0000 0.55760  0.41310  0.36240  Biso   1.000  H
  C34      1.0000 0.14160  0.47470  0.08460  Biso   1.000  C
  C35      1.0000 0.05860  0.47550  0.11750  Biso   1.000  C
  C36      1.0000 0.74310  0.23452  0.55440  Biso   1.000  C
  O7       1.0000 0.14200  0.74990  0.59760  Biso   1.000  O
  O8       1.0000 0.16570  0.80540  0.41180  Biso   1.000  O
  N4       1.0000 0.87280  0.87247  0.37850  Biso   1.000  N
  C37      1.0000 0.77950  0.90850  0.40070  Biso   1.000  C
  H25      1.0000 0.78010  0.91260  0.47950  Biso   1.000  H
  C38      1.0000 0.68130  0.94050  0.31850  Biso   1.000  C
  H26      1.0000 0.60490  0.96250  0.33730  Biso   1.000  H
  C39      1.0000 0.69520  0.94078  0.19950  Biso   1.000  C
  C40      1.0000 0.77150  0.90230  0.18520  Biso   1.000  C
  H27      1.0000 0.76220  0.89370  0.10620  Biso   1.000  H
  C41      1.0000 0.87190  0.86860  0.26940  Biso   1.000  C
  H28      1.0000 0.93860  0.84330  0.24790  Biso   1.000  H
  C42      1.0000 0.71720  0.87420  0.33720  Biso   1.000  C
  H29      1.0000 0.65640  0.85150  0.37070  Biso   1.000  H
  C43      1.0000 0.64040  0.91040  0.24240  Biso   1.000  C
  H30      1.0000 0.52960  0.90780  0.21350  Biso   1.000  H
  C44      1.0000 0.87320  0.94290  0.24140  Biso   1.000  C
  H31      1.0000 0.92950  0.96650  0.20590  Biso   1.000  H
  C45      1.0000 0.94720  0.91000  0.33080  Biso   1.000  C
  H32      1.0000 0.05760  0.91310  0.36240  Biso   1.000  H
  C46      1.0000 0.64160  0.97470  0.08460  Biso   1.000  C
  C47      1.0000 0.55860  0.97550  0.11750  Biso   1.000  C
  C48      1.0000 0.24310  0.73452  0.55440  Biso   1.000  C
  O9       1.0000 0.64200  0.75010  0.59760  Biso   1.000  O
  O10      1.0000 0.66570  0.69460  0.41180  Biso   1.000  O
  N5       1.0000 0.37280  0.62753  0.37850  Biso   1.000  N
  C49      1.0000 0.27950  0.59150  0.40070  Biso   1.000  C
  H33      1.0000 0.28010  0.58740  0.47950  Biso   1.000  H
  C50      1.0000 0.18130  0.55950  0.31850  Biso   1.000  C
  H34      1.0000 0.10490  0.53750  0.33730  Biso   1.000  H
  C51      1.0000 0.19520  0.55922  0.19950  Biso   1.000  C
  C52      1.0000 0.27150  0.59770  0.18520  Biso   1.000  C
  H35      1.0000 0.26220  0.60630  0.10620  Biso   1.000  H
  C53      1.0000 0.37190  0.63140  0.26940  Biso   1.000  C
  H36      1.0000 0.43860  0.65670  0.24790  Biso   1.000  H
  C54      1.0000 0.21720  0.62580  0.33720  Biso   1.000  C
  H37      1.0000 0.15640  0.64850  0.37070  Biso   1.000  H
  C55      1.0000 0.14040  0.58960  0.24240  Biso   1.000  C
  H38      1.0000 0.02960  0.59220  0.21350  Biso   1.000  H
  C56      1.0000 0.37320  0.55710  0.24140  Biso   1.000  C
  H39      1.0000 0.42950  0.53350  0.20590  Biso   1.000  H
  C57      1.0000 0.44720  0.59000  0.33080  Biso   1.000  C
  H40      1.0000 0.55760  0.58690  0.36240  Biso   1.000  H
  C58      1.0000 0.14160  0.52530  0.08460  Biso   1.000  C
  C59      1.0000 0.05860  0.52450  0.11750  Biso   1.000  C
  C60      1.0000 0.74310  0.76548  0.55440  Biso   1.000  C
  O11      1.0000 0.14200  0.25010  0.59760  Biso   1.000  O
  O12      1.0000 0.16570  0.19460  0.41180  Biso   1.000  O
  N6       1.0000 0.87280  0.12753  0.37850  Biso   1.000  N
  C61      1.0000 0.77950  0.09150  0.40070  Biso   1.000  C
  H41      1.0000 0.78010  0.08740  0.47950  Biso   1.000  H
  C62      1.0000 0.68130  0.05950  0.31850  Biso   1.000  C
  H42      1.0000 0.60490  0.03750  0.33730  Biso   1.000  H
  C63      1.0000 0.69520  0.05922  0.19950  Biso   1.000  C
  C64      1.0000 0.77150  0.09770  0.18520  Biso   1.000  C
  H43      1.0000 0.76220  0.10630  0.10620  Biso   1.000  H
  C65      1.0000 0.87190  0.13140  0.26940  Biso   1.000  C
  H44      1.0000 0.93860  0.15670  0.24790  Biso   1.000  H
  C66      1.0000 0.71720  0.12580  0.33720  Biso   1.000  C
  H45      1.0000 0.65640  0.14850  0.37070  Biso   1.000  H
  C67      1.0000 0.64040  0.08960  0.24240  Biso   1.000  C
  H46      1.0000 0.52960  0.09220  0.21350  Biso   1.000  H
  C68      1.0000 0.87320  0.05710  0.24140  Biso   1.000  C
  H47      1.0000 0.92950  0.03350  0.20590  Biso   1.000  H
  C69      1.0000 0.94720  0.09000  0.33080  Biso   1.000  C
  H48      1.0000 0.05760  0.08690  0.36240  Biso   1.000  H
  C70      1.0000 0.64160  0.02530  0.08460  Biso   1.000  C
  C71      1.0000 0.55860  0.02450  0.11750  Biso   1.000  C
  C72      1.0000 0.24310  0.26548  0.55440  Biso   1.000  C
  O13      1.0000 0.35800  0.75010  0.40240  Biso   1.000  O
  O14      1.0000 0.33430  0.69460  0.58820  Biso   1.000  O
  N7       1.0000 0.62720  0.62753  0.62150  Biso   1.000  N
  C73      1.0000 0.72050  0.59150  0.59930  Biso   1.000  C
  H49      1.0000 0.71990  0.58740  0.52050  Biso   1.000  H
  C74      1.0000 0.81870  0.55950  0.68150  Biso   1.000  C
  H50      1.0000 0.89510  0.53750  0.66270  Biso   1.000  H
  C75      1.0000 0.80480  0.55922  0.80050  Biso   1.000  C
  C76      1.0000 0.72850  0.59770  0.81480  Biso   1.000  C
  H51      1.0000 0.73780  0.60630  0.89380  Biso   1.000  H
  C77      1.0000 0.62810  0.63140  0.73060  Biso   1.000  C
  H52      1.0000 0.56140  0.65670  0.75210  Biso   1.000  H
  C78      1.0000 0.78280  0.62580  0.66280  Biso   1.000  C
  H53      1.0000 0.84360  0.64850  0.62930  Biso   1.000  H
  C79      1.0000 0.85960  0.58960  0.75760  Biso   1.000  C
  H54      1.0000 0.97040  0.59220  0.78650  Biso   1.000  H
  C80      1.0000 0.62680  0.55710  0.75860  Biso   1.000  C
  H55      1.0000 0.57050  0.53350  0.79410  Biso   1.000  H
  C81      1.0000 0.55280  0.59000  0.66920  Biso   1.000  C
  H56      1.0000 0.44240  0.58690  0.63760  Biso   1.000  H
  C82      1.0000 0.85840  0.52530  0.91540  Biso   1.000  C
  C83      1.0000 0.94140  0.52450  0.88250  Biso   1.000  C
  C84      1.0000 0.25690  0.76548  0.44560  Biso   1.000  C
  O15      1.0000 0.85800  0.25010  0.40240  Biso   1.000  O
  O16      1.0000 0.83430  0.19460  0.58820  Biso   1.000  O
  N8       1.0000 0.12720  0.12753  0.62150  Biso   1.000  N
  C85      1.0000 0.22050  0.09150  0.59930  Biso   1.000  C
  H57      1.0000 0.21990  0.08740  0.52050  Biso   1.000  H
  C86      1.0000 0.31870  0.05950  0.68150  Biso   1.000  C
  H58      1.0000 0.39510  0.03750  0.66270  Biso   1.000  H
  C87      1.0000 0.30480  0.05922  0.80050  Biso   1.000  C
  C88      1.0000 0.22850  0.09770  0.81480  Biso   1.000  C
  H59      1.0000 0.23780  0.10630  0.89380  Biso   1.000  H
  C89      1.0000 0.12810  0.13140  0.73060  Biso   1.000  C
  H60      1.0000 0.06140  0.15670  0.75210  Biso   1.000  H
  C90      1.0000 0.28280  0.12580  0.66280  Biso   1.000  C
  H61      1.0000 0.34360  0.14850  0.62930  Biso   1.000  H
  C91      1.0000 0.35960  0.08960  0.75760  Biso   1.000  C
  H62      1.0000 0.47040  0.09220  0.78650  Biso   1.000  H
  C92      1.0000 0.12680  0.05710  0.75860  Biso   1.000  C
  H63      1.0000 0.07050  0.03350  0.79410  Biso   1.000  H
  C93      1.0000 0.05280  0.09000  0.66920  Biso   1.000  C
  H64      1.0000 0.94240  0.08690  0.63760  Biso   1.000  H
  C94      1.0000 0.35840  0.02530  0.91540  Biso   1.000  C
  C95      1.0000 0.44140  0.02450  0.88250  Biso   1.000  C
  C96      1.0000 0.75690  0.26548  0.44560  Biso   1.000  C
  Co1      1.0000 0.50000  0.31437  0.50000  Biso   1.000  Co
  Co2      1.0000 0.00000  0.81437  0.50000  Biso   1.000  Co
  Co3      1.0000 0.50000  0.68563  0.50000  Biso   1.000  Co
  Co4      1.0000 0.00000  0.18563  0.50000  Biso   1.000  Co
  C97      1.0000 0.00000  0.44030  0.00000  Biso   1.000  C
  C98      1.0000 0.50000  0.94030  0.00000  Biso   1.000  C
  C99      1.0000 0.00000  0.55970  0.00000  Biso   1.000  C
  C100     1.0000 0.50000  0.05970  0.00000  Biso   1.000  C
  O17      1.0000 0.74110  0.50000  0.96810  Biso   1.000  O
  O18      1.0000 0.06690  0.50000  0.84610  Biso   1.000  O
  O19      1.0000 0.24110  0.00000  0.96810  Biso   1.000  O
  O20      1.0000 0.56690  0.00000  0.84610  Biso   1.000  O
  O21      1.0000 0.25890  0.50000  0.03190  Biso   1.000  O
  O22      1.0000 0.93310  0.50000  0.15390  Biso   1.000  O
  O23      1.0000 0.75890  0.00000  0.03190  Biso   1.000  O
  O24      1.0000 0.43310  0.00000  0.15390  Biso   1.000  O
