data_image0
_cell_length_a       14.1407
_cell_length_b       18.2814
_cell_length_c       21.4596
_cell_angle_alpha    90
_cell_angle_beta     99.359
_cell_angle_gamma    90

_symmetry_space_group_name_H-M    "P 1"
_symmetry_int_tables_number       1

loop_
  _symmetry_equiv_pos_as_xyz
  'x, y, z'

loop_
  _atom_site_label
  _atom_site_occupancy
  _atom_site_fract_x
  _atom_site_fract_y
  _atom_site_fract_z
  _atom_site_thermal_displace_type
  _atom_site_B_iso_or_equiv
  _atom_site_type_symbol
  Cd1      1.0000 0.27337  0.23973  0.31166  Biso   1.000  Cd
  O1       1.0000 0.33430  0.26219  0.21752  Biso   1.000  O
  O2       1.0000 0.20780  0.19081  0.21333  Biso   1.000  O
  O3       1.0000 0.36870  0.31001  0.37690  Biso   1.000  O
  O4       1.0000 0.47790  0.34314  0.31689  Biso   1.000  O
  O5       1.0000 0.35870  0.13952  0.33488  Biso   1.000  O
  O6       1.0000 0.51010  0.16992  0.32848  Biso   1.000  O
  C1       1.0000 0.29760  0.27380  0.08399  Biso   1.000  C
  H1       1.0000 0.33850  0.30780  0.10650  Biso   1.000  H
  C2       1.0000 0.25490  0.22290  0.11570  Biso   1.000  C
  C3       1.0000 0.19360  0.16970  0.08162  Biso   1.000  C
  H2       1.0000 0.16470  0.13450  0.10350  Biso   1.000  H
  C4       1.0000 0.17690  0.17000  0.01730  Biso   1.000  C
  H3       1.0000 0.13750  0.13450  0.99570  Biso   1.000  H
  C5       1.0000 0.28110  0.27640  0.01672  Biso   1.000  C
  C6       1.0000 0.26700  0.22370  0.18656  Biso   1.000  C
  C7       1.0000 0.43250  0.41890  0.46369  Biso   1.000  C
  H4       1.0000 0.38550  0.38680  0.47250  Biso   1.000  H
  C8       1.0000 0.46930  0.41090  0.40889  Biso   1.000  C
  C9       1.0000 0.53900  0.46090  0.39501  Biso   1.000  C
  H5       1.0000 0.56360  0.45590  0.35760  Biso   1.000  H
  C10      1.0000 0.57110  0.51620  0.43540  Biso   1.000  C
  H6       1.0000 0.61690  0.54870  0.42520  Biso   1.000  H
  C11      1.0000 0.46500  0.47530  0.50716  Biso   1.000  C
  C12      1.0000 0.43670  0.34940  0.36390  Biso   1.000  C
  C13      1.0000 0.41970  0.04414  0.43274  Biso   1.000  C
  H7       1.0000 0.35570  0.04350  0.41390  Biso   1.000  H
  C14      1.0000 0.48310  0.08853  0.40869  Biso   1.000  C
  C15      1.0000 0.58030  0.08970  0.43626  Biso   1.000  C
  H8       1.0000 0.62310  0.11940  0.41940  Biso   1.000  H
  C16      1.0000 0.61210  0.04680  0.48820  Biso   1.000  C
  H9       1.0000 0.67640  0.04840  0.50640  Biso   1.000  H
  C17      1.0000 0.45090  0.99910  0.48612  Biso   1.000  C
  C18      1.0000 0.44740  0.13701  0.35232  Biso   1.000  C
  O7       1.0000 0.19480  0.20300  0.38810  Biso   1.000  O
  N1       1.0000 0.09520  0.27000  0.43840  Biso   1.000  N
  C19      1.0000 0.11070  0.22440  0.39460  Biso   1.000  C
  C20      1.0000 0.02400  0.18430  0.36220  Biso   1.000  C
  H10      1.0000 0.96810  0.20230  0.37730  Biso   1.000  H
  H11      1.0000 0.03120  0.13300  0.37110  Biso   1.000  H
  H12      1.0000 0.01710  0.19200  0.31750  Biso   1.000  H
  C21      1.0000 0.18060  0.30380  0.47680  Biso   1.000  C
  C22      1.0000 0.00720  0.29260  0.45830  Biso   1.000  C
  H13      1.0000 0.02110  0.32700  0.49240  Biso   1.000  H
  H14      1.0000 0.97550  0.25070  0.47230  Biso   1.000  H
  H15      1.0000 0.96620  0.31520  0.42350  Biso   1.000  H
  N2       1.0000 0.03680  0.28840  0.40110  Biso   1.000  N
  C23      1.0000 0.07430  0.24350  0.35940  Biso   1.000  C
  C24      1.0000 0.01990  0.23290  0.29730  Biso   1.000  C
  H16      1.0000 0.05480  0.20150  0.27330  Biso   1.000  H
  H17      1.0000 0.00930  0.27930  0.27640  Biso   1.000  H
  H18      1.0000 0.95940  0.21090  0.30080  Biso   1.000  H
  C25      1.0000 0.09030  0.29500  0.46330  Biso   1.000  C
  H19      1.0000 0.05710  0.32690  0.48800  Biso   1.000  H
  H20      1.0000 0.15250  0.31490  0.46100  Biso   1.000  H
  H21      1.0000 0.09740  0.24760  0.48290  Biso   1.000  H
  C26      1.0000 0.94390  0.32300  0.38030  Biso   1.000  C
  H22      1.0000 0.92690  0.35230  0.41390  Biso   1.000  H
  H23      1.0000 0.89610  0.28600  0.36880  Biso   1.000  H
  H24      1.0000 0.94770  0.35360  0.34440  Biso   1.000  H
  O8       1.0000 0.16280  0.21710  0.37490  Biso   1.000  O
  H25      1.0000 0.22080  0.26620  0.49830  Biso   1.000  H
  H26      1.0000 0.16060  0.33630  0.50730  Biso   1.000  H
  H27      1.0000 0.21580  0.33080  0.44970  Biso   1.000  H
  Cd2      1.0000 0.77337  0.73973  0.31166  Biso   1.000  Cd
  O9       1.0000 0.83430  0.76219  0.21752  Biso   1.000  O
  O10      1.0000 0.70780  0.69081  0.21333  Biso   1.000  O
  O11      1.0000 0.86870  0.81001  0.37690  Biso   1.000  O
  O12      1.0000 0.97790  0.84314  0.31689  Biso   1.000  O
  O13      1.0000 0.85870  0.63952  0.33488  Biso   1.000  O
  O14      1.0000 0.01010  0.66992  0.32848  Biso   1.000  O
  C27      1.0000 0.79760  0.77380  0.08399  Biso   1.000  C
  H28      1.0000 0.83850  0.80780  0.10650  Biso   1.000  H
  C28      1.0000 0.75490  0.72290  0.11570  Biso   1.000  C
  C29      1.0000 0.69360  0.66970  0.08162  Biso   1.000  C
  H29      1.0000 0.66470  0.63450  0.10350  Biso   1.000  H
  C30      1.0000 0.67690  0.67000  0.01730  Biso   1.000  C
  H30      1.0000 0.63750  0.63450  0.99570  Biso   1.000  H
  C31      1.0000 0.78110  0.77640  0.01672  Biso   1.000  C
  C32      1.0000 0.76700  0.72370  0.18656  Biso   1.000  C
  C33      1.0000 0.93250  0.91890  0.46369  Biso   1.000  C
  H31      1.0000 0.88550  0.88680  0.47250  Biso   1.000  H
  C34      1.0000 0.96930  0.91090  0.40889  Biso   1.000  C
  C35      1.0000 0.03900  0.96090  0.39501  Biso   1.000  C
  H32      1.0000 0.06360  0.95590  0.35760  Biso   1.000  H
  C36      1.0000 0.07110  0.01620  0.43540  Biso   1.000  C
  H33      1.0000 0.11690  0.04870  0.42520  Biso   1.000  H
  C37      1.0000 0.96500  0.97530  0.50716  Biso   1.000  C
  C38      1.0000 0.93670  0.84940  0.36390  Biso   1.000  C
  C39      1.0000 0.91970  0.54414  0.43274  Biso   1.000  C
  H34      1.0000 0.85570  0.54350  0.41390  Biso   1.000  H
  C40      1.0000 0.98310  0.58853  0.40869  Biso   1.000  C
  C41      1.0000 0.08030  0.58970  0.43626  Biso   1.000  C
  H35      1.0000 0.12310  0.61940  0.41940  Biso   1.000  H
  C42      1.0000 0.11210  0.54680  0.48820  Biso   1.000  C
  H36      1.0000 0.17640  0.54840  0.50640  Biso   1.000  H
  C43      1.0000 0.95090  0.49910  0.48612  Biso   1.000  C
  C44      1.0000 0.94740  0.63701  0.35232  Biso   1.000  C
  O15      1.0000 0.69480  0.70300  0.38810  Biso   1.000  O
  N3       1.0000 0.59520  0.77000  0.43840  Biso   1.000  N
  C45      1.0000 0.61070  0.72440  0.39460  Biso   1.000  C
  C46      1.0000 0.52400  0.68430  0.36220  Biso   1.000  C
  H37      1.0000 0.46810  0.70230  0.37730  Biso   1.000  H
  H38      1.0000 0.53120  0.63300  0.37110  Biso   1.000  H
  H39      1.0000 0.51710  0.69200  0.31750  Biso   1.000  H
  C47      1.0000 0.68060  0.80380  0.47680  Biso   1.000  C
  C48      1.0000 0.50720  0.79260  0.45830  Biso   1.000  C
  H40      1.0000 0.52110  0.82700  0.49240  Biso   1.000  H
  H41      1.0000 0.47550  0.75070  0.47230  Biso   1.000  H
  H42      1.0000 0.46620  0.81520  0.42350  Biso   1.000  H
  N4       1.0000 0.53680  0.78840  0.40110  Biso   1.000  N
  C49      1.0000 0.57430  0.74350  0.35940  Biso   1.000  C
  C50      1.0000 0.51990  0.73290  0.29730  Biso   1.000  C
  H43      1.0000 0.55480  0.70150  0.27330  Biso   1.000  H
  H44      1.0000 0.50930  0.77930  0.27640  Biso   1.000  H
  H45      1.0000 0.45940  0.71090  0.30080  Biso   1.000  H
  C51      1.0000 0.59030  0.79500  0.46330  Biso   1.000  C
  H46      1.0000 0.55710  0.82690  0.48800  Biso   1.000  H
  H47      1.0000 0.65250  0.81490  0.46100  Biso   1.000  H
  H48      1.0000 0.59740  0.74760  0.48290  Biso   1.000  H
  C52      1.0000 0.44390  0.82300  0.38030  Biso   1.000  C
  H49      1.0000 0.42690  0.85230  0.41390  Biso   1.000  H
  H50      1.0000 0.39610  0.78600  0.36880  Biso   1.000  H
  H51      1.0000 0.44770  0.85360  0.34440  Biso   1.000  H
  O16      1.0000 0.66280  0.71710  0.37490  Biso   1.000  O
  H52      1.0000 0.72080  0.76620  0.49830  Biso   1.000  H
  H53      1.0000 0.66060  0.83630  0.50730  Biso   1.000  H
  H54      1.0000 0.71580  0.83080  0.44970  Biso   1.000  H
  Cd3      1.0000 0.72663  0.23973  0.18834  Biso   1.000  Cd
  O17      1.0000 0.66570  0.26219  0.28248  Biso   1.000  O
  O18      1.0000 0.79220  0.19081  0.28667  Biso   1.000  O
  O19      1.0000 0.63130  0.31001  0.12310  Biso   1.000  O
  O20      1.0000 0.52210  0.34314  0.18311  Biso   1.000  O
  O21      1.0000 0.64130  0.13952  0.16512  Biso   1.000  O
  O22      1.0000 0.48990  0.16992  0.17152  Biso   1.000  O
  C53      1.0000 0.70240  0.27380  0.41601  Biso   1.000  C
  H55      1.0000 0.66150  0.30780  0.39350  Biso   1.000  H
  C54      1.0000 0.74510  0.22290  0.38430  Biso   1.000  C
  C55      1.0000 0.80640  0.16970  0.41838  Biso   1.000  C
  H56      1.0000 0.83530  0.13450  0.39650  Biso   1.000  H
  C56      1.0000 0.82310  0.17000  0.48270  Biso   1.000  C
  H57      1.0000 0.86250  0.13450  0.50430  Biso   1.000  H
  C57      1.0000 0.71890  0.27640  0.48328  Biso   1.000  C
  C58      1.0000 0.73300  0.22370  0.31344  Biso   1.000  C
  C59      1.0000 0.56750  0.41890  0.03631  Biso   1.000  C
  H58      1.0000 0.61450  0.38680  0.02750  Biso   1.000  H
  C60      1.0000 0.53070  0.41090  0.09111  Biso   1.000  C
  C61      1.0000 0.46100  0.46090  0.10499  Biso   1.000  C
  H59      1.0000 0.43640  0.45590  0.14240  Biso   1.000  H
  C62      1.0000 0.42890  0.51620  0.06460  Biso   1.000  C
  H60      1.0000 0.38310  0.54870  0.07480  Biso   1.000  H
  C63      1.0000 0.53500  0.47530  0.99284  Biso   1.000  C
  C64      1.0000 0.56330  0.34940  0.13610  Biso   1.000  C
  C65      1.0000 0.58030  0.04414  0.06726  Biso   1.000  C
  H61      1.0000 0.64430  0.04350  0.08610  Biso   1.000  H
  C66      1.0000 0.51690  0.08853  0.09131  Biso   1.000  C
  C67      1.0000 0.41970  0.08970  0.06374  Biso   1.000  C
  H62      1.0000 0.37690  0.11940  0.08060  Biso   1.000  H
  C68      1.0000 0.38790  0.04680  0.01180  Biso   1.000  C
  H63      1.0000 0.32360  0.04840  0.99360  Biso   1.000  H
  C69      1.0000 0.54910  0.99910  0.01388  Biso   1.000  C
  C70      1.0000 0.55260  0.13701  0.14768  Biso   1.000  C
  O23      1.0000 0.80520  0.20300  0.11190  Biso   1.000  O
  N5       1.0000 0.90480  0.27000  0.06160  Biso   1.000  N
  C71      1.0000 0.88930  0.22440  0.10540  Biso   1.000  C
  C72      1.0000 0.97600  0.18430  0.13780  Biso   1.000  C
  H64      1.0000 0.03190  0.20230  0.12270  Biso   1.000  H
  H65      1.0000 0.96880  0.13300  0.12890  Biso   1.000  H
  H66      1.0000 0.98290  0.19200  0.18250  Biso   1.000  H
  C73      1.0000 0.81940  0.30380  0.02320  Biso   1.000  C
  C74      1.0000 0.99280  0.29260  0.04170  Biso   1.000  C
  H67      1.0000 0.97890  0.32700  0.00760  Biso   1.000  H
  H68      1.0000 0.02450  0.25070  0.02770  Biso   1.000  H
  H69      1.0000 0.03380  0.31520  0.07650  Biso   1.000  H
  N6       1.0000 0.96320  0.28840  0.09890  Biso   1.000  N
  C75      1.0000 0.92570  0.24350  0.14060  Biso   1.000  C
  C76      1.0000 0.98010  0.23290  0.20270  Biso   1.000  C
  H70      1.0000 0.94520  0.20150  0.22670  Biso   1.000  H
  H71      1.0000 0.99070  0.27930  0.22360  Biso   1.000  H
  H72      1.0000 0.04060  0.21090  0.19920  Biso   1.000  H
  C77      1.0000 0.90970  0.29500  0.03670  Biso   1.000  C
  H73      1.0000 0.94290  0.32690  0.01200  Biso   1.000  H
  H74      1.0000 0.84750  0.31490  0.03900  Biso   1.000  H
  H75      1.0000 0.90260  0.24760  0.01710  Biso   1.000  H
  C78      1.0000 0.05610  0.32300  0.11970  Biso   1.000  C
  H76      1.0000 0.07310  0.35230  0.08610  Biso   1.000  H
  H77      1.0000 0.10390  0.28600  0.13120  Biso   1.000  H
  H78      1.0000 0.05230  0.35360  0.15560  Biso   1.000  H
  O24      1.0000 0.83720  0.21710  0.12510  Biso   1.000  O
  H79      1.0000 0.77920  0.26620  0.00170  Biso   1.000  H
  H80      1.0000 0.83940  0.33630  0.99270  Biso   1.000  H
  H81      1.0000 0.78420  0.33080  0.05030  Biso   1.000  H
  Cd4      1.0000 0.22663  0.73973  0.18834  Biso   1.000  Cd
  O25      1.0000 0.16570  0.76219  0.28248  Biso   1.000  O
  O26      1.0000 0.29220  0.69081  0.28667  Biso   1.000  O
  O27      1.0000 0.13130  0.81001  0.12310  Biso   1.000  O
  O28      1.0000 0.02210  0.84314  0.18311  Biso   1.000  O
  O29      1.0000 0.14130  0.63952  0.16512  Biso   1.000  O
  O30      1.0000 0.98990  0.66992  0.17152  Biso   1.000  O
  C79      1.0000 0.20240  0.77380  0.41601  Biso   1.000  C
  H82      1.0000 0.16150  0.80780  0.39350  Biso   1.000  H
  C80      1.0000 0.24510  0.72290  0.38430  Biso   1.000  C
  C81      1.0000 0.30640  0.66970  0.41838  Biso   1.000  C
  H83      1.0000 0.33530  0.63450  0.39650  Biso   1.000  H
  C82      1.0000 0.32310  0.67000  0.48270  Biso   1.000  C
  H84      1.0000 0.36250  0.63450  0.50430  Biso   1.000  H
  C83      1.0000 0.21890  0.77640  0.48328  Biso   1.000  C
  C84      1.0000 0.23300  0.72370  0.31344  Biso   1.000  C
  C85      1.0000 0.06750  0.91890  0.03631  Biso   1.000  C
  H85      1.0000 0.11450  0.88680  0.02750  Biso   1.000  H
  C86      1.0000 0.03070  0.91090  0.09111  Biso   1.000  C
  C87      1.0000 0.96100  0.96090  0.10499  Biso   1.000  C
  H86      1.0000 0.93640  0.95590  0.14240  Biso   1.000  H
  C88      1.0000 0.92890  0.01620  0.06460  Biso   1.000  C
  H87      1.0000 0.88310  0.04870  0.07480  Biso   1.000  H
  C89      1.0000 0.03500  0.97530  0.99284  Biso   1.000  C
  C90      1.0000 0.06330  0.84940  0.13610  Biso   1.000  C
  C91      1.0000 0.08030  0.54414  0.06726  Biso   1.000  C
  H88      1.0000 0.14430  0.54350  0.08610  Biso   1.000  H
  C92      1.0000 0.01690  0.58853  0.09131  Biso   1.000  C
  C93      1.0000 0.91970  0.58970  0.06374  Biso   1.000  C
  H89      1.0000 0.87690  0.61940  0.08060  Biso   1.000  H
  C94      1.0000 0.88790  0.54680  0.01180  Biso   1.000  C
  H90      1.0000 0.82360  0.54840  0.99360  Biso   1.000  H
  C95      1.0000 0.04910  0.49910  0.01388  Biso   1.000  C
  C96      1.0000 0.05260  0.63701  0.14768  Biso   1.000  C
  O31      1.0000 0.30520  0.70300  0.11190  Biso   1.000  O
  N7       1.0000 0.40480  0.77000  0.06160  Biso   1.000  N
  C97      1.0000 0.38930  0.72440  0.10540  Biso   1.000  C
  C98      1.0000 0.47600  0.68430  0.13780  Biso   1.000  C
  H91      1.0000 0.53190  0.70230  0.12270  Biso   1.000  H
  H92      1.0000 0.46880  0.63300  0.12890  Biso   1.000  H
  H93      1.0000 0.48290  0.69200  0.18250  Biso   1.000  H
  C99      1.0000 0.31940  0.80380  0.02320  Biso   1.000  C
  C100     1.0000 0.49280  0.79260  0.04170  Biso   1.000  C
  H94      1.0000 0.47890  0.82700  0.00760  Biso   1.000  H
  H95      1.0000 0.52450  0.75070  0.02770  Biso   1.000  H
  H96      1.0000 0.53380  0.81520  0.07650  Biso   1.000  H
  N8       1.0000 0.46320  0.78840  0.09890  Biso   1.000  N
  C101     1.0000 0.42570  0.74350  0.14060  Biso   1.000  C
  C102     1.0000 0.48010  0.73290  0.20270  Biso   1.000  C
  H97      1.0000 0.44520  0.70150  0.22670  Biso   1.000  H
  H98      1.0000 0.49070  0.77930  0.22360  Biso   1.000  H
  H99      1.0000 0.54060  0.71090  0.19920  Biso   1.000  H
  C103     1.0000 0.40970  0.79500  0.03670  Biso   1.000  C
  H100     1.0000 0.44290  0.82690  0.01200  Biso   1.000  H
  H101     1.0000 0.34750  0.81490  0.03900  Biso   1.000  H
  H102     1.0000 0.40260  0.74760  0.01710  Biso   1.000  H
  C104     1.0000 0.55610  0.82300  0.11970  Biso   1.000  C
  H103     1.0000 0.57310  0.85230  0.08610  Biso   1.000  H
  H104     1.0000 0.60390  0.78600  0.13120  Biso   1.000  H
  H105     1.0000 0.55230  0.85360  0.15560  Biso   1.000  H
  O32      1.0000 0.33720  0.71710  0.12510  Biso   1.000  O
  H106     1.0000 0.27920  0.76620  0.00170  Biso   1.000  H
  H107     1.0000 0.33940  0.83630  0.99270  Biso   1.000  H
  H108     1.0000 0.28420  0.83080  0.05030  Biso   1.000  H
  Cd5      1.0000 0.72663  0.76027  0.68834  Biso   1.000  Cd
  O33      1.0000 0.66570  0.73781  0.78248  Biso   1.000  O
  O34      1.0000 0.79220  0.80919  0.78667  Biso   1.000  O
  O35      1.0000 0.63130  0.68999  0.62310  Biso   1.000  O
  O36      1.0000 0.52210  0.65686  0.68311  Biso   1.000  O
  O37      1.0000 0.64130  0.86048  0.66512  Biso   1.000  O
  O38      1.0000 0.48990  0.83008  0.67152  Biso   1.000  O
  C105     1.0000 0.70240  0.72620  0.91601  Biso   1.000  C
  H109     1.0000 0.66150  0.69220  0.89350  Biso   1.000  H
  C106     1.0000 0.74510  0.77710  0.88430  Biso   1.000  C
  C107     1.0000 0.80640  0.83030  0.91838  Biso   1.000  C
  H110     1.0000 0.83530  0.86550  0.89650  Biso   1.000  H
  C108     1.0000 0.82310  0.83000  0.98270  Biso   1.000  C
  H111     1.0000 0.86250  0.86550  0.00430  Biso   1.000  H
  C109     1.0000 0.71890  0.72360  0.98328  Biso   1.000  C
  C110     1.0000 0.73300  0.77630  0.81344  Biso   1.000  C
  C111     1.0000 0.56750  0.58110  0.53631  Biso   1.000  C
  H112     1.0000 0.61450  0.61320  0.52750  Biso   1.000  H
  C112     1.0000 0.53070  0.58910  0.59111  Biso   1.000  C
  C113     1.0000 0.46100  0.53910  0.60499  Biso   1.000  C
  H113     1.0000 0.43640  0.54410  0.64240  Biso   1.000  H
  C114     1.0000 0.42890  0.48380  0.56460  Biso   1.000  C
  H114     1.0000 0.38310  0.45130  0.57480  Biso   1.000  H
  C115     1.0000 0.53500  0.52470  0.49284  Biso   1.000  C
  C116     1.0000 0.56330  0.65060  0.63610  Biso   1.000  C
  C117     1.0000 0.58030  0.95586  0.56726  Biso   1.000  C
  H115     1.0000 0.64430  0.95650  0.58610  Biso   1.000  H
  C118     1.0000 0.51690  0.91147  0.59131  Biso   1.000  C
  C119     1.0000 0.41970  0.91030  0.56374  Biso   1.000  C
  H116     1.0000 0.37690  0.88060  0.58060  Biso   1.000  H
  C120     1.0000 0.38790  0.95320  0.51180  Biso   1.000  C
  H117     1.0000 0.32360  0.95160  0.49360  Biso   1.000  H
  C121     1.0000 0.54910  0.00090  0.51388  Biso   1.000  C
  C122     1.0000 0.55260  0.86299  0.64768  Biso   1.000  C
  O39      1.0000 0.80520  0.79700  0.61190  Biso   1.000  O
  N9       1.0000 0.90480  0.73000  0.56160  Biso   1.000  N
  C123     1.0000 0.88930  0.77560  0.60540  Biso   1.000  C
  C124     1.0000 0.97600  0.81570  0.63780  Biso   1.000  C
  H118     1.0000 0.03190  0.79770  0.62270  Biso   1.000  H
  H119     1.0000 0.96880  0.86700  0.62890  Biso   1.000  H
  H120     1.0000 0.98290  0.80800  0.68250  Biso   1.000  H
  C125     1.0000 0.81940  0.69620  0.52320  Biso   1.000  C
  C126     1.0000 0.99280  0.70740  0.54170  Biso   1.000  C
  H121     1.0000 0.97890  0.67300  0.50760  Biso   1.000  H
  H122     1.0000 0.02450  0.74930  0.52770  Biso   1.000  H
  H123     1.0000 0.03380  0.68480  0.57650  Biso   1.000  H
  N10      1.0000 0.96320  0.71160  0.59890  Biso   1.000  N
  C127     1.0000 0.92570  0.75650  0.64060  Biso   1.000  C
  C128     1.0000 0.98010  0.76710  0.70270  Biso   1.000  C
  H124     1.0000 0.94520  0.79850  0.72670  Biso   1.000  H
  H125     1.0000 0.99070  0.72070  0.72360  Biso   1.000  H
  H126     1.0000 0.04060  0.78910  0.69920  Biso   1.000  H
  C129     1.0000 0.90970  0.70500  0.53670  Biso   1.000  C
  H127     1.0000 0.94290  0.67310  0.51200  Biso   1.000  H
  H128     1.0000 0.84750  0.68510  0.53900  Biso   1.000  H
  H129     1.0000 0.90260  0.75240  0.51710  Biso   1.000  H
  C130     1.0000 0.05610  0.67700  0.61970  Biso   1.000  C
  H130     1.0000 0.07310  0.64770  0.58610  Biso   1.000  H
  H131     1.0000 0.10390  0.71400  0.63120  Biso   1.000  H
  H132     1.0000 0.05230  0.64640  0.65560  Biso   1.000  H
  O40      1.0000 0.83720  0.78290  0.62510  Biso   1.000  O
  H133     1.0000 0.77920  0.73380  0.50170  Biso   1.000  H
  H134     1.0000 0.83940  0.66370  0.49270  Biso   1.000  H
  H135     1.0000 0.78420  0.66920  0.55030  Biso   1.000  H
  Cd6      1.0000 0.22663  0.26027  0.68834  Biso   1.000  Cd
  O41      1.0000 0.16570  0.23781  0.78248  Biso   1.000  O
  O42      1.0000 0.29220  0.30919  0.78667  Biso   1.000  O
  O43      1.0000 0.13130  0.18999  0.62310  Biso   1.000  O
  O44      1.0000 0.02210  0.15686  0.68311  Biso   1.000  O
  O45      1.0000 0.14130  0.36048  0.66512  Biso   1.000  O
  O46      1.0000 0.98990  0.33008  0.67152  Biso   1.000  O
  C131     1.0000 0.20240  0.22620  0.91601  Biso   1.000  C
  H136     1.0000 0.16150  0.19220  0.89350  Biso   1.000  H
  C132     1.0000 0.24510  0.27710  0.88430  Biso   1.000  C
  C133     1.0000 0.30640  0.33030  0.91838  Biso   1.000  C
  H137     1.0000 0.33530  0.36550  0.89650  Biso   1.000  H
  C134     1.0000 0.32310  0.33000  0.98270  Biso   1.000  C
  H138     1.0000 0.36250  0.36550  0.00430  Biso   1.000  H
  C135     1.0000 0.21890  0.22360  0.98328  Biso   1.000  C
  C136     1.0000 0.23300  0.27630  0.81344  Biso   1.000  C
  C137     1.0000 0.06750  0.08110  0.53631  Biso   1.000  C
  H139     1.0000 0.11450  0.11320  0.52750  Biso   1.000  H
  C138     1.0000 0.03070  0.08910  0.59111  Biso   1.000  C
  C139     1.0000 0.96100  0.03910  0.60499  Biso   1.000  C
  H140     1.0000 0.93640  0.04410  0.64240  Biso   1.000  H
  C140     1.0000 0.92890  0.98380  0.56460  Biso   1.000  C
  H141     1.0000 0.88310  0.95130  0.57480  Biso   1.000  H
  C141     1.0000 0.03500  0.02470  0.49284  Biso   1.000  C
  C142     1.0000 0.06330  0.15060  0.63610  Biso   1.000  C
  C143     1.0000 0.08030  0.45586  0.56726  Biso   1.000  C
  H142     1.0000 0.14430  0.45650  0.58610  Biso   1.000  H
  C144     1.0000 0.01690  0.41147  0.59131  Biso   1.000  C
  C145     1.0000 0.91970  0.41030  0.56374  Biso   1.000  C
  H143     1.0000 0.87690  0.38060  0.58060  Biso   1.000  H
  C146     1.0000 0.88790  0.45320  0.51180  Biso   1.000  C
  H144     1.0000 0.82360  0.45160  0.49360  Biso   1.000  H
  C147     1.0000 0.04910  0.50090  0.51388  Biso   1.000  C
  C148     1.0000 0.05260  0.36299  0.64768  Biso   1.000  C
  O47      1.0000 0.30520  0.29700  0.61190  Biso   1.000  O
  N11      1.0000 0.40480  0.23000  0.56160  Biso   1.000  N
  C149     1.0000 0.38930  0.27560  0.60540  Biso   1.000  C
  C150     1.0000 0.47600  0.31570  0.63780  Biso   1.000  C
  H145     1.0000 0.53190  0.29770  0.62270  Biso   1.000  H
  H146     1.0000 0.46880  0.36700  0.62890  Biso   1.000  H
  H147     1.0000 0.48290  0.30800  0.68250  Biso   1.000  H
  C151     1.0000 0.31940  0.19620  0.52320  Biso   1.000  C
  C152     1.0000 0.49280  0.20740  0.54170  Biso   1.000  C
  H148     1.0000 0.47890  0.17300  0.50760  Biso   1.000  H
  H149     1.0000 0.52450  0.24930  0.52770  Biso   1.000  H
  H150     1.0000 0.53380  0.18480  0.57650  Biso   1.000  H
  N12      1.0000 0.46320  0.21160  0.59890  Biso   1.000  N
  C153     1.0000 0.42570  0.25650  0.64060  Biso   1.000  C
  C154     1.0000 0.48010  0.26710  0.70270  Biso   1.000  C
  H151     1.0000 0.44520  0.29850  0.72670  Biso   1.000  H
  H152     1.0000 0.49070  0.22070  0.72360  Biso   1.000  H
  H153     1.0000 0.54060  0.28910  0.69920  Biso   1.000  H
  C155     1.0000 0.40970  0.20500  0.53670  Biso   1.000  C
  H154     1.0000 0.44290  0.17310  0.51200  Biso   1.000  H
  H155     1.0000 0.34750  0.18510  0.53900  Biso   1.000  H
  H156     1.0000 0.40260  0.25240  0.51710  Biso   1.000  H
  C156     1.0000 0.55610  0.17700  0.61970  Biso   1.000  C
  H157     1.0000 0.57310  0.14770  0.58610  Biso   1.000  H
  H158     1.0000 0.60390  0.21400  0.63120  Biso   1.000  H
  H159     1.0000 0.55230  0.14640  0.65560  Biso   1.000  H
  O48      1.0000 0.33720  0.28290  0.62510  Biso   1.000  O
  H160     1.0000 0.27920  0.23380  0.50170  Biso   1.000  H
  H161     1.0000 0.33940  0.16370  0.49270  Biso   1.000  H
  H162     1.0000 0.28420  0.16920  0.55030  Biso   1.000  H
  Cd7      1.0000 0.27337  0.76027  0.81166  Biso   1.000  Cd
  O49      1.0000 0.33430  0.73781  0.71752  Biso   1.000  O
  O50      1.0000 0.20780  0.80919  0.71333  Biso   1.000  O
  O51      1.0000 0.36870  0.68999  0.87690  Biso   1.000  O
  O52      1.0000 0.47790  0.65686  0.81689  Biso   1.000  O
  O53      1.0000 0.35870  0.86048  0.83488  Biso   1.000  O
  O54      1.0000 0.51010  0.83008  0.82848  Biso   1.000  O
  C157     1.0000 0.29760  0.72620  0.58399  Biso   1.000  C
  H163     1.0000 0.33850  0.69220  0.60650  Biso   1.000  H
  C158     1.0000 0.25490  0.77710  0.61570  Biso   1.000  C
  C159     1.0000 0.19360  0.83030  0.58162  Biso   1.000  C
  H164     1.0000 0.16470  0.86550  0.60350  Biso   1.000  H
  C160     1.0000 0.17690  0.83000  0.51730  Biso   1.000  C
  H165     1.0000 0.13750  0.86550  0.49570  Biso   1.000  H
  C161     1.0000 0.28110  0.72360  0.51672  Biso   1.000  C
  C162     1.0000 0.26700  0.77630  0.68656  Biso   1.000  C
  C163     1.0000 0.43250  0.58110  0.96369  Biso   1.000  C
  H166     1.0000 0.38550  0.61320  0.97250  Biso   1.000  H
  C164     1.0000 0.46930  0.58910  0.90889  Biso   1.000  C
  C165     1.0000 0.53900  0.53910  0.89501  Biso   1.000  C
  H167     1.0000 0.56360  0.54410  0.85760  Biso   1.000  H
  C166     1.0000 0.57110  0.48380  0.93540  Biso   1.000  C
  H168     1.0000 0.61690  0.45130  0.92520  Biso   1.000  H
  C167     1.0000 0.46500  0.52470  0.00716  Biso   1.000  C
  C168     1.0000 0.43670  0.65060  0.86390  Biso   1.000  C
  C169     1.0000 0.41970  0.95586  0.93274  Biso   1.000  C
  H169     1.0000 0.35570  0.95650  0.91390  Biso   1.000  H
  C170     1.0000 0.48310  0.91147  0.90869  Biso   1.000  C
  C171     1.0000 0.58030  0.91030  0.93626  Biso   1.000  C
  H170     1.0000 0.62310  0.88060  0.91940  Biso   1.000  H
  C172     1.0000 0.61210  0.95320  0.98820  Biso   1.000  C
  H171     1.0000 0.67640  0.95160  0.00640  Biso   1.000  H
  C173     1.0000 0.45090  0.00090  0.98612  Biso   1.000  C
  C174     1.0000 0.44740  0.86299  0.85232  Biso   1.000  C
  O55      1.0000 0.19480  0.79700  0.88810  Biso   1.000  O
  N13      1.0000 0.09520  0.73000  0.93840  Biso   1.000  N
  C175     1.0000 0.11070  0.77560  0.89460  Biso   1.000  C
  C176     1.0000 0.02400  0.81570  0.86220  Biso   1.000  C
  H172     1.0000 0.96810  0.79770  0.87730  Biso   1.000  H
  H173     1.0000 0.03120  0.86700  0.87110  Biso   1.000  H
  H174     1.0000 0.01710  0.80800  0.81750  Biso   1.000  H
  C177     1.0000 0.18060  0.69620  0.97680  Biso   1.000  C
  C178     1.0000 0.00720  0.70740  0.95830  Biso   1.000  C
  H175     1.0000 0.02110  0.67300  0.99240  Biso   1.000  H
  H176     1.0000 0.97550  0.74930  0.97230  Biso   1.000  H
  H177     1.0000 0.96620  0.68480  0.92350  Biso   1.000  H
  N14      1.0000 0.03680  0.71160  0.90110  Biso   1.000  N
  C179     1.0000 0.07430  0.75650  0.85940  Biso   1.000  C
  C180     1.0000 0.01990  0.76710  0.79730  Biso   1.000  C
  H178     1.0000 0.05480  0.79850  0.77330  Biso   1.000  H
  H179     1.0000 0.00930  0.72070  0.77640  Biso   1.000  H
  H180     1.0000 0.95940  0.78910  0.80080  Biso   1.000  H
  C181     1.0000 0.09030  0.70500  0.96330  Biso   1.000  C
  H181     1.0000 0.05710  0.67310  0.98800  Biso   1.000  H
  H182     1.0000 0.15250  0.68510  0.96100  Biso   1.000  H
  H183     1.0000 0.09740  0.75240  0.98290  Biso   1.000  H
  C182     1.0000 0.94390  0.67700  0.88030  Biso   1.000  C
  H184     1.0000 0.92690  0.64770  0.91390  Biso   1.000  H
  H185     1.0000 0.89610  0.71400  0.86880  Biso   1.000  H
  H186     1.0000 0.94770  0.64640  0.84440  Biso   1.000  H
  O56      1.0000 0.16280  0.78290  0.87490  Biso   1.000  O
  H187     1.0000 0.22080  0.73380  0.99830  Biso   1.000  H
  H188     1.0000 0.16060  0.66370  0.00730  Biso   1.000  H
  H189     1.0000 0.21580  0.66920  0.94970  Biso   1.000  H
  Cd8      1.0000 0.77337  0.26027  0.81166  Biso   1.000  Cd
  O57      1.0000 0.83430  0.23781  0.71752  Biso   1.000  O
  O58      1.0000 0.70780  0.30919  0.71333  Biso   1.000  O
  O59      1.0000 0.86870  0.18999  0.87690  Biso   1.000  O
  O60      1.0000 0.97790  0.15686  0.81689  Biso   1.000  O
  O61      1.0000 0.85870  0.36048  0.83488  Biso   1.000  O
  O62      1.0000 0.01010  0.33008  0.82848  Biso   1.000  O
  C183     1.0000 0.79760  0.22620  0.58399  Biso   1.000  C
  H190     1.0000 0.83850  0.19220  0.60650  Biso   1.000  H
  C184     1.0000 0.75490  0.27710  0.61570  Biso   1.000  C
  C185     1.0000 0.69360  0.33030  0.58162  Biso   1.000  C
  H191     1.0000 0.66470  0.36550  0.60350  Biso   1.000  H
  C186     1.0000 0.67690  0.33000  0.51730  Biso   1.000  C
  H192     1.0000 0.63750  0.36550  0.49570  Biso   1.000  H
  C187     1.0000 0.78110  0.22360  0.51672  Biso   1.000  C
  C188     1.0000 0.76700  0.27630  0.68656  Biso   1.000  C
  C189     1.0000 0.93250  0.08110  0.96369  Biso   1.000  C
  H193     1.0000 0.88550  0.11320  0.97250  Biso   1.000  H
  C190     1.0000 0.96930  0.08910  0.90889  Biso   1.000  C
  C191     1.0000 0.03900  0.03910  0.89501  Biso   1.000  C
  H194     1.0000 0.06360  0.04410  0.85760  Biso   1.000  H
  C192     1.0000 0.07110  0.98380  0.93540  Biso   1.000  C
  H195     1.0000 0.11690  0.95130  0.92520  Biso   1.000  H
  C193     1.0000 0.96500  0.02470  0.00716  Biso   1.000  C
  C194     1.0000 0.93670  0.15060  0.86390  Biso   1.000  C
  C195     1.0000 0.91970  0.45586  0.93274  Biso   1.000  C
  H196     1.0000 0.85570  0.45650  0.91390  Biso   1.000  H
  C196     1.0000 0.98310  0.41147  0.90869  Biso   1.000  C
  C197     1.0000 0.08030  0.41030  0.93626  Biso   1.000  C
  H197     1.0000 0.12310  0.38060  0.91940  Biso   1.000  H
  C198     1.0000 0.11210  0.45320  0.98820  Biso   1.000  C
  H198     1.0000 0.17640  0.45160  0.00640  Biso   1.000  H
  C199     1.0000 0.95090  0.50090  0.98612  Biso   1.000  C
  C200     1.0000 0.94740  0.36299  0.85232  Biso   1.000  C
  O63      1.0000 0.69480  0.29700  0.88810  Biso   1.000  O
  N15      1.0000 0.59520  0.23000  0.93840  Biso   1.000  N
  C201     1.0000 0.61070  0.27560  0.89460  Biso   1.000  C
  C202     1.0000 0.52400  0.31570  0.86220  Biso   1.000  C
  H199     1.0000 0.46810  0.29770  0.87730  Biso   1.000  H
  H200     1.0000 0.53120  0.36700  0.87110  Biso   1.000  H
  H201     1.0000 0.51710  0.30800  0.81750  Biso   1.000  H
  C203     1.0000 0.68060  0.19620  0.97680  Biso   1.000  C
  C204     1.0000 0.50720  0.20740  0.95830  Biso   1.000  C
  H202     1.0000 0.52110  0.17300  0.99240  Biso   1.000  H
  H203     1.0000 0.47550  0.24930  0.97230  Biso   1.000  H
  H204     1.0000 0.46620  0.18480  0.92350  Biso   1.000  H
  N16      1.0000 0.53680  0.21160  0.90110  Biso   1.000  N
  C205     1.0000 0.57430  0.25650  0.85940  Biso   1.000  C
  C206     1.0000 0.51990  0.26710  0.79730  Biso   1.000  C
  H205     1.0000 0.55480  0.29850  0.77330  Biso   1.000  H
  H206     1.0000 0.50930  0.22070  0.77640  Biso   1.000  H
  H207     1.0000 0.45940  0.28910  0.80080  Biso   1.000  H
  C207     1.0000 0.59030  0.20500  0.96330  Biso   1.000  C
  H208     1.0000 0.55710  0.17310  0.98800  Biso   1.000  H
  H209     1.0000 0.65250  0.18510  0.96100  Biso   1.000  H
  H210     1.0000 0.59740  0.25240  0.98290  Biso   1.000  H
  C208     1.0000 0.44390  0.17700  0.88030  Biso   1.000  C
  H211     1.0000 0.42690  0.14770  0.91390  Biso   1.000  H
  H212     1.0000 0.39610  0.21400  0.86880  Biso   1.000  H
  H213     1.0000 0.44770  0.14640  0.84440  Biso   1.000  H
  O64      1.0000 0.66280  0.28290  0.87490  Biso   1.000  O
  H214     1.0000 0.72080  0.23380  0.99830  Biso   1.000  H
  H215     1.0000 0.66060  0.16370  0.00730  Biso   1.000  H
  H216     1.0000 0.71580  0.16920  0.94970  Biso   1.000  H
  Cd9      1.0000 0.50000  0.25229  0.25000  Biso   1.000  Cd
  Cd10     1.0000 0.00000  0.75229  0.25000  Biso   1.000  Cd
  Cd11     1.0000 0.50000  0.74771  0.75000  Biso   1.000  Cd
  Cd12     1.0000 0.00000  0.24771  0.75000  Biso   1.000  Cd
