data_image0
_cell_length_a       16.7913
_cell_length_b       16.7913
_cell_length_c       20.6558
_cell_angle_alpha    90
_cell_angle_beta     90
_cell_angle_gamma    120

_symmetry_space_group_name_H-M    "P 1"
_symmetry_int_tables_number       1

loop_
  _symmetry_equiv_pos_as_xyz
  'x, y, z'

loop_
  _atom_site_label
  _atom_site_occupancy
  _atom_site_fract_x
  _atom_site_fract_y
  _atom_site_fract_z
  _atom_site_thermal_displace_type
  _atom_site_B_iso_or_equiv
  _atom_site_type_symbol
  O1       1.0000 0.52369  0.17870  0.18089  Biso   1.000  O
  C1       1.0000 0.56470  0.09460  0.10090  Biso   1.000  C
  C2       1.0000 0.48830  0.06760  0.06610  Biso   1.000  C
  C3       1.0000 0.46400  0.00200  0.01300  Biso   1.000  C
  C4       1.0000 0.61510  0.01470  0.02870  Biso   1.000  C
  C5       1.0000 0.62640  0.06560  0.08270  Biso   1.000  C
  H1       1.0000 0.65520  0.99280  0.01470  Biso   1.000  H
  H2       1.0000 0.67980  0.08500  0.10930  Biso   1.000  H
  H3       1.0000 0.44520  0.08600  0.07980  Biso   1.000  H
  O2       1.0000 0.82130  0.34499  0.18089  Biso   1.000  O
  C6       1.0000 0.90540  0.47010  0.10090  Biso   1.000  C
  C7       1.0000 0.93240  0.42070  0.06610  Biso   1.000  C
  C8       1.0000 0.99800  0.46200  0.01300  Biso   1.000  C
  C9       1.0000 0.98530  0.60040  0.02870  Biso   1.000  C
  C10      1.0000 0.93440  0.56080  0.08270  Biso   1.000  C
  H4       1.0000 0.00720  0.66240  0.01470  Biso   1.000  H
  H5       1.0000 0.91500  0.59480  0.10930  Biso   1.000  H
  H6       1.0000 0.91400  0.35920  0.07980  Biso   1.000  H
  O3       1.0000 0.65501  0.47631  0.18089  Biso   1.000  O
  C11      1.0000 0.52990  0.43530  0.10090  Biso   1.000  C
  C12      1.0000 0.57930  0.51170  0.06610  Biso   1.000  C
  C13      1.0000 0.53800  0.53600  0.01300  Biso   1.000  C
  C14      1.0000 0.39960  0.38490  0.02870  Biso   1.000  C
  C15      1.0000 0.43920  0.37360  0.08270  Biso   1.000  C
  H7       1.0000 0.33760  0.34480  0.01470  Biso   1.000  H
  H8       1.0000 0.40520  0.32020  0.10930  Biso   1.000  H
  H9       1.0000 0.64080  0.55480  0.07980  Biso   1.000  H
  O4       1.0000 0.47631  0.82130  0.68089  Biso   1.000  O
  C16      1.0000 0.43530  0.90540  0.60090  Biso   1.000  C
  C17      1.0000 0.51170  0.93240  0.56610  Biso   1.000  C
  C18      1.0000 0.53600  0.99800  0.51300  Biso   1.000  C
  C19      1.0000 0.38490  0.98530  0.52870  Biso   1.000  C
  C20      1.0000 0.37360  0.93440  0.58270  Biso   1.000  C
  H10      1.0000 0.34480  0.00720  0.51470  Biso   1.000  H
  H11      1.0000 0.32020  0.91500  0.60930  Biso   1.000  H
  H12      1.0000 0.55480  0.91400  0.57980  Biso   1.000  H
  O5       1.0000 0.17870  0.65501  0.68089  Biso   1.000  O
  C21      1.0000 0.09460  0.52990  0.60090  Biso   1.000  C
  C22      1.0000 0.06760  0.57930  0.56610  Biso   1.000  C
  C23      1.0000 0.00200  0.53800  0.51300  Biso   1.000  C
  C24      1.0000 0.01470  0.39960  0.52870  Biso   1.000  C
  C25      1.0000 0.06560  0.43920  0.58270  Biso   1.000  C
  H13      1.0000 0.99280  0.33760  0.51470  Biso   1.000  H
  H14      1.0000 0.08500  0.40520  0.60930  Biso   1.000  H
  H15      1.0000 0.08600  0.64080  0.57980  Biso   1.000  H
  O6       1.0000 0.34499  0.52369  0.68089  Biso   1.000  O
  C26      1.0000 0.47010  0.56470  0.60090  Biso   1.000  C
  C27      1.0000 0.42070  0.48830  0.56610  Biso   1.000  C
  C28      1.0000 0.46200  0.46400  0.51300  Biso   1.000  C
  C29      1.0000 0.60040  0.61510  0.52870  Biso   1.000  C
  C30      1.0000 0.56080  0.62640  0.58270  Biso   1.000  C
  H16      1.0000 0.66240  0.65520  0.51470  Biso   1.000  H
  H17      1.0000 0.59480  0.67980  0.60930  Biso   1.000  H
  H18      1.0000 0.35920  0.44520  0.57980  Biso   1.000  H
  O7       1.0000 0.17870  0.52369  0.81911  Biso   1.000  O
  C31      1.0000 0.09460  0.56470  0.89910  Biso   1.000  C
  C32      1.0000 0.06760  0.48830  0.93390  Biso   1.000  C
  C33      1.0000 0.00200  0.46400  0.98700  Biso   1.000  C
  C34      1.0000 0.01470  0.61510  0.97130  Biso   1.000  C
  C35      1.0000 0.06560  0.62640  0.91730  Biso   1.000  C
  H19      1.0000 0.99280  0.65520  0.98530  Biso   1.000  H
  H20      1.0000 0.08500  0.67980  0.89070  Biso   1.000  H
  H21      1.0000 0.08600  0.44520  0.92020  Biso   1.000  H
  O8       1.0000 0.34499  0.82130  0.81911  Biso   1.000  O
  C36      1.0000 0.47010  0.90540  0.89910  Biso   1.000  C
  C37      1.0000 0.42070  0.93240  0.93390  Biso   1.000  C
  C38      1.0000 0.46200  0.99800  0.98700  Biso   1.000  C
  C39      1.0000 0.60040  0.98530  0.97130  Biso   1.000  C
  C40      1.0000 0.56080  0.93440  0.91730  Biso   1.000  C
  H22      1.0000 0.66240  0.00720  0.98530  Biso   1.000  H
  H23      1.0000 0.59480  0.91500  0.89070  Biso   1.000  H
  H24      1.0000 0.35920  0.91400  0.92020  Biso   1.000  H
  O9       1.0000 0.47631  0.65501  0.81911  Biso   1.000  O
  C41      1.0000 0.43530  0.52990  0.89910  Biso   1.000  C
  C42      1.0000 0.51170  0.57930  0.93390  Biso   1.000  C
  C43      1.0000 0.53600  0.53800  0.98700  Biso   1.000  C
  C44      1.0000 0.38490  0.39960  0.97130  Biso   1.000  C
  C45      1.0000 0.37360  0.43920  0.91730  Biso   1.000  C
  H25      1.0000 0.34480  0.33760  0.98530  Biso   1.000  H
  H26      1.0000 0.32020  0.40520  0.89070  Biso   1.000  H
  H27      1.0000 0.55480  0.64080  0.92020  Biso   1.000  H
  O10      1.0000 0.82130  0.47631  0.31911  Biso   1.000  O
  C46      1.0000 0.90540  0.43530  0.39910  Biso   1.000  C
  C47      1.0000 0.93240  0.51170  0.43390  Biso   1.000  C
  C48      1.0000 0.99800  0.53600  0.48700  Biso   1.000  C
  C49      1.0000 0.98530  0.38490  0.47130  Biso   1.000  C
  C50      1.0000 0.93440  0.37360  0.41730  Biso   1.000  C
  H28      1.0000 0.00720  0.34480  0.48530  Biso   1.000  H
  H29      1.0000 0.91500  0.32020  0.39070  Biso   1.000  H
  H30      1.0000 0.91400  0.55480  0.42020  Biso   1.000  H
  O11      1.0000 0.65501  0.17870  0.31911  Biso   1.000  O
  C51      1.0000 0.52990  0.09460  0.39910  Biso   1.000  C
  C52      1.0000 0.57930  0.06760  0.43390  Biso   1.000  C
  C53      1.0000 0.53800  0.00200  0.48700  Biso   1.000  C
  C54      1.0000 0.39960  0.01470  0.47130  Biso   1.000  C
  C55      1.0000 0.43920  0.06560  0.41730  Biso   1.000  C
  H31      1.0000 0.33760  0.99280  0.48530  Biso   1.000  H
  H32      1.0000 0.40520  0.08500  0.39070  Biso   1.000  H
  H33      1.0000 0.64080  0.08600  0.42020  Biso   1.000  H
  O12      1.0000 0.52369  0.34499  0.31911  Biso   1.000  O
  C56      1.0000 0.56470  0.47010  0.39910  Biso   1.000  C
  C57      1.0000 0.48830  0.42070  0.43390  Biso   1.000  C
  C58      1.0000 0.46400  0.46200  0.48700  Biso   1.000  C
  C59      1.0000 0.61510  0.60040  0.47130  Biso   1.000  C
  C60      1.0000 0.62640  0.56080  0.41730  Biso   1.000  C
  H34      1.0000 0.65520  0.66240  0.48530  Biso   1.000  H
  H35      1.0000 0.67980  0.59480  0.39070  Biso   1.000  H
  H36      1.0000 0.44520  0.35920  0.42020  Biso   1.000  H
  O13      1.0000 0.47631  0.82130  0.81911  Biso   1.000  O
  C61      1.0000 0.43530  0.90540  0.89910  Biso   1.000  C
  C62      1.0000 0.51170  0.93240  0.93390  Biso   1.000  C
  C63      1.0000 0.53600  0.99800  0.98700  Biso   1.000  C
  C64      1.0000 0.38490  0.98530  0.97130  Biso   1.000  C
  C65      1.0000 0.37360  0.93440  0.91730  Biso   1.000  C
  H37      1.0000 0.34480  0.00720  0.98530  Biso   1.000  H
  H38      1.0000 0.32020  0.91500  0.89070  Biso   1.000  H
  H39      1.0000 0.55480  0.91400  0.92020  Biso   1.000  H
  O14      1.0000 0.17870  0.65501  0.81911  Biso   1.000  O
  C66      1.0000 0.09460  0.52990  0.89910  Biso   1.000  C
  C67      1.0000 0.06760  0.57930  0.93390  Biso   1.000  C
  C68      1.0000 0.00200  0.53800  0.98700  Biso   1.000  C
  C69      1.0000 0.01470  0.39960  0.97130  Biso   1.000  C
  C70      1.0000 0.06560  0.43920  0.91730  Biso   1.000  C
  H40      1.0000 0.99280  0.33760  0.98530  Biso   1.000  H
  H41      1.0000 0.08500  0.40520  0.89070  Biso   1.000  H
  H42      1.0000 0.08600  0.64080  0.92020  Biso   1.000  H
  O15      1.0000 0.34499  0.52369  0.81911  Biso   1.000  O
  C71      1.0000 0.47010  0.56470  0.89910  Biso   1.000  C
  C72      1.0000 0.42070  0.48830  0.93390  Biso   1.000  C
  C73      1.0000 0.46200  0.46400  0.98700  Biso   1.000  C
  C74      1.0000 0.60040  0.61510  0.97130  Biso   1.000  C
  C75      1.0000 0.56080  0.62640  0.91730  Biso   1.000  C
  H43      1.0000 0.66240  0.65520  0.98530  Biso   1.000  H
  H44      1.0000 0.59480  0.67980  0.89070  Biso   1.000  H
  H45      1.0000 0.35920  0.44520  0.92020  Biso   1.000  H
  O16      1.0000 0.52369  0.17870  0.31911  Biso   1.000  O
  C76      1.0000 0.56470  0.09460  0.39910  Biso   1.000  C
  C77      1.0000 0.48830  0.06760  0.43390  Biso   1.000  C
  C78      1.0000 0.46400  0.00200  0.48700  Biso   1.000  C
  C79      1.0000 0.61510  0.01470  0.47130  Biso   1.000  C
  C80      1.0000 0.62640  0.06560  0.41730  Biso   1.000  C
  H46      1.0000 0.65520  0.99280  0.48530  Biso   1.000  H
  H47      1.0000 0.67980  0.08500  0.39070  Biso   1.000  H
  H48      1.0000 0.44520  0.08600  0.42020  Biso   1.000  H
  O17      1.0000 0.82130  0.34499  0.31911  Biso   1.000  O
  C81      1.0000 0.90540  0.47010  0.39910  Biso   1.000  C
  C82      1.0000 0.93240  0.42070  0.43390  Biso   1.000  C
  C83      1.0000 0.99800  0.46200  0.48700  Biso   1.000  C
  C84      1.0000 0.98530  0.60040  0.47130  Biso   1.000  C
  C85      1.0000 0.93440  0.56080  0.41730  Biso   1.000  C
  H49      1.0000 0.00720  0.66240  0.48530  Biso   1.000  H
  H50      1.0000 0.91500  0.59480  0.39070  Biso   1.000  H
  H51      1.0000 0.91400  0.35920  0.42020  Biso   1.000  H
  O18      1.0000 0.65501  0.47631  0.31911  Biso   1.000  O
  C86      1.0000 0.52990  0.43530  0.39910  Biso   1.000  C
  C87      1.0000 0.57930  0.51170  0.43390  Biso   1.000  C
  C88      1.0000 0.53800  0.53600  0.48700  Biso   1.000  C
  C89      1.0000 0.39960  0.38490  0.47130  Biso   1.000  C
  C90      1.0000 0.43920  0.37360  0.41730  Biso   1.000  C
  H52      1.0000 0.33760  0.34480  0.48530  Biso   1.000  H
  H53      1.0000 0.40520  0.32020  0.39070  Biso   1.000  H
  H54      1.0000 0.64080  0.55480  0.42020  Biso   1.000  H
  O19      1.0000 0.82130  0.47631  0.18089  Biso   1.000  O
  C91      1.0000 0.90540  0.43530  0.10090  Biso   1.000  C
  C92      1.0000 0.93240  0.51170  0.06610  Biso   1.000  C
  C93      1.0000 0.99800  0.53600  0.01300  Biso   1.000  C
  C94      1.0000 0.98530  0.38490  0.02870  Biso   1.000  C
  C95      1.0000 0.93440  0.37360  0.08270  Biso   1.000  C
  H55      1.0000 0.00720  0.34480  0.01470  Biso   1.000  H
  H56      1.0000 0.91500  0.32020  0.10930  Biso   1.000  H
  H57      1.0000 0.91400  0.55480  0.07980  Biso   1.000  H
  O20      1.0000 0.65501  0.17870  0.18089  Biso   1.000  O
  C96      1.0000 0.52990  0.09460  0.10090  Biso   1.000  C
  C97      1.0000 0.57930  0.06760  0.06610  Biso   1.000  C
  C98      1.0000 0.53800  0.00200  0.01300  Biso   1.000  C
  C99      1.0000 0.39960  0.01470  0.02870  Biso   1.000  C
  C100     1.0000 0.43920  0.06560  0.08270  Biso   1.000  C
  H58      1.0000 0.33760  0.99280  0.01470  Biso   1.000  H
  H59      1.0000 0.40520  0.08500  0.10930  Biso   1.000  H
  H60      1.0000 0.64080  0.08600  0.07980  Biso   1.000  H
  O21      1.0000 0.52369  0.34499  0.18089  Biso   1.000  O
  C101     1.0000 0.56470  0.47010  0.10090  Biso   1.000  C
  C102     1.0000 0.48830  0.42070  0.06610  Biso   1.000  C
  C103     1.0000 0.46400  0.46200  0.01300  Biso   1.000  C
  C104     1.0000 0.61510  0.60040  0.02870  Biso   1.000  C
  C105     1.0000 0.62640  0.56080  0.08270  Biso   1.000  C
  H61      1.0000 0.65520  0.66240  0.01470  Biso   1.000  H
  H62      1.0000 0.67980  0.59480  0.10930  Biso   1.000  H
  H63      1.0000 0.44520  0.35920  0.07980  Biso   1.000  H
  O22      1.0000 0.17870  0.52369  0.68089  Biso   1.000  O
  C106     1.0000 0.09460  0.56470  0.60090  Biso   1.000  C
  C107     1.0000 0.06760  0.48830  0.56610  Biso   1.000  C
  C108     1.0000 0.00200  0.46400  0.51300  Biso   1.000  C
  C109     1.0000 0.01470  0.61510  0.52870  Biso   1.000  C
  C110     1.0000 0.06560  0.62640  0.58270  Biso   1.000  C
  H64      1.0000 0.99280  0.65520  0.51470  Biso   1.000  H
  H65      1.0000 0.08500  0.67980  0.60930  Biso   1.000  H
  H66      1.0000 0.08600  0.44520  0.57980  Biso   1.000  H
  O23      1.0000 0.34499  0.82130  0.68089  Biso   1.000  O
  C111     1.0000 0.47010  0.90540  0.60090  Biso   1.000  C
  C112     1.0000 0.42070  0.93240  0.56610  Biso   1.000  C
  C113     1.0000 0.46200  0.99800  0.51300  Biso   1.000  C
  C114     1.0000 0.60040  0.98530  0.52870  Biso   1.000  C
  C115     1.0000 0.56080  0.93440  0.58270  Biso   1.000  C
  H67      1.0000 0.66240  0.00720  0.51470  Biso   1.000  H
  H68      1.0000 0.59480  0.91500  0.60930  Biso   1.000  H
  H69      1.0000 0.35920  0.91400  0.57980  Biso   1.000  H
  O24      1.0000 0.47631  0.65501  0.68089  Biso   1.000  O
  C116     1.0000 0.43530  0.52990  0.60090  Biso   1.000  C
  C117     1.0000 0.51170  0.57930  0.56610  Biso   1.000  C
  C118     1.0000 0.53600  0.53800  0.51300  Biso   1.000  C
  C119     1.0000 0.38490  0.39960  0.52870  Biso   1.000  C
  C120     1.0000 0.37360  0.43920  0.58270  Biso   1.000  C
  H70      1.0000 0.34480  0.33760  0.51470  Biso   1.000  H
  H71      1.0000 0.32020  0.40520  0.60930  Biso   1.000  H
  H72      1.0000 0.55480  0.64080  0.57980  Biso   1.000  H
  Mg1      1.0000 0.53311  0.26655  0.25000  Biso   1.000  Mg
  N1       1.0000 0.38090  0.19045  0.25000  Biso   1.000  N
  C121     1.0000 0.19310  0.09655  0.25000  Biso   1.000  C
  C122     1.0000 0.08870  0.04435  0.25000  Biso   1.000  C
  Mg2      1.0000 0.73345  0.26655  0.25000  Biso   1.000  Mg
  N2       1.0000 0.80955  0.19045  0.25000  Biso   1.000  N
  C123     1.0000 0.90345  0.09655  0.25000  Biso   1.000  C
  C124     1.0000 0.95565  0.04435  0.25000  Biso   1.000  C
  Mg3      1.0000 0.73344  0.46689  0.25000  Biso   1.000  Mg
  N3       1.0000 0.80955  0.61910  0.25000  Biso   1.000  N
  C125     1.0000 0.90345  0.80690  0.25000  Biso   1.000  C
  C126     1.0000 0.95565  0.91130  0.25000  Biso   1.000  C
  Mg4      1.0000 0.46689  0.73345  0.75000  Biso   1.000  Mg
  N4       1.0000 0.61910  0.80955  0.75000  Biso   1.000  N
  C127     1.0000 0.80690  0.90345  0.75000  Biso   1.000  C
  C128     1.0000 0.91130  0.95565  0.75000  Biso   1.000  C
  Mg5      1.0000 0.26655  0.73344  0.75000  Biso   1.000  Mg
  N5       1.0000 0.19045  0.80955  0.75000  Biso   1.000  N
  C129     1.0000 0.09655  0.90345  0.75000  Biso   1.000  C
  C130     1.0000 0.04435  0.95565  0.75000  Biso   1.000  C
  Mg6      1.0000 0.26656  0.53311  0.75000  Biso   1.000  Mg
  N6       1.0000 0.19045  0.38090  0.75000  Biso   1.000  N
  C131     1.0000 0.09655  0.19310  0.75000  Biso   1.000  C
  C132     1.0000 0.04435  0.08870  0.75000  Biso   1.000  C
  O25      1.0000 0.66667  0.33333  0.25000  Biso   1.000  O
  O26      1.0000 0.33333  0.66667  0.75000  Biso   1.000  O
  N7       1.0000 0.04650  0.95350  0.25000  Biso   1.000  N
  N8       1.0000 0.04650  0.09300  0.25000  Biso   1.000  N
  N9       1.0000 0.90700  0.95350  0.25000  Biso   1.000  N
  N10      1.0000 0.95350  0.04650  0.75000  Biso   1.000  N
  N11      1.0000 0.95350  0.90700  0.75000  Biso   1.000  N
  N12      1.0000 0.09300  0.04650  0.75000  Biso   1.000  N
  C133     1.0000 0.33240  0.23310  0.25000  Biso   1.000  C
  H73      1.0000 0.36500  0.29840  0.25000  Biso   1.000  H
  C134     1.0000 0.23980  0.18960  0.25000  Biso   1.000  C
  H74      1.0000 0.20820  0.22330  0.25000  Biso   1.000  H
  C135     1.0000 0.76690  0.09930  0.25000  Biso   1.000  C
  H75      1.0000 0.70160  0.06660  0.25000  Biso   1.000  H
  C136     1.0000 0.81040  0.05020  0.25000  Biso   1.000  C
  H76      1.0000 0.77670  0.98490  0.25000  Biso   1.000  H
  C137     1.0000 0.90070  0.66760  0.25000  Biso   1.000  C
  H77      1.0000 0.93340  0.63500  0.25000  Biso   1.000  H
  C138     1.0000 0.94980  0.76020  0.25000  Biso   1.000  C
  H78      1.0000 0.01510  0.79180  0.25000  Biso   1.000  H
  C139     1.0000 0.66760  0.76690  0.75000  Biso   1.000  C
  H79      1.0000 0.63500  0.70160  0.75000  Biso   1.000  H
  C140     1.0000 0.76020  0.81040  0.75000  Biso   1.000  C
  H80      1.0000 0.79180  0.77670  0.75000  Biso   1.000  H
  C141     1.0000 0.23310  0.90070  0.75000  Biso   1.000  C
  H81      1.0000 0.29840  0.93340  0.75000  Biso   1.000  H
  C142     1.0000 0.18960  0.94980  0.75000  Biso   1.000  C
  H82      1.0000 0.22330  0.01510  0.75000  Biso   1.000  H
  C143     1.0000 0.09930  0.33240  0.75000  Biso   1.000  C
  H83      1.0000 0.06660  0.36500  0.75000  Biso   1.000  H
  C144     1.0000 0.05020  0.23980  0.75000  Biso   1.000  C
  H84      1.0000 0.98490  0.20820  0.75000  Biso   1.000  H
  C145     1.0000 0.23310  0.33240  0.75000  Biso   1.000  C
  H85      1.0000 0.29840  0.36500  0.75000  Biso   1.000  H
  C146     1.0000 0.18960  0.23980  0.75000  Biso   1.000  C
  H86      1.0000 0.22330  0.20820  0.75000  Biso   1.000  H
  C147     1.0000 0.09930  0.76690  0.75000  Biso   1.000  C
  H87      1.0000 0.06660  0.70160  0.75000  Biso   1.000  H
  C148     1.0000 0.05020  0.81040  0.75000  Biso   1.000  C
  H88      1.0000 0.98490  0.77670  0.75000  Biso   1.000  H
  C149     1.0000 0.66760  0.90070  0.75000  Biso   1.000  C
  H89      1.0000 0.63500  0.93340  0.75000  Biso   1.000  H
  C150     1.0000 0.76020  0.94980  0.75000  Biso   1.000  C
  H90      1.0000 0.79180  0.01510  0.75000  Biso   1.000  H
  C151     1.0000 0.76690  0.66760  0.25000  Biso   1.000  C
  H91      1.0000 0.70160  0.63500  0.25000  Biso   1.000  H
  C152     1.0000 0.81040  0.76020  0.25000  Biso   1.000  C
  H92      1.0000 0.77670  0.79180  0.25000  Biso   1.000  H
  C153     1.0000 0.90070  0.23310  0.25000  Biso   1.000  C
  H93      1.0000 0.93340  0.29840  0.25000  Biso   1.000  H
  C154     1.0000 0.94980  0.18960  0.25000  Biso   1.000  C
  H94      1.0000 0.01510  0.22330  0.25000  Biso   1.000  H
  C155     1.0000 0.33240  0.09930  0.25000  Biso   1.000  C
  H95      1.0000 0.36500  0.06660  0.25000  Biso   1.000  H
  C156     1.0000 0.23980  0.05020  0.25000  Biso   1.000  C
  H96      1.0000 0.20820  0.98490  0.25000  Biso   1.000  H
  C157     1.0000 0.57675  0.15350  0.15840  Biso   1.000  C
  C158     1.0000 0.84650  0.42325  0.15840  Biso   1.000  C
  C159     1.0000 0.57675  0.42325  0.15840  Biso   1.000  C
  C160     1.0000 0.42325  0.84650  0.65840  Biso   1.000  C
  C161     1.0000 0.15350  0.57675  0.65840  Biso   1.000  C
  C162     1.0000 0.42325  0.57675  0.65840  Biso   1.000  C
  C163     1.0000 0.15350  0.57675  0.84160  Biso   1.000  C
  C164     1.0000 0.42325  0.84650  0.84160  Biso   1.000  C
  C165     1.0000 0.42325  0.57675  0.84160  Biso   1.000  C
  C166     1.0000 0.84650  0.42325  0.34160  Biso   1.000  C
  C167     1.0000 0.57675  0.15350  0.34160  Biso   1.000  C
  C168     1.0000 0.57675  0.42325  0.34160  Biso   1.000  C
  C169     1.0000 0.53660  0.00000  0.00000  Biso   1.000  C
  C170     1.0000 0.00000  0.53660  0.00000  Biso   1.000  C
  C171     1.0000 0.46340  0.46340  0.00000  Biso   1.000  C
  C172     1.0000 0.46340  0.00000  0.50000  Biso   1.000  C
  C173     1.0000 0.00000  0.46340  0.50000  Biso   1.000  C
  C174     1.0000 0.53660  0.53660  0.50000  Biso   1.000  C
  C175     1.0000 0.46340  0.00000  0.00000  Biso   1.000  C
  C176     1.0000 0.00000  0.46340  0.00000  Biso   1.000  C
  C177     1.0000 0.53660  0.53660  0.00000  Biso   1.000  C
  C178     1.0000 0.53660  0.00000  0.50000  Biso   1.000  C
  C179     1.0000 0.00000  0.53660  0.50000  Biso   1.000  C
  C180     1.0000 0.46340  0.46340  0.50000  Biso   1.000  C
