data_image0
_cell_length_a       8.1685
_cell_length_b       23.616
_cell_length_c       8.8796
_cell_angle_alpha    90
_cell_angle_beta     110.9
_cell_angle_gamma    90

_symmetry_space_group_name_H-M    "P 1"
_symmetry_int_tables_number       1

loop_
  _symmetry_equiv_pos_as_xyz
  'x, y, z'

loop_
  _atom_site_label
  _atom_site_occupancy
  _atom_site_fract_x
  _atom_site_fract_y
  _atom_site_fract_z
  _atom_site_thermal_displace_type
  _atom_site_B_iso_or_equiv
  _atom_site_type_symbol
  Cu1      1.0000 0.04667  0.89320  0.69103  Biso   1.000  Cu
  O1       1.0000 0.19470  0.82980  0.74500  Biso   1.000  O
  O2       1.0000 0.26080  0.74120  0.72940  Biso   1.000  O
  O3       1.0000 0.50370  0.76860  0.00350  Biso   1.000  O
  O4       1.0000 0.55870  0.67990  0.02570  Biso   1.000  O
  O5       1.0000 0.52450  0.67560  0.08670  Biso   1.000  O
  O6       1.0000 0.83590  0.92910  0.62970  Biso   1.000  O
  O7       1.0000 0.61670  0.94920  0.39620  Biso   1.000  O
  O8       1.0000 0.19480  0.95140  0.60320  Biso   1.000  O
  O9       1.0000 0.32670  0.94520  0.41410  Biso   1.000  O
  N1       1.0000 0.97420  0.87220  0.43190  Biso   1.000  N
  C1       1.0000 0.91980  0.81310  0.40550  Biso   1.000  C
  C2       1.0000 0.01700  0.77110  0.51450  Biso   1.000  C
  C3       1.0000 0.77890  0.79840  0.27200  Biso   1.000  C
  C4       1.0000 0.96990  0.71520  0.47900  Biso   1.000  C
  H1       1.0000 0.03410  0.68700  0.54830  Biso   1.000  H
  C5       1.0000 0.73220  0.74160  0.24080  Biso   1.000  C
  C6       1.0000 0.82970  0.69990  0.34300  Biso   1.000  C
  H2       1.0000 0.80130  0.66190  0.32050  Biso   1.000  H
  C7       1.0000 0.16840  0.78170  0.67300  Biso   1.000  C
  C8       1.0000 0.58300  0.72530  0.09260  Biso   1.000  C
  C9       1.0000 0.84800  0.91610  0.34830  Biso   1.000  C
  H3       1.0000 0.90700  0.94860  0.32480  Biso   1.000  H
  H4       1.0000 0.76400  0.90170  0.24820  Biso   1.000  H
  C10      1.0000 0.11570  0.88130  0.37730  Biso   1.000  C
  H5       1.0000 0.18850  0.84770  0.39450  Biso   1.000  H
  H6       1.0000 0.07220  0.89030  0.26330  Biso   1.000  H
  C11      1.0000 0.75770  0.93160  0.46670  Biso   1.000  C
  C12      1.0000 0.21980  0.93060  0.47530  Biso   1.000  C
  K1       1.0000 0.39650  0.63594  0.67400  Biso   1.000  K
  H7       1.0000 0.72100  0.82200  0.21600  Biso   1.000  H
  Cu2      1.0000 0.95333  0.39320  0.80897  Biso   1.000  Cu
  O10      1.0000 0.80530  0.32980  0.75500  Biso   1.000  O
  O11      1.0000 0.73920  0.24120  0.77060  Biso   1.000  O
  O12      1.0000 0.49630  0.26860  0.49650  Biso   1.000  O
  O13      1.0000 0.44130  0.17990  0.47430  Biso   1.000  O
  O14      1.0000 0.47550  0.17560  0.41330  Biso   1.000  O
  O15      1.0000 0.16410  0.42910  0.87030  Biso   1.000  O
  O16      1.0000 0.38330  0.44920  0.10380  Biso   1.000  O
  O17      1.0000 0.80520  0.45140  0.89680  Biso   1.000  O
  O18      1.0000 0.67330  0.44520  0.08590  Biso   1.000  O
  N2       1.0000 0.02580  0.37220  0.06810  Biso   1.000  N
  C13      1.0000 0.08020  0.31310  0.09450  Biso   1.000  C
  C14      1.0000 0.98300  0.27110  0.98550  Biso   1.000  C
  C15      1.0000 0.22110  0.29840  0.22800  Biso   1.000  C
  C16      1.0000 0.03010  0.21520  0.02100  Biso   1.000  C
  H8       1.0000 0.96590  0.18700  0.95170  Biso   1.000  H
  C17      1.0000 0.26780  0.24160  0.25920  Biso   1.000  C
  C18      1.0000 0.17030  0.19990  0.15700  Biso   1.000  C
  H9       1.0000 0.19870  0.16190  0.17950  Biso   1.000  H
  C19      1.0000 0.83160  0.28170  0.82700  Biso   1.000  C
  C20      1.0000 0.41700  0.22530  0.40740  Biso   1.000  C
  C21      1.0000 0.15200  0.41610  0.15170  Biso   1.000  C
  H10      1.0000 0.09300  0.44860  0.17520  Biso   1.000  H
  H11      1.0000 0.23600  0.40170  0.25180  Biso   1.000  H
  C22      1.0000 0.88430  0.38130  0.12270  Biso   1.000  C
  H12      1.0000 0.81150  0.34770  0.10550  Biso   1.000  H
  H13      1.0000 0.92780  0.39030  0.23670  Biso   1.000  H
  C23      1.0000 0.24230  0.43160  0.03330  Biso   1.000  C
  C24      1.0000 0.78020  0.43060  0.02470  Biso   1.000  C
  K2       1.0000 0.60350  0.13594  0.82600  Biso   1.000  K
  H14      1.0000 0.27900  0.32200  0.28400  Biso   1.000  H
  Cu3      1.0000 0.95333  0.10680  0.30897  Biso   1.000  Cu
  O19      1.0000 0.80530  0.17020  0.25500  Biso   1.000  O
  O20      1.0000 0.73920  0.25880  0.27060  Biso   1.000  O
  O21      1.0000 0.49630  0.23140  0.99650  Biso   1.000  O
  O22      1.0000 0.44130  0.32010  0.97430  Biso   1.000  O
  O23      1.0000 0.47550  0.32440  0.91330  Biso   1.000  O
  O24      1.0000 0.16410  0.07090  0.37030  Biso   1.000  O
  O25      1.0000 0.38330  0.05080  0.60380  Biso   1.000  O
  O26      1.0000 0.80520  0.04860  0.39680  Biso   1.000  O
  O27      1.0000 0.67330  0.05480  0.58590  Biso   1.000  O
  N3       1.0000 0.02580  0.12780  0.56810  Biso   1.000  N
  C25      1.0000 0.08020  0.18690  0.59450  Biso   1.000  C
  C26      1.0000 0.98300  0.22890  0.48550  Biso   1.000  C
  C27      1.0000 0.22110  0.20160  0.72800  Biso   1.000  C
  C28      1.0000 0.03010  0.28480  0.52100  Biso   1.000  C
  H15      1.0000 0.96590  0.31300  0.45170  Biso   1.000  H
  C29      1.0000 0.26780  0.25840  0.75920  Biso   1.000  C
  C30      1.0000 0.17030  0.30010  0.65700  Biso   1.000  C
  H16      1.0000 0.19870  0.33810  0.67950  Biso   1.000  H
  C31      1.0000 0.83160  0.21830  0.32700  Biso   1.000  C
  C32      1.0000 0.41700  0.27470  0.90740  Biso   1.000  C
  C33      1.0000 0.15200  0.08390  0.65170  Biso   1.000  C
  H17      1.0000 0.09300  0.05140  0.67520  Biso   1.000  H
  H18      1.0000 0.23600  0.09830  0.75180  Biso   1.000  H
  C34      1.0000 0.88430  0.11870  0.62270  Biso   1.000  C
  H19      1.0000 0.81150  0.15230  0.60550  Biso   1.000  H
  H20      1.0000 0.92780  0.10970  0.73670  Biso   1.000  H
  C35      1.0000 0.24230  0.06840  0.53330  Biso   1.000  C
  C36      1.0000 0.78020  0.06940  0.52470  Biso   1.000  C
  K3       1.0000 0.60350  0.36406  0.32600  Biso   1.000  K
  H21      1.0000 0.27900  0.17800  0.78400  Biso   1.000  H
  Cu4      1.0000 0.04667  0.60680  0.19103  Biso   1.000  Cu
  O28      1.0000 0.19470  0.67020  0.24500  Biso   1.000  O
  O29      1.0000 0.26080  0.75880  0.22940  Biso   1.000  O
  O30      1.0000 0.50370  0.73140  0.50350  Biso   1.000  O
  O31      1.0000 0.55870  0.82010  0.52570  Biso   1.000  O
  O32      1.0000 0.52450  0.82440  0.58670  Biso   1.000  O
  O33      1.0000 0.83590  0.57090  0.12970  Biso   1.000  O
  O34      1.0000 0.61670  0.55080  0.89620  Biso   1.000  O
  O35      1.0000 0.19480  0.54860  0.10320  Biso   1.000  O
  O36      1.0000 0.32670  0.55480  0.91410  Biso   1.000  O
  N4       1.0000 0.97420  0.62780  0.93190  Biso   1.000  N
  C37      1.0000 0.91980  0.68690  0.90550  Biso   1.000  C
  C38      1.0000 0.01700  0.72890  0.01450  Biso   1.000  C
  C39      1.0000 0.77890  0.70160  0.77200  Biso   1.000  C
  C40      1.0000 0.96990  0.78480  0.97900  Biso   1.000  C
  H22      1.0000 0.03410  0.81300  0.04830  Biso   1.000  H
  C41      1.0000 0.73220  0.75840  0.74080  Biso   1.000  C
  C42      1.0000 0.82970  0.80010  0.84300  Biso   1.000  C
  H23      1.0000 0.80130  0.83810  0.82050  Biso   1.000  H
  C43      1.0000 0.16840  0.71830  0.17300  Biso   1.000  C
  C44      1.0000 0.58300  0.77470  0.59260  Biso   1.000  C
  C45      1.0000 0.84800  0.58390  0.84830  Biso   1.000  C
  H24      1.0000 0.90700  0.55140  0.82480  Biso   1.000  H
  H25      1.0000 0.76400  0.59830  0.74820  Biso   1.000  H
  C46      1.0000 0.11570  0.61870  0.87730  Biso   1.000  C
  H26      1.0000 0.18850  0.65230  0.89450  Biso   1.000  H
  H27      1.0000 0.07220  0.60970  0.76330  Biso   1.000  H
  C47      1.0000 0.75770  0.56840  0.96670  Biso   1.000  C
  C48      1.0000 0.21980  0.56940  0.97530  Biso   1.000  C
  K4       1.0000 0.39650  0.86406  0.17400  Biso   1.000  K
  H28      1.0000 0.72100  0.67800  0.71600  Biso   1.000  H
  Cu5      1.0000 0.50000  0.00000  0.50000  Biso   1.000  Cu
  Cu6      1.0000 0.50000  0.50000  0.00000  Biso   1.000  Cu
