data_image0
_cell_length_a       12.807
_cell_length_b       12.807
_cell_length_c       59.467
_cell_angle_alpha    90
_cell_angle_beta     90
_cell_angle_gamma    90

_symmetry_space_group_name_H-M    "P 1"
_symmetry_int_tables_number       1

loop_
  _symmetry_equiv_pos_as_xyz
  'x, y, z'

loop_
  _atom_site_label
  _atom_site_occupancy
  _atom_site_fract_x
  _atom_site_fract_y
  _atom_site_fract_z
  _atom_site_thermal_displace_type
  _atom_site_B_iso_or_equiv
  _atom_site_type_symbol
  Dy1      1.0000 0.65588  0.07470  0.06146  Biso   1.000  Dy
  O1       1.0000 0.36340  0.05220  0.03246  Biso   1.000  O
  O2       1.0000 0.51630  0.12780  0.03988  Biso   1.000  O
  C1       1.0000 0.43950  0.10970  0.02792  Biso   1.000  C
  C2       1.0000 0.43980  0.15870  0.00466  Biso   1.000  C
  C3       1.0000 0.34720  0.18540  0.99402  Biso   1.000  C
  H1       1.0000 0.28400  0.17450  0.00140  Biso   1.000  H
  C4       1.0000 0.34740  0.22850  0.97235  Biso   1.000  C
  C5       1.0000 0.44090  0.24210  0.96130  Biso   1.000  C
  H2       1.0000 0.44210  0.26950  0.94680  Biso   1.000  H
  C6       1.0000 0.53380  0.21430  0.97202  Biso   1.000  C
  C7       1.0000 0.63210  0.22680  0.95994  Biso   1.000  C
  N1       1.0000 0.70900  0.23890  0.95040  Biso   1.000  N
  C8       1.0000 0.53340  0.17390  0.99409  Biso   1.000  C
  H3       1.0000 0.59580  0.15800  0.00130  Biso   1.000  H
  C9       1.0000 0.24690  0.25990  0.96107  Biso   1.000  C
  O3       1.0000 0.16030  0.24960  0.97094  Biso   1.000  O
  O4       1.0000 0.25480  0.29720  0.94164  Biso   1.000  O
  O5       1.0000 0.60340  0.93670  0.08100  Biso   1.000  O
  O6       1.0000 0.45760  0.84600  0.08800  Biso   1.000  O
  C10      1.0000 0.55220  0.86580  0.09107  Biso   1.000  C
  C11      1.0000 0.60990  0.80530  0.10863  Biso   1.000  C
  C12      1.0000 0.76900  0.78500  0.13030  Biso   1.000  C
  C13      1.0000 0.87900  0.80500  0.13230  Biso   1.000  C
  N2       1.0000 0.96500  0.83300  0.13520  Biso   1.000  N
  C14      1.0000 0.71530  0.83330  0.11230  Biso   1.000  C
  C15      1.0000 0.71790  0.72300  0.14500  Biso   1.000  C
  H4       1.0000 0.74840  0.88180  0.10310  Biso   1.000  H
  H5       1.0000 0.75260  0.69770  0.15770  Biso   1.000  H
  Dy2      1.0000 0.15588  0.57470  0.56146  Biso   1.000  Dy
  O7       1.0000 0.86340  0.55220  0.53246  Biso   1.000  O
  O8       1.0000 0.01630  0.62780  0.53988  Biso   1.000  O
  C16      1.0000 0.93950  0.60970  0.52792  Biso   1.000  C
  C17      1.0000 0.93980  0.65870  0.50466  Biso   1.000  C
  C18      1.0000 0.84720  0.68540  0.49402  Biso   1.000  C
  H6       1.0000 0.78400  0.67450  0.50140  Biso   1.000  H
  C19      1.0000 0.84740  0.72850  0.47235  Biso   1.000  C
  C20      1.0000 0.94090  0.74210  0.46130  Biso   1.000  C
  H7       1.0000 0.94210  0.76950  0.44680  Biso   1.000  H
  C21      1.0000 0.03380  0.71430  0.47202  Biso   1.000  C
  C22      1.0000 0.13210  0.72680  0.45994  Biso   1.000  C
  N3       1.0000 0.20900  0.73890  0.45040  Biso   1.000  N
  C23      1.0000 0.03340  0.67390  0.49409  Biso   1.000  C
  H8       1.0000 0.09580  0.65800  0.50130  Biso   1.000  H
  C24      1.0000 0.74690  0.75990  0.46107  Biso   1.000  C
  O9       1.0000 0.66030  0.74960  0.47094  Biso   1.000  O
  O10      1.0000 0.75480  0.79720  0.44164  Biso   1.000  O
  O11      1.0000 0.10340  0.43670  0.58100  Biso   1.000  O
  O12      1.0000 0.95760  0.34600  0.58800  Biso   1.000  O
  C25      1.0000 0.05220  0.36580  0.59107  Biso   1.000  C
  C26      1.0000 0.10990  0.30530  0.60863  Biso   1.000  C
  C27      1.0000 0.26900  0.28500  0.63030  Biso   1.000  C
  C28      1.0000 0.37900  0.30500  0.63230  Biso   1.000  C
  N4       1.0000 0.46500  0.33300  0.63520  Biso   1.000  N
  C29      1.0000 0.21530  0.33330  0.61230  Biso   1.000  C
  C30      1.0000 0.21790  0.22300  0.64500  Biso   1.000  C
  H9       1.0000 0.24840  0.38180  0.60310  Biso   1.000  H
  H10      1.0000 0.25260  0.19770  0.65770  Biso   1.000  H
  Dy3      1.0000 0.34412  0.92530  0.06146  Biso   1.000  Dy
  O13      1.0000 0.63660  0.94780  0.03246  Biso   1.000  O
  O14      1.0000 0.48370  0.87220  0.03988  Biso   1.000  O
  C31      1.0000 0.56050  0.89030  0.02792  Biso   1.000  C
  C32      1.0000 0.56020  0.84130  0.00466  Biso   1.000  C
  C33      1.0000 0.65280  0.81460  0.99402  Biso   1.000  C
  H11      1.0000 0.71600  0.82550  0.00140  Biso   1.000  H
  C34      1.0000 0.65260  0.77150  0.97235  Biso   1.000  C
  C35      1.0000 0.55910  0.75790  0.96130  Biso   1.000  C
  H12      1.0000 0.55790  0.73050  0.94680  Biso   1.000  H
  C36      1.0000 0.46620  0.78570  0.97202  Biso   1.000  C
  C37      1.0000 0.36790  0.77320  0.95994  Biso   1.000  C
  N5       1.0000 0.29100  0.76110  0.95040  Biso   1.000  N
  C38      1.0000 0.46660  0.82610  0.99409  Biso   1.000  C
  H13      1.0000 0.40420  0.84200  0.00130  Biso   1.000  H
  C39      1.0000 0.75310  0.74010  0.96107  Biso   1.000  C
  O15      1.0000 0.83970  0.75040  0.97094  Biso   1.000  O
  O16      1.0000 0.74520  0.70280  0.94164  Biso   1.000  O
  O17      1.0000 0.39660  0.06330  0.08100  Biso   1.000  O
  O18      1.0000 0.54240  0.15400  0.08800  Biso   1.000  O
  C40      1.0000 0.44780  0.13420  0.09107  Biso   1.000  C
  C41      1.0000 0.39010  0.19470  0.10863  Biso   1.000  C
  C42      1.0000 0.23100  0.21500  0.13030  Biso   1.000  C
  C43      1.0000 0.12100  0.19500  0.13230  Biso   1.000  C
  N6       1.0000 0.03500  0.16700  0.13520  Biso   1.000  N
  C44      1.0000 0.28470  0.16670  0.11230  Biso   1.000  C
  C45      1.0000 0.28210  0.27700  0.14500  Biso   1.000  C
  H14      1.0000 0.25160  0.11820  0.10310  Biso   1.000  H
  H15      1.0000 0.24740  0.30230  0.15770  Biso   1.000  H
  Dy4      1.0000 0.84412  0.42530  0.56146  Biso   1.000  Dy
  O19      1.0000 0.13660  0.44780  0.53246  Biso   1.000  O
  O20      1.0000 0.98370  0.37220  0.53988  Biso   1.000  O
  C46      1.0000 0.06050  0.39030  0.52792  Biso   1.000  C
  C47      1.0000 0.06020  0.34130  0.50466  Biso   1.000  C
  C48      1.0000 0.15280  0.31460  0.49402  Biso   1.000  C
  H16      1.0000 0.21600  0.32550  0.50140  Biso   1.000  H
  C49      1.0000 0.15260  0.27150  0.47235  Biso   1.000  C
  C50      1.0000 0.05910  0.25790  0.46130  Biso   1.000  C
  H17      1.0000 0.05790  0.23050  0.44680  Biso   1.000  H
  C51      1.0000 0.96620  0.28570  0.47202  Biso   1.000  C
  C52      1.0000 0.86790  0.27320  0.45994  Biso   1.000  C
  N7       1.0000 0.79100  0.26110  0.45040  Biso   1.000  N
  C53      1.0000 0.96660  0.32610  0.49409  Biso   1.000  C
  H18      1.0000 0.90420  0.34200  0.50130  Biso   1.000  H
  C54      1.0000 0.25310  0.24010  0.46107  Biso   1.000  C
  O21      1.0000 0.33970  0.25040  0.47094  Biso   1.000  O
  O22      1.0000 0.24520  0.20280  0.44164  Biso   1.000  O
  O23      1.0000 0.89660  0.56330  0.58100  Biso   1.000  O
  O24      1.0000 0.04240  0.65400  0.58800  Biso   1.000  O
  C55      1.0000 0.94780  0.63420  0.59107  Biso   1.000  C
  C56      1.0000 0.89010  0.69470  0.60863  Biso   1.000  C
  C57      1.0000 0.73100  0.71500  0.63030  Biso   1.000  C
  C58      1.0000 0.62100  0.69500  0.63230  Biso   1.000  C
  N8       1.0000 0.53500  0.66700  0.63520  Biso   1.000  N
  C59      1.0000 0.78470  0.66670  0.61230  Biso   1.000  C
  C60      1.0000 0.78210  0.77700  0.64500  Biso   1.000  C
  H19      1.0000 0.75160  0.61820  0.60310  Biso   1.000  H
  H20      1.0000 0.74740  0.80230  0.65770  Biso   1.000  H
  Dy5      1.0000 0.07470  0.34412  0.93854  Biso   1.000  Dy
  O25      1.0000 0.05220  0.63660  0.96754  Biso   1.000  O
  O26      1.0000 0.12780  0.48370  0.96012  Biso   1.000  O
  C61      1.0000 0.10970  0.56050  0.97208  Biso   1.000  C
  C62      1.0000 0.15870  0.56020  0.99534  Biso   1.000  C
  C63      1.0000 0.18540  0.65280  0.00598  Biso   1.000  C
  H21      1.0000 0.17450  0.71600  0.99860  Biso   1.000  H
  C64      1.0000 0.22850  0.65260  0.02765  Biso   1.000  C
  C65      1.0000 0.24210  0.55910  0.03870  Biso   1.000  C
  H22      1.0000 0.26950  0.55790  0.05320  Biso   1.000  H
  C66      1.0000 0.21430  0.46620  0.02798  Biso   1.000  C
  C67      1.0000 0.22680  0.36790  0.04006  Biso   1.000  C
  N9       1.0000 0.23890  0.29100  0.04960  Biso   1.000  N
  C68      1.0000 0.17390  0.46660  0.00591  Biso   1.000  C
  H23      1.0000 0.15800  0.40420  0.99870  Biso   1.000  H
  C69      1.0000 0.25990  0.75310  0.03893  Biso   1.000  C
  O27      1.0000 0.24960  0.83970  0.02906  Biso   1.000  O
  O28      1.0000 0.29720  0.74520  0.05836  Biso   1.000  O
  O29      1.0000 0.93670  0.39660  0.91900  Biso   1.000  O
  O30      1.0000 0.84600  0.54240  0.91200  Biso   1.000  O
  C70      1.0000 0.86580  0.44780  0.90893  Biso   1.000  C
  C71      1.0000 0.80530  0.39010  0.89137  Biso   1.000  C
  C72      1.0000 0.78500  0.23100  0.86970  Biso   1.000  C
  C73      1.0000 0.80500  0.12100  0.86770  Biso   1.000  C
  N10      1.0000 0.83300  0.03500  0.86480  Biso   1.000  N
  C74      1.0000 0.83330  0.28470  0.88770  Biso   1.000  C
  C75      1.0000 0.72300  0.28210  0.85500  Biso   1.000  C
  H24      1.0000 0.88180  0.25160  0.89690  Biso   1.000  H
  H25      1.0000 0.69770  0.24740  0.84230  Biso   1.000  H
  Dy6      1.0000 0.57470  0.84412  0.43854  Biso   1.000  Dy
  O31      1.0000 0.55220  0.13660  0.46754  Biso   1.000  O
  O32      1.0000 0.62780  0.98370  0.46012  Biso   1.000  O
  C76      1.0000 0.60970  0.06050  0.47208  Biso   1.000  C
  C77      1.0000 0.65870  0.06020  0.49534  Biso   1.000  C
  C78      1.0000 0.68540  0.15280  0.50598  Biso   1.000  C
  H26      1.0000 0.67450  0.21600  0.49860  Biso   1.000  H
  C79      1.0000 0.72850  0.15260  0.52765  Biso   1.000  C
  C80      1.0000 0.74210  0.05910  0.53870  Biso   1.000  C
  H27      1.0000 0.76950  0.05790  0.55320  Biso   1.000  H
  C81      1.0000 0.71430  0.96620  0.52798  Biso   1.000  C
  C82      1.0000 0.72680  0.86790  0.54006  Biso   1.000  C
  N11      1.0000 0.73890  0.79100  0.54960  Biso   1.000  N
  C83      1.0000 0.67390  0.96660  0.50591  Biso   1.000  C
  H28      1.0000 0.65800  0.90420  0.49870  Biso   1.000  H
  C84      1.0000 0.75990  0.25310  0.53893  Biso   1.000  C
  O33      1.0000 0.74960  0.33970  0.52906  Biso   1.000  O
  O34      1.0000 0.79720  0.24520  0.55836  Biso   1.000  O
  O35      1.0000 0.43670  0.89660  0.41900  Biso   1.000  O
  O36      1.0000 0.34600  0.04240  0.41200  Biso   1.000  O
  C85      1.0000 0.36580  0.94780  0.40893  Biso   1.000  C
  C86      1.0000 0.30530  0.89010  0.39137  Biso   1.000  C
  C87      1.0000 0.28500  0.73100  0.36970  Biso   1.000  C
  C88      1.0000 0.30500  0.62100  0.36770  Biso   1.000  C
  N12      1.0000 0.33300  0.53500  0.36480  Biso   1.000  N
  C89      1.0000 0.33330  0.78470  0.38770  Biso   1.000  C
  C90      1.0000 0.22300  0.78210  0.35500  Biso   1.000  C
  H29      1.0000 0.38180  0.75160  0.39690  Biso   1.000  H
  H30      1.0000 0.19770  0.74740  0.34230  Biso   1.000  H
  Dy7      1.0000 0.92530  0.65588  0.93854  Biso   1.000  Dy
  O37      1.0000 0.94780  0.36340  0.96754  Biso   1.000  O
  O38      1.0000 0.87220  0.51630  0.96012  Biso   1.000  O
  C91      1.0000 0.89030  0.43950  0.97208  Biso   1.000  C
  C92      1.0000 0.84130  0.43980  0.99534  Biso   1.000  C
  C93      1.0000 0.81460  0.34720  0.00598  Biso   1.000  C
  H31      1.0000 0.82550  0.28400  0.99860  Biso   1.000  H
  C94      1.0000 0.77150  0.34740  0.02765  Biso   1.000  C
  C95      1.0000 0.75790  0.44090  0.03870  Biso   1.000  C
  H32      1.0000 0.73050  0.44210  0.05320  Biso   1.000  H
  C96      1.0000 0.78570  0.53380  0.02798  Biso   1.000  C
  C97      1.0000 0.77320  0.63210  0.04006  Biso   1.000  C
  N13      1.0000 0.76110  0.70900  0.04960  Biso   1.000  N
  C98      1.0000 0.82610  0.53340  0.00591  Biso   1.000  C
  H33      1.0000 0.84200  0.59580  0.99870  Biso   1.000  H
  C99      1.0000 0.74010  0.24690  0.03893  Biso   1.000  C
  O39      1.0000 0.75040  0.16030  0.02906  Biso   1.000  O
  O40      1.0000 0.70280  0.25480  0.05836  Biso   1.000  O
  O41      1.0000 0.06330  0.60340  0.91900  Biso   1.000  O
  O42      1.0000 0.15400  0.45760  0.91200  Biso   1.000  O
  C100     1.0000 0.13420  0.55220  0.90893  Biso   1.000  C
  C101     1.0000 0.19470  0.60990  0.89137  Biso   1.000  C
  C102     1.0000 0.21500  0.76900  0.86970  Biso   1.000  C
  C103     1.0000 0.19500  0.87900  0.86770  Biso   1.000  C
  N14      1.0000 0.16700  0.96500  0.86480  Biso   1.000  N
  C104     1.0000 0.16670  0.71530  0.88770  Biso   1.000  C
  C105     1.0000 0.27700  0.71790  0.85500  Biso   1.000  C
  H34      1.0000 0.11820  0.74840  0.89690  Biso   1.000  H
  H35      1.0000 0.30230  0.75260  0.84230  Biso   1.000  H
  Dy8      1.0000 0.42530  0.15588  0.43854  Biso   1.000  Dy
  O43      1.0000 0.44780  0.86340  0.46754  Biso   1.000  O
  O44      1.0000 0.37220  0.01630  0.46012  Biso   1.000  O
  C106     1.0000 0.39030  0.93950  0.47208  Biso   1.000  C
  C107     1.0000 0.34130  0.93980  0.49534  Biso   1.000  C
  C108     1.0000 0.31460  0.84720  0.50598  Biso   1.000  C
  H36      1.0000 0.32550  0.78400  0.49860  Biso   1.000  H
  C109     1.0000 0.27150  0.84740  0.52765  Biso   1.000  C
  C110     1.0000 0.25790  0.94090  0.53870  Biso   1.000  C
  H37      1.0000 0.23050  0.94210  0.55320  Biso   1.000  H
  C111     1.0000 0.28570  0.03380  0.52798  Biso   1.000  C
  C112     1.0000 0.27320  0.13210  0.54006  Biso   1.000  C
  N15      1.0000 0.26110  0.20900  0.54960  Biso   1.000  N
  C113     1.0000 0.32610  0.03340  0.50591  Biso   1.000  C
  H38      1.0000 0.34200  0.09580  0.49870  Biso   1.000  H
  C114     1.0000 0.24010  0.74690  0.53893  Biso   1.000  C
  O45      1.0000 0.25040  0.66030  0.52906  Biso   1.000  O
  O46      1.0000 0.20280  0.75480  0.55836  Biso   1.000  O
  O47      1.0000 0.56330  0.10340  0.41900  Biso   1.000  O
  O48      1.0000 0.65400  0.95760  0.41200  Biso   1.000  O
  C115     1.0000 0.63420  0.05220  0.40893  Biso   1.000  C
  C116     1.0000 0.69470  0.10990  0.39137  Biso   1.000  C
  C117     1.0000 0.71500  0.26900  0.36970  Biso   1.000  C
  C118     1.0000 0.69500  0.37900  0.36770  Biso   1.000  C
  N16      1.0000 0.66700  0.46500  0.36480  Biso   1.000  N
  C119     1.0000 0.66670  0.21530  0.38770  Biso   1.000  C
  C120     1.0000 0.77700  0.21790  0.35500  Biso   1.000  C
  H39      1.0000 0.61820  0.24840  0.39690  Biso   1.000  H
  H40      1.0000 0.80230  0.25260  0.34230  Biso   1.000  H
  Dy9      1.0000 0.84412  0.07470  0.68854  Biso   1.000  Dy
  O49      1.0000 0.13660  0.05220  0.71754  Biso   1.000  O
  O50      1.0000 0.98370  0.12780  0.71012  Biso   1.000  O
  C121     1.0000 0.06050  0.10970  0.72208  Biso   1.000  C
  C122     1.0000 0.06020  0.15870  0.74534  Biso   1.000  C
  C123     1.0000 0.15280  0.18540  0.75598  Biso   1.000  C
  H41      1.0000 0.21600  0.17450  0.74860  Biso   1.000  H
  C124     1.0000 0.15260  0.22850  0.77765  Biso   1.000  C
  C125     1.0000 0.05910  0.24210  0.78870  Biso   1.000  C
  H42      1.0000 0.05790  0.26950  0.80320  Biso   1.000  H
  C126     1.0000 0.96620  0.21430  0.77798  Biso   1.000  C
  C127     1.0000 0.86790  0.22680  0.79006  Biso   1.000  C
  N17      1.0000 0.79100  0.23890  0.79960  Biso   1.000  N
  C128     1.0000 0.96660  0.17390  0.75591  Biso   1.000  C
  H43      1.0000 0.90420  0.15800  0.74870  Biso   1.000  H
  C129     1.0000 0.25310  0.25990  0.78893  Biso   1.000  C
  O51      1.0000 0.33970  0.24960  0.77906  Biso   1.000  O
  O52      1.0000 0.24520  0.29720  0.80836  Biso   1.000  O
  O53      1.0000 0.89660  0.93670  0.66900  Biso   1.000  O
  O54      1.0000 0.04240  0.84600  0.66200  Biso   1.000  O
  C130     1.0000 0.94780  0.86580  0.65893  Biso   1.000  C
  C131     1.0000 0.89010  0.80530  0.64137  Biso   1.000  C
  C132     1.0000 0.73100  0.78500  0.61970  Biso   1.000  C
  C133     1.0000 0.62100  0.80500  0.61770  Biso   1.000  C
  N18      1.0000 0.53500  0.83300  0.61480  Biso   1.000  N
  C134     1.0000 0.78470  0.83330  0.63770  Biso   1.000  C
  C135     1.0000 0.78210  0.72300  0.60500  Biso   1.000  C
  H44      1.0000 0.75160  0.88180  0.64690  Biso   1.000  H
  H45      1.0000 0.74740  0.69770  0.59230  Biso   1.000  H
  Dy10     1.0000 0.34412  0.57470  0.18854  Biso   1.000  Dy
  O55      1.0000 0.63660  0.55220  0.21754  Biso   1.000  O
  O56      1.0000 0.48370  0.62780  0.21012  Biso   1.000  O
  C136     1.0000 0.56050  0.60970  0.22208  Biso   1.000  C
  C137     1.0000 0.56020  0.65870  0.24534  Biso   1.000  C
  C138     1.0000 0.65280  0.68540  0.25598  Biso   1.000  C
  H46      1.0000 0.71600  0.67450  0.24860  Biso   1.000  H
  C139     1.0000 0.65260  0.72850  0.27765  Biso   1.000  C
  C140     1.0000 0.55910  0.74210  0.28870  Biso   1.000  C
  H47      1.0000 0.55790  0.76950  0.30320  Biso   1.000  H
  C141     1.0000 0.46620  0.71430  0.27798  Biso   1.000  C
  C142     1.0000 0.36790  0.72680  0.29006  Biso   1.000  C
  N19      1.0000 0.29100  0.73890  0.29960  Biso   1.000  N
  C143     1.0000 0.46660  0.67390  0.25591  Biso   1.000  C
  H48      1.0000 0.40420  0.65800  0.24870  Biso   1.000  H
  C144     1.0000 0.75310  0.75990  0.28893  Biso   1.000  C
  O57      1.0000 0.83970  0.74960  0.27906  Biso   1.000  O
  O58      1.0000 0.74520  0.79720  0.30836  Biso   1.000  O
  O59      1.0000 0.39660  0.43670  0.16900  Biso   1.000  O
  O60      1.0000 0.54240  0.34600  0.16200  Biso   1.000  O
  C145     1.0000 0.44780  0.36580  0.15893  Biso   1.000  C
  C146     1.0000 0.39010  0.30530  0.14137  Biso   1.000  C
  C147     1.0000 0.23100  0.28500  0.11970  Biso   1.000  C
  C148     1.0000 0.12100  0.30500  0.11770  Biso   1.000  C
  N20      1.0000 0.03500  0.33300  0.11480  Biso   1.000  N
  C149     1.0000 0.28470  0.33330  0.13770  Biso   1.000  C
  C150     1.0000 0.28210  0.22300  0.10500  Biso   1.000  C
  H49      1.0000 0.25160  0.38180  0.14690  Biso   1.000  H
  H50      1.0000 0.24740  0.19770  0.09230  Biso   1.000  H
  Dy11     1.0000 0.15588  0.92530  0.68854  Biso   1.000  Dy
  O61      1.0000 0.86340  0.94780  0.71754  Biso   1.000  O
  O62      1.0000 0.01630  0.87220  0.71012  Biso   1.000  O
  C151     1.0000 0.93950  0.89030  0.72208  Biso   1.000  C
  C152     1.0000 0.93980  0.84130  0.74534  Biso   1.000  C
  C153     1.0000 0.84720  0.81460  0.75598  Biso   1.000  C
  H51      1.0000 0.78400  0.82550  0.74860  Biso   1.000  H
  C154     1.0000 0.84740  0.77150  0.77765  Biso   1.000  C
  C155     1.0000 0.94090  0.75790  0.78870  Biso   1.000  C
  H52      1.0000 0.94210  0.73050  0.80320  Biso   1.000  H
  C156     1.0000 0.03380  0.78570  0.77798  Biso   1.000  C
  C157     1.0000 0.13210  0.77320  0.79006  Biso   1.000  C
  N21      1.0000 0.20900  0.76110  0.79960  Biso   1.000  N
  C158     1.0000 0.03340  0.82610  0.75591  Biso   1.000  C
  H53      1.0000 0.09580  0.84200  0.74870  Biso   1.000  H
  C159     1.0000 0.74690  0.74010  0.78893  Biso   1.000  C
  O63      1.0000 0.66030  0.75040  0.77906  Biso   1.000  O
  O64      1.0000 0.75480  0.70280  0.80836  Biso   1.000  O
  O65      1.0000 0.10340  0.06330  0.66900  Biso   1.000  O
  O66      1.0000 0.95760  0.15400  0.66200  Biso   1.000  O
  C160     1.0000 0.05220  0.13420  0.65893  Biso   1.000  C
  C161     1.0000 0.10990  0.19470  0.64137  Biso   1.000  C
  C162     1.0000 0.26900  0.21500  0.61970  Biso   1.000  C
  C163     1.0000 0.37900  0.19500  0.61770  Biso   1.000  C
  N22      1.0000 0.46500  0.16700  0.61480  Biso   1.000  N
  C164     1.0000 0.21530  0.16670  0.63770  Biso   1.000  C
  C165     1.0000 0.21790  0.27700  0.60500  Biso   1.000  C
  H54      1.0000 0.24840  0.11820  0.64690  Biso   1.000  H
  H55      1.0000 0.25260  0.30230  0.59230  Biso   1.000  H
  Dy12     1.0000 0.65588  0.42530  0.18854  Biso   1.000  Dy
  O67      1.0000 0.36340  0.44780  0.21754  Biso   1.000  O
  O68      1.0000 0.51630  0.37220  0.21012  Biso   1.000  O
  C166     1.0000 0.43950  0.39030  0.22208  Biso   1.000  C
  C167     1.0000 0.43980  0.34130  0.24534  Biso   1.000  C
  C168     1.0000 0.34720  0.31460  0.25598  Biso   1.000  C
  H56      1.0000 0.28400  0.32550  0.24860  Biso   1.000  H
  C169     1.0000 0.34740  0.27150  0.27765  Biso   1.000  C
  C170     1.0000 0.44090  0.25790  0.28870  Biso   1.000  C
  H57      1.0000 0.44210  0.23050  0.30320  Biso   1.000  H
  C171     1.0000 0.53380  0.28570  0.27798  Biso   1.000  C
  C172     1.0000 0.63210  0.27320  0.29006  Biso   1.000  C
  N23      1.0000 0.70900  0.26110  0.29960  Biso   1.000  N
  C173     1.0000 0.53340  0.32610  0.25591  Biso   1.000  C
  H58      1.0000 0.59580  0.34200  0.24870  Biso   1.000  H
  C174     1.0000 0.24690  0.24010  0.28893  Biso   1.000  C
  O69      1.0000 0.16030  0.25040  0.27906  Biso   1.000  O
  O70      1.0000 0.25480  0.20280  0.30836  Biso   1.000  O
  O71      1.0000 0.60340  0.56330  0.16900  Biso   1.000  O
  O72      1.0000 0.45760  0.65400  0.16200  Biso   1.000  O
  C175     1.0000 0.55220  0.63420  0.15893  Biso   1.000  C
  C176     1.0000 0.60990  0.69470  0.14137  Biso   1.000  C
  C177     1.0000 0.76900  0.71500  0.11970  Biso   1.000  C
  C178     1.0000 0.87900  0.69500  0.11770  Biso   1.000  C
  N24      1.0000 0.96500  0.66700  0.11480  Biso   1.000  N
  C179     1.0000 0.71530  0.66670  0.13770  Biso   1.000  C
  C180     1.0000 0.71790  0.77700  0.10500  Biso   1.000  C
  H59      1.0000 0.74840  0.61820  0.14690  Biso   1.000  H
  H60      1.0000 0.75260  0.80230  0.09230  Biso   1.000  H
  Dy13     1.0000 0.42530  0.34412  0.81146  Biso   1.000  Dy
  O73      1.0000 0.44780  0.63660  0.78246  Biso   1.000  O
  O74      1.0000 0.37220  0.48370  0.78988  Biso   1.000  O
  C181     1.0000 0.39030  0.56050  0.77792  Biso   1.000  C
  C182     1.0000 0.34130  0.56020  0.75466  Biso   1.000  C
  C183     1.0000 0.31460  0.65280  0.74402  Biso   1.000  C
  H61      1.0000 0.32550  0.71600  0.75140  Biso   1.000  H
  C184     1.0000 0.27150  0.65260  0.72235  Biso   1.000  C
  C185     1.0000 0.25790  0.55910  0.71130  Biso   1.000  C
  H62      1.0000 0.23050  0.55790  0.69680  Biso   1.000  H
  C186     1.0000 0.28570  0.46620  0.72202  Biso   1.000  C
  C187     1.0000 0.27320  0.36790  0.70994  Biso   1.000  C
  N25      1.0000 0.26110  0.29100  0.70040  Biso   1.000  N
  C188     1.0000 0.32610  0.46660  0.74409  Biso   1.000  C
  H63      1.0000 0.34200  0.40420  0.75130  Biso   1.000  H
  C189     1.0000 0.24010  0.75310  0.71107  Biso   1.000  C
  O75      1.0000 0.25040  0.83970  0.72094  Biso   1.000  O
  O76      1.0000 0.20280  0.74520  0.69164  Biso   1.000  O
  O77      1.0000 0.56330  0.39660  0.83100  Biso   1.000  O
  O78      1.0000 0.65400  0.54240  0.83800  Biso   1.000  O
  C190     1.0000 0.63420  0.44780  0.84107  Biso   1.000  C
  C191     1.0000 0.69470  0.39010  0.85863  Biso   1.000  C
  C192     1.0000 0.71500  0.23100  0.88030  Biso   1.000  C
  C193     1.0000 0.69500  0.12100  0.88230  Biso   1.000  C
  N26      1.0000 0.66700  0.03500  0.88520  Biso   1.000  N
  C194     1.0000 0.66670  0.28470  0.86230  Biso   1.000  C
  C195     1.0000 0.77700  0.28210  0.89500  Biso   1.000  C
  H64      1.0000 0.61820  0.25160  0.85310  Biso   1.000  H
  H65      1.0000 0.80230  0.24740  0.90770  Biso   1.000  H
  Dy14     1.0000 0.92530  0.84412  0.31146  Biso   1.000  Dy
  O79      1.0000 0.94780  0.13660  0.28246  Biso   1.000  O
  O80      1.0000 0.87220  0.98370  0.28988  Biso   1.000  O
  C196     1.0000 0.89030  0.06050  0.27792  Biso   1.000  C
  C197     1.0000 0.84130  0.06020  0.25466  Biso   1.000  C
  C198     1.0000 0.81460  0.15280  0.24402  Biso   1.000  C
  H66      1.0000 0.82550  0.21600  0.25140  Biso   1.000  H
  C199     1.0000 0.77150  0.15260  0.22235  Biso   1.000  C
  C200     1.0000 0.75790  0.05910  0.21130  Biso   1.000  C
  H67      1.0000 0.73050  0.05790  0.19680  Biso   1.000  H
  C201     1.0000 0.78570  0.96620  0.22202  Biso   1.000  C
  C202     1.0000 0.77320  0.86790  0.20994  Biso   1.000  C
  N27      1.0000 0.76110  0.79100  0.20040  Biso   1.000  N
  C203     1.0000 0.82610  0.96660  0.24409  Biso   1.000  C
  H68      1.0000 0.84200  0.90420  0.25130  Biso   1.000  H
  C204     1.0000 0.74010  0.25310  0.21107  Biso   1.000  C
  O81      1.0000 0.75040  0.33970  0.22094  Biso   1.000  O
  O82      1.0000 0.70280  0.24520  0.19164  Biso   1.000  O
  O83      1.0000 0.06330  0.89660  0.33100  Biso   1.000  O
  O84      1.0000 0.15400  0.04240  0.33800  Biso   1.000  O
  C205     1.0000 0.13420  0.94780  0.34107  Biso   1.000  C
  C206     1.0000 0.19470  0.89010  0.35863  Biso   1.000  C
  C207     1.0000 0.21500  0.73100  0.38030  Biso   1.000  C
  C208     1.0000 0.19500  0.62100  0.38230  Biso   1.000  C
  N28      1.0000 0.16700  0.53500  0.38520  Biso   1.000  N
  C209     1.0000 0.16670  0.78470  0.36230  Biso   1.000  C
  C210     1.0000 0.27700  0.78210  0.39500  Biso   1.000  C
  H69      1.0000 0.11820  0.75160  0.35310  Biso   1.000  H
  H70      1.0000 0.30230  0.74740  0.40770  Biso   1.000  H
  Dy15     1.0000 0.57470  0.65588  0.81146  Biso   1.000  Dy
  O85      1.0000 0.55220  0.36340  0.78246  Biso   1.000  O
  O86      1.0000 0.62780  0.51630  0.78988  Biso   1.000  O
  C211     1.0000 0.60970  0.43950  0.77792  Biso   1.000  C
  C212     1.0000 0.65870  0.43980  0.75466  Biso   1.000  C
  C213     1.0000 0.68540  0.34720  0.74402  Biso   1.000  C
  H71      1.0000 0.67450  0.28400  0.75140  Biso   1.000  H
  C214     1.0000 0.72850  0.34740  0.72235  Biso   1.000  C
  C215     1.0000 0.74210  0.44090  0.71130  Biso   1.000  C
  H72      1.0000 0.76950  0.44210  0.69680  Biso   1.000  H
  C216     1.0000 0.71430  0.53380  0.72202  Biso   1.000  C
  C217     1.0000 0.72680  0.63210  0.70994  Biso   1.000  C
  N29      1.0000 0.73890  0.70900  0.70040  Biso   1.000  N
  C218     1.0000 0.67390  0.53340  0.74409  Biso   1.000  C
  H73      1.0000 0.65800  0.59580  0.75130  Biso   1.000  H
  C219     1.0000 0.75990  0.24690  0.71107  Biso   1.000  C
  O87      1.0000 0.74960  0.16030  0.72094  Biso   1.000  O
  O88      1.0000 0.79720  0.25480  0.69164  Biso   1.000  O
  O89      1.0000 0.43670  0.60340  0.83100  Biso   1.000  O
  O90      1.0000 0.34600  0.45760  0.83800  Biso   1.000  O
  C220     1.0000 0.36580  0.55220  0.84107  Biso   1.000  C
  C221     1.0000 0.30530  0.60990  0.85863  Biso   1.000  C
  C222     1.0000 0.28500  0.76900  0.88030  Biso   1.000  C
  C223     1.0000 0.30500  0.87900  0.88230  Biso   1.000  C
  N30      1.0000 0.33300  0.96500  0.88520  Biso   1.000  N
  C224     1.0000 0.33330  0.71530  0.86230  Biso   1.000  C
  C225     1.0000 0.22300  0.71790  0.89500  Biso   1.000  C
  H74      1.0000 0.38180  0.74840  0.85310  Biso   1.000  H
  H75      1.0000 0.19770  0.75260  0.90770  Biso   1.000  H
  Dy16     1.0000 0.07470  0.15588  0.31146  Biso   1.000  Dy
  O91      1.0000 0.05220  0.86340  0.28246  Biso   1.000  O
  O92      1.0000 0.12780  0.01630  0.28988  Biso   1.000  O
  C226     1.0000 0.10970  0.93950  0.27792  Biso   1.000  C
  C227     1.0000 0.15870  0.93980  0.25466  Biso   1.000  C
  C228     1.0000 0.18540  0.84720  0.24402  Biso   1.000  C
  H76      1.0000 0.17450  0.78400  0.25140  Biso   1.000  H
  C229     1.0000 0.22850  0.84740  0.22235  Biso   1.000  C
  C230     1.0000 0.24210  0.94090  0.21130  Biso   1.000  C
  H77      1.0000 0.26950  0.94210  0.19680  Biso   1.000  H
  C231     1.0000 0.21430  0.03380  0.22202  Biso   1.000  C
  C232     1.0000 0.22680  0.13210  0.20994  Biso   1.000  C
  N31      1.0000 0.23890  0.20900  0.20040  Biso   1.000  N
  C233     1.0000 0.17390  0.03340  0.24409  Biso   1.000  C
  H78      1.0000 0.15800  0.09580  0.25130  Biso   1.000  H
  C234     1.0000 0.25990  0.74690  0.21107  Biso   1.000  C
  O93      1.0000 0.24960  0.66030  0.22094  Biso   1.000  O
  O94      1.0000 0.29720  0.75480  0.19164  Biso   1.000  O
  O95      1.0000 0.93670  0.10340  0.33100  Biso   1.000  O
  O96      1.0000 0.84600  0.95760  0.33800  Biso   1.000  O
  C235     1.0000 0.86580  0.05220  0.34107  Biso   1.000  C
  C236     1.0000 0.80530  0.10990  0.35863  Biso   1.000  C
  C237     1.0000 0.78500  0.26900  0.38030  Biso   1.000  C
  C238     1.0000 0.80500  0.37900  0.38230  Biso   1.000  C
  N32      1.0000 0.83300  0.46500  0.38520  Biso   1.000  N
  C239     1.0000 0.83330  0.21530  0.36230  Biso   1.000  C
  C240     1.0000 0.72300  0.21790  0.39500  Biso   1.000  C
  H79      1.0000 0.88180  0.24840  0.35310  Biso   1.000  H
  H80      1.0000 0.69770  0.25260  0.40770  Biso   1.000  H
  C241     1.0000 0.55720  0.75000  0.12500  Biso   1.000  C
  H81      1.0000 0.48460  0.75000  0.12500  Biso   1.000  H
  C242     1.0000 0.05720  0.25000  0.62500  Biso   1.000  C
  H82      1.0000 0.98460  0.25000  0.62500  Biso   1.000  H
  C243     1.0000 0.44280  0.25000  0.12500  Biso   1.000  C
  H83      1.0000 0.51540  0.25000  0.12500  Biso   1.000  H
  C244     1.0000 0.75000  0.44280  0.87500  Biso   1.000  C
  H84      1.0000 0.75000  0.51540  0.87500  Biso   1.000  H
  C245     1.0000 0.25000  0.94280  0.37500  Biso   1.000  C
  H85      1.0000 0.25000  0.01540  0.37500  Biso   1.000  H
  C246     1.0000 0.25000  0.55720  0.87500  Biso   1.000  C
  H86      1.0000 0.25000  0.48460  0.87500  Biso   1.000  H
  C247     1.0000 0.75000  0.05720  0.37500  Biso   1.000  C
  H87      1.0000 0.75000  0.98460  0.37500  Biso   1.000  H
  C248     1.0000 0.94280  0.75000  0.62500  Biso   1.000  C
  H88      1.0000 0.01540  0.75000  0.62500  Biso   1.000  H
