data_image0
_cell_length_a       7.16
_cell_length_b       34.398
_cell_length_c       19.626
_cell_angle_alpha    90
_cell_angle_beta     90
_cell_angle_gamma    90

_symmetry_space_group_name_H-M    "P 1"
_symmetry_int_tables_number       1

loop_
  _symmetry_equiv_pos_as_xyz
  'x, y, z'

loop_
  _atom_site_label
  _atom_site_occupancy
  _atom_site_fract_x
  _atom_site_fract_y
  _atom_site_fract_z
  _atom_site_thermal_displace_type
  _atom_site_B_iso_or_equiv
  _atom_site_type_symbol
  C1       1.0000 0.66150  0.61440  0.70510  Biso   1.000  C
  C2       1.0000 0.66110  0.64070  0.75760  Biso   1.000  C
  N1       1.0000 0.65450  0.69478  0.87280  Biso   1.000  N
  N2       1.0000 0.59320  0.71766  0.92308  Biso   1.000  N
  C3       1.0000 0.10300  0.47100  0.45700  Biso   1.000  C
  H1       1.0000 0.77560  0.60420  0.68860  Biso   1.000  H
  H2       1.0000 0.77540  0.64960  0.77630  Biso   1.000  H
  H3       1.0000 0.15020  0.52260  0.40390  Biso   1.000  H
  H4       1.0000 0.15690  0.47890  0.40230  Biso   1.000  H
  H5       1.0000 0.15130  0.44650  0.45890  Biso   1.000  H
  H6       1.0000 0.85350  0.44430  0.53990  Biso   1.000  H
  C4       1.0000 0.16150  0.11440  0.70510  Biso   1.000  C
  C5       1.0000 0.16110  0.14070  0.75760  Biso   1.000  C
  N3       1.0000 0.15450  0.19478  0.87280  Biso   1.000  N
  N4       1.0000 0.09320  0.21766  0.92308  Biso   1.000  N
  C6       1.0000 0.60300  0.97100  0.45700  Biso   1.000  C
  H7       1.0000 0.27560  0.10420  0.68860  Biso   1.000  H
  H8       1.0000 0.27540  0.14960  0.77630  Biso   1.000  H
  H9       1.0000 0.65020  0.02260  0.40390  Biso   1.000  H
  H10      1.0000 0.65690  0.97890  0.40230  Biso   1.000  H
  H11      1.0000 0.65130  0.94650  0.45890  Biso   1.000  H
  H12      1.0000 0.35350  0.94430  0.53990  Biso   1.000  H
  C7       1.0000 0.33850  0.38560  0.70510  Biso   1.000  C
  C8       1.0000 0.33890  0.35930  0.75760  Biso   1.000  C
  N5       1.0000 0.34550  0.30522  0.87280  Biso   1.000  N
  N6       1.0000 0.40680  0.28234  0.92308  Biso   1.000  N
  C9       1.0000 0.89700  0.52900  0.45700  Biso   1.000  C
  H13      1.0000 0.22440  0.39580  0.68860  Biso   1.000  H
  H14      1.0000 0.22460  0.35040  0.77630  Biso   1.000  H
  H15      1.0000 0.84980  0.47740  0.40390  Biso   1.000  H
  H16      1.0000 0.84310  0.52110  0.40230  Biso   1.000  H
  H17      1.0000 0.84870  0.55350  0.45890  Biso   1.000  H
  H18      1.0000 0.14650  0.55570  0.53990  Biso   1.000  H
  C10      1.0000 0.83850  0.88560  0.70510  Biso   1.000  C
  C11      1.0000 0.83890  0.85930  0.75760  Biso   1.000  C
  N7       1.0000 0.84550  0.80522  0.87280  Biso   1.000  N
  N8       1.0000 0.90680  0.78234  0.92308  Biso   1.000  N
  C12      1.0000 0.39700  0.02900  0.45700  Biso   1.000  C
  H19      1.0000 0.72440  0.89580  0.68860  Biso   1.000  H
  H20      1.0000 0.72460  0.85040  0.77630  Biso   1.000  H
  H21      1.0000 0.34980  0.97740  0.40390  Biso   1.000  H
  H22      1.0000 0.34310  0.02110  0.40230  Biso   1.000  H
  H23      1.0000 0.34870  0.05350  0.45890  Biso   1.000  H
  H24      1.0000 0.64650  0.05570  0.53990  Biso   1.000  H
  C13      1.0000 0.33850  0.61440  0.29490  Biso   1.000  C
  C14      1.0000 0.33890  0.64070  0.24240  Biso   1.000  C
  N9       1.0000 0.34550  0.69478  0.12720  Biso   1.000  N
  N10      1.0000 0.40680  0.71766  0.07692  Biso   1.000  N
  C15      1.0000 0.89700  0.47100  0.54300  Biso   1.000  C
  H25      1.0000 0.22440  0.60420  0.31140  Biso   1.000  H
  H26      1.0000 0.22460  0.64960  0.22370  Biso   1.000  H
  H27      1.0000 0.84980  0.52260  0.59610  Biso   1.000  H
  H28      1.0000 0.84310  0.47890  0.59770  Biso   1.000  H
  H29      1.0000 0.84870  0.44650  0.54110  Biso   1.000  H
  H30      1.0000 0.14650  0.44430  0.46010  Biso   1.000  H
  C16      1.0000 0.83850  0.11440  0.29490  Biso   1.000  C
  C17      1.0000 0.83890  0.14070  0.24240  Biso   1.000  C
  N11      1.0000 0.84550  0.19478  0.12720  Biso   1.000  N
  N12      1.0000 0.90680  0.21766  0.07692  Biso   1.000  N
  C18      1.0000 0.39700  0.97100  0.54300  Biso   1.000  C
  H31      1.0000 0.72440  0.10420  0.31140  Biso   1.000  H
  H32      1.0000 0.72460  0.14960  0.22370  Biso   1.000  H
  H33      1.0000 0.34980  0.02260  0.59610  Biso   1.000  H
  H34      1.0000 0.34310  0.97890  0.59770  Biso   1.000  H
  H35      1.0000 0.34870  0.94650  0.54110  Biso   1.000  H
  H36      1.0000 0.64650  0.94430  0.46010  Biso   1.000  H
  C19      1.0000 0.66150  0.38560  0.29490  Biso   1.000  C
  C20      1.0000 0.66110  0.35930  0.24240  Biso   1.000  C
  N13      1.0000 0.65450  0.30522  0.12720  Biso   1.000  N
  N14      1.0000 0.59320  0.28234  0.07692  Biso   1.000  N
  C21      1.0000 0.10300  0.52900  0.54300  Biso   1.000  C
  H37      1.0000 0.77560  0.39580  0.31140  Biso   1.000  H
  H38      1.0000 0.77540  0.35040  0.22370  Biso   1.000  H
  H39      1.0000 0.15020  0.47740  0.59610  Biso   1.000  H
  H40      1.0000 0.15690  0.52110  0.59770  Biso   1.000  H
  H41      1.0000 0.15130  0.55350  0.54110  Biso   1.000  H
  H42      1.0000 0.85350  0.55570  0.46010  Biso   1.000  H
  C22      1.0000 0.16150  0.88560  0.29490  Biso   1.000  C
  C23      1.0000 0.16110  0.85930  0.24240  Biso   1.000  C
  N15      1.0000 0.15450  0.80522  0.12720  Biso   1.000  N
  N16      1.0000 0.09320  0.78234  0.07692  Biso   1.000  N
  C24      1.0000 0.60300  0.02900  0.54300  Biso   1.000  C
  H43      1.0000 0.27560  0.89580  0.31140  Biso   1.000  H
  H44      1.0000 0.27540  0.85040  0.22370  Biso   1.000  H
  H45      1.0000 0.65020  0.97740  0.59610  Biso   1.000  H
  H46      1.0000 0.65690  0.02110  0.59770  Biso   1.000  H
  H47      1.0000 0.65130  0.05350  0.54110  Biso   1.000  H
  H48      1.0000 0.35350  0.05570  0.46010  Biso   1.000  H
  C25      1.0000 0.33850  0.38560  0.29490  Biso   1.000  C
  C26      1.0000 0.33890  0.35930  0.24240  Biso   1.000  C
  N17      1.0000 0.34550  0.30522  0.12720  Biso   1.000  N
  N18      1.0000 0.40680  0.28234  0.07692  Biso   1.000  N
  C27      1.0000 0.89700  0.52900  0.54300  Biso   1.000  C
  H49      1.0000 0.22440  0.39580  0.31140  Biso   1.000  H
  H50      1.0000 0.22460  0.35040  0.22370  Biso   1.000  H
  H51      1.0000 0.84980  0.47740  0.59610  Biso   1.000  H
  H52      1.0000 0.84310  0.52110  0.59770  Biso   1.000  H
  H53      1.0000 0.84870  0.55350  0.54110  Biso   1.000  H
  H54      1.0000 0.14650  0.55570  0.46010  Biso   1.000  H
  C28      1.0000 0.83850  0.88560  0.29490  Biso   1.000  C
  C29      1.0000 0.83890  0.85930  0.24240  Biso   1.000  C
  N19      1.0000 0.84550  0.80522  0.12720  Biso   1.000  N
  N20      1.0000 0.90680  0.78234  0.07692  Biso   1.000  N
  C30      1.0000 0.39700  0.02900  0.54300  Biso   1.000  C
  H55      1.0000 0.72440  0.89580  0.31140  Biso   1.000  H
  H56      1.0000 0.72460  0.85040  0.22370  Biso   1.000  H
  H57      1.0000 0.34980  0.97740  0.59610  Biso   1.000  H
  H58      1.0000 0.34310  0.02110  0.59770  Biso   1.000  H
  H59      1.0000 0.34870  0.05350  0.54110  Biso   1.000  H
  H60      1.0000 0.64650  0.05570  0.46010  Biso   1.000  H
  C31      1.0000 0.66150  0.61440  0.29490  Biso   1.000  C
  C32      1.0000 0.66110  0.64070  0.24240  Biso   1.000  C
  N21      1.0000 0.65450  0.69478  0.12720  Biso   1.000  N
  N22      1.0000 0.59320  0.71766  0.07692  Biso   1.000  N
  C33      1.0000 0.10300  0.47100  0.54300  Biso   1.000  C
  H61      1.0000 0.77560  0.60420  0.31140  Biso   1.000  H
  H62      1.0000 0.77540  0.64960  0.22370  Biso   1.000  H
  H63      1.0000 0.15020  0.52260  0.59610  Biso   1.000  H
  H64      1.0000 0.15690  0.47890  0.59770  Biso   1.000  H
  H65      1.0000 0.15130  0.44650  0.54110  Biso   1.000  H
  H66      1.0000 0.85350  0.44430  0.46010  Biso   1.000  H
  C34      1.0000 0.16150  0.11440  0.29490  Biso   1.000  C
  C35      1.0000 0.16110  0.14070  0.24240  Biso   1.000  C
  N23      1.0000 0.15450  0.19478  0.12720  Biso   1.000  N
  N24      1.0000 0.09320  0.21766  0.07692  Biso   1.000  N
  C36      1.0000 0.60300  0.97100  0.54300  Biso   1.000  C
  H67      1.0000 0.27560  0.10420  0.31140  Biso   1.000  H
  H68      1.0000 0.27540  0.14960  0.22370  Biso   1.000  H
  H69      1.0000 0.65020  0.02260  0.59610  Biso   1.000  H
  H70      1.0000 0.65690  0.97890  0.59770  Biso   1.000  H
  H71      1.0000 0.65130  0.94650  0.54110  Biso   1.000  H
  H72      1.0000 0.35350  0.94430  0.46010  Biso   1.000  H
  C37      1.0000 0.66150  0.38560  0.70510  Biso   1.000  C
  C38      1.0000 0.66110  0.35930  0.75760  Biso   1.000  C
  N25      1.0000 0.65450  0.30522  0.87280  Biso   1.000  N
  N26      1.0000 0.59320  0.28234  0.92308  Biso   1.000  N
  C39      1.0000 0.10300  0.52900  0.45700  Biso   1.000  C
  H73      1.0000 0.77560  0.39580  0.68860  Biso   1.000  H
  H74      1.0000 0.77540  0.35040  0.77630  Biso   1.000  H
  H75      1.0000 0.15020  0.47740  0.40390  Biso   1.000  H
  H76      1.0000 0.15690  0.52110  0.40230  Biso   1.000  H
  H77      1.0000 0.15130  0.55350  0.45890  Biso   1.000  H
  H78      1.0000 0.85350  0.55570  0.53990  Biso   1.000  H
  C40      1.0000 0.16150  0.88560  0.70510  Biso   1.000  C
  C41      1.0000 0.16110  0.85930  0.75760  Biso   1.000  C
  N27      1.0000 0.15450  0.80522  0.87280  Biso   1.000  N
  N28      1.0000 0.09320  0.78234  0.92308  Biso   1.000  N
  C42      1.0000 0.60300  0.02900  0.45700  Biso   1.000  C
  H79      1.0000 0.27560  0.89580  0.68860  Biso   1.000  H
  H80      1.0000 0.27540  0.85040  0.77630  Biso   1.000  H
  H81      1.0000 0.65020  0.97740  0.40390  Biso   1.000  H
  H82      1.0000 0.65690  0.02110  0.40230  Biso   1.000  H
  H83      1.0000 0.65130  0.05350  0.45890  Biso   1.000  H
  H84      1.0000 0.35350  0.05570  0.53990  Biso   1.000  H
  C43      1.0000 0.33850  0.61440  0.70510  Biso   1.000  C
  C44      1.0000 0.33890  0.64070  0.75760  Biso   1.000  C
  N29      1.0000 0.34550  0.69478  0.87280  Biso   1.000  N
  N30      1.0000 0.40680  0.71766  0.92308  Biso   1.000  N
  C45      1.0000 0.89700  0.47100  0.45700  Biso   1.000  C
  H85      1.0000 0.22440  0.60420  0.68860  Biso   1.000  H
  H86      1.0000 0.22460  0.64960  0.77630  Biso   1.000  H
  H87      1.0000 0.84980  0.52260  0.40390  Biso   1.000  H
  H88      1.0000 0.84310  0.47890  0.40230  Biso   1.000  H
  H89      1.0000 0.84870  0.44650  0.45890  Biso   1.000  H
  H90      1.0000 0.14650  0.44430  0.53990  Biso   1.000  H
  C46      1.0000 0.83850  0.11440  0.70510  Biso   1.000  C
  C47      1.0000 0.83890  0.14070  0.75760  Biso   1.000  C
  N31      1.0000 0.84550  0.19478  0.87280  Biso   1.000  N
  N32      1.0000 0.90680  0.21766  0.92308  Biso   1.000  N
  C48      1.0000 0.39700  0.97100  0.45700  Biso   1.000  C
  H91      1.0000 0.72440  0.10420  0.68860  Biso   1.000  H
  H92      1.0000 0.72460  0.14960  0.77630  Biso   1.000  H
  H93      1.0000 0.34980  0.02260  0.40390  Biso   1.000  H
  H94      1.0000 0.34310  0.97890  0.40230  Biso   1.000  H
  H95      1.0000 0.34870  0.94650  0.45890  Biso   1.000  H
  H96      1.0000 0.64650  0.94430  0.53990  Biso   1.000  H
  Fe1      1.0000 0.50000  0.50000  0.50000  Biso   1.000  Fe
  Fe2      1.0000 0.00000  0.00000  0.50000  Biso   1.000  Fe
  N33      1.0000 0.50000  0.50000  0.60270  Biso   1.000  N
  N34      1.0000 0.00000  0.00000  0.60270  Biso   1.000  N
  N35      1.0000 0.50000  0.50000  0.39730  Biso   1.000  N
  N36      1.0000 0.00000  0.00000  0.39730  Biso   1.000  N
  C49      1.0000 0.50000  0.53205  0.64490  Biso   1.000  C
  C50      1.0000 0.50000  0.57031  0.62380  Biso   1.000  C
  C51      1.0000 0.50000  0.58246  0.55630  Biso   1.000  C
  C52      1.0000 0.50000  0.62266  0.53380  Biso   1.000  C
  C53      1.0000 0.50000  0.60101  0.67860  Biso   1.000  C
  C54      1.0000 0.50000  0.65430  0.78480  Biso   1.000  C
  C55      1.0000 0.50000  0.68160  0.84250  Biso   1.000  C
  C56      1.0000 0.50000  0.51936  0.71510  Biso   1.000  C
  H97      1.0000 0.50000  0.53590  0.75420  Biso   1.000  H
  H98      1.0000 0.50000  0.64500  0.56240  Biso   1.000  H
  C57      1.0000 0.00000  0.03205  0.64490  Biso   1.000  C
  C58      1.0000 0.00000  0.07031  0.62380  Biso   1.000  C
  C59      1.0000 0.00000  0.08246  0.55630  Biso   1.000  C
  C60      1.0000 0.00000  0.12266  0.53380  Biso   1.000  C
  C61      1.0000 0.00000  0.10101  0.67860  Biso   1.000  C
  C62      1.0000 0.00000  0.15430  0.78480  Biso   1.000  C
  C63      1.0000 0.00000  0.18160  0.84250  Biso   1.000  C
  C64      1.0000 0.00000  0.01936  0.71510  Biso   1.000  C
  H99      1.0000 0.00000  0.03590  0.75420  Biso   1.000  H
  H100     1.0000 0.00000  0.14500  0.56240  Biso   1.000  H
  C65      1.0000 0.50000  0.46795  0.64490  Biso   1.000  C
  C66      1.0000 0.50000  0.42969  0.62380  Biso   1.000  C
  C67      1.0000 0.50000  0.41754  0.55630  Biso   1.000  C
  C68      1.0000 0.50000  0.37734  0.53380  Biso   1.000  C
  C69      1.0000 0.50000  0.39899  0.67860  Biso   1.000  C
  C70      1.0000 0.50000  0.34570  0.78480  Biso   1.000  C
  C71      1.0000 0.50000  0.31840  0.84250  Biso   1.000  C
  C72      1.0000 0.50000  0.48064  0.71510  Biso   1.000  C
  H101     1.0000 0.50000  0.46410  0.75420  Biso   1.000  H
  H102     1.0000 0.50000  0.35500  0.56240  Biso   1.000  H
  C73      1.0000 0.00000  0.96795  0.64490  Biso   1.000  C
  C74      1.0000 0.00000  0.92969  0.62380  Biso   1.000  C
  C75      1.0000 0.00000  0.91754  0.55630  Biso   1.000  C
  C76      1.0000 0.00000  0.87734  0.53380  Biso   1.000  C
  C77      1.0000 0.00000  0.89899  0.67860  Biso   1.000  C
  C78      1.0000 0.00000  0.84570  0.78480  Biso   1.000  C
  C79      1.0000 0.00000  0.81840  0.84250  Biso   1.000  C
  C80      1.0000 0.00000  0.98064  0.71510  Biso   1.000  C
  H103     1.0000 0.00000  0.96410  0.75420  Biso   1.000  H
  H104     1.0000 0.00000  0.85500  0.56240  Biso   1.000  H
  C81      1.0000 0.50000  0.53205  0.35510  Biso   1.000  C
  C82      1.0000 0.50000  0.57031  0.37620  Biso   1.000  C
  C83      1.0000 0.50000  0.58246  0.44370  Biso   1.000  C
  C84      1.0000 0.50000  0.62266  0.46620  Biso   1.000  C
  C85      1.0000 0.50000  0.60101  0.32140  Biso   1.000  C
  C86      1.0000 0.50000  0.65430  0.21520  Biso   1.000  C
  C87      1.0000 0.50000  0.68160  0.15750  Biso   1.000  C
  C88      1.0000 0.50000  0.51936  0.28490  Biso   1.000  C
  H105     1.0000 0.50000  0.53590  0.24580  Biso   1.000  H
  H106     1.0000 0.50000  0.64500  0.43760  Biso   1.000  H
  C89      1.0000 0.00000  0.03205  0.35510  Biso   1.000  C
  C90      1.0000 0.00000  0.07031  0.37620  Biso   1.000  C
  C91      1.0000 0.00000  0.08246  0.44370  Biso   1.000  C
  C92      1.0000 0.00000  0.12266  0.46620  Biso   1.000  C
  C93      1.0000 0.00000  0.10101  0.32140  Biso   1.000  C
  C94      1.0000 0.00000  0.15430  0.21520  Biso   1.000  C
  C95      1.0000 0.00000  0.18160  0.15750  Biso   1.000  C
  C96      1.0000 0.00000  0.01936  0.28490  Biso   1.000  C
  H107     1.0000 0.00000  0.03590  0.24580  Biso   1.000  H
  H108     1.0000 0.00000  0.14500  0.43760  Biso   1.000  H
  C97      1.0000 0.50000  0.46795  0.35510  Biso   1.000  C
  C98      1.0000 0.50000  0.42969  0.37620  Biso   1.000  C
  C99      1.0000 0.50000  0.41754  0.44370  Biso   1.000  C
  C100     1.0000 0.50000  0.37734  0.46620  Biso   1.000  C
  C101     1.0000 0.50000  0.39899  0.32140  Biso   1.000  C
  C102     1.0000 0.50000  0.34570  0.21520  Biso   1.000  C
  C103     1.0000 0.50000  0.31840  0.15750  Biso   1.000  C
  C104     1.0000 0.50000  0.48064  0.28490  Biso   1.000  C
  H109     1.0000 0.50000  0.46410  0.24580  Biso   1.000  H
  H110     1.0000 0.50000  0.35500  0.43760  Biso   1.000  H
  C105     1.0000 0.00000  0.96795  0.35510  Biso   1.000  C
  C106     1.0000 0.00000  0.92969  0.37620  Biso   1.000  C
  C107     1.0000 0.00000  0.91754  0.44370  Biso   1.000  C
  C108     1.0000 0.00000  0.87734  0.46620  Biso   1.000  C
  C109     1.0000 0.00000  0.89899  0.32140  Biso   1.000  C
  C110     1.0000 0.00000  0.84570  0.21520  Biso   1.000  C
  C111     1.0000 0.00000  0.81840  0.15750  Biso   1.000  C
  C112     1.0000 0.00000  0.98064  0.28490  Biso   1.000  C
  H111     1.0000 0.00000  0.96410  0.24580  Biso   1.000  H
  H112     1.0000 0.00000  0.85500  0.43760  Biso   1.000  H
  N37      1.0000 0.50000  0.55841  0.50000  Biso   1.000  N
  N38      1.0000 0.00000  0.05841  0.50000  Biso   1.000  N
  N39      1.0000 0.50000  0.44159  0.50000  Biso   1.000  N
  N40      1.0000 0.00000  0.94159  0.50000  Biso   1.000  N
  Fe3      1.0000 0.75000  0.75000  0.00000  Biso   1.000  Fe
  Fe4      1.0000 0.25000  0.25000  0.00000  Biso   1.000  Fe
  Fe5      1.0000 0.25000  0.75000  0.00000  Biso   1.000  Fe
  Fe6      1.0000 0.75000  0.25000  0.00000  Biso   1.000  Fe
  O1       1.0000 0.00000  0.71310  0.00000  Biso   1.000  O
  O2       1.0000 0.50000  0.21310  0.00000  Biso   1.000  O
  O3       1.0000 0.00000  0.28690  0.00000  Biso   1.000  O
  O4       1.0000 0.50000  0.78690  0.00000  Biso   1.000  O
  N41      1.0000 0.18340  0.50000  0.50000  Biso   1.000  N
  N42      1.0000 0.68340  0.00000  0.50000  Biso   1.000  N
  N43      1.0000 0.81660  0.50000  0.50000  Biso   1.000  N
  N44      1.0000 0.31660  0.00000  0.50000  Biso   1.000  N
  C113     1.0000 0.89300  0.45740  0.50000  Biso   1.000  C
  C114     1.0000 0.39300  0.95740  0.50000  Biso   1.000  C
  C115     1.0000 0.10700  0.54260  0.50000  Biso   1.000  C
  C116     1.0000 0.60700  0.04260  0.50000  Biso   1.000  C
  C117     1.0000 0.10700  0.45740  0.50000  Biso   1.000  C
  C118     1.0000 0.60700  0.95740  0.50000  Biso   1.000  C
  C119     1.0000 0.89300  0.54260  0.50000  Biso   1.000  C
  C120     1.0000 0.39300  0.04260  0.50000  Biso   1.000  C
  C121     1.0000 0.10800  0.50000  0.42730  Biso   1.000  C
  C122     1.0000 0.60800  0.00000  0.42730  Biso   1.000  C
  C123     1.0000 0.89200  0.50000  0.42730  Biso   1.000  C
  C124     1.0000 0.39200  0.00000  0.42730  Biso   1.000  C
  C125     1.0000 0.89200  0.50000  0.57270  Biso   1.000  C
  C126     1.0000 0.39200  0.00000  0.57270  Biso   1.000  C
  C127     1.0000 0.10800  0.50000  0.57270  Biso   1.000  C
  C128     1.0000 0.60800  0.00000  0.57270  Biso   1.000  C
