data_image0
_cell_length_a       16.004
_cell_length_b       16.064
_cell_length_c       19.532
_cell_angle_alpha    103.728
_cell_angle_beta     100.696
_cell_angle_gamma    117.94

_symmetry_space_group_name_H-M    "P 1"
_symmetry_int_tables_number       1

loop_
  _symmetry_equiv_pos_as_xyz
  'x, y, z'

loop_
  _atom_site_label
  _atom_site_occupancy
  _atom_site_fract_x
  _atom_site_fract_y
  _atom_site_fract_z
  _atom_site_thermal_displace_type
  _atom_site_B_iso_or_equiv
  _atom_site_type_symbol
  Ag1      1.0000 0.50548  0.69054  0.36971  Biso   1.000  Ag
  Ag2      1.0000 0.56832  0.56311  0.45709  Biso   1.000  Ag
  Ag3      1.0000 0.70024  0.50284  0.38593  Biso   1.000  Ag
  Ag4      1.0000 0.65948  0.54207  0.24061  Biso   1.000  Ag
  Ag5      1.0000 0.62835  0.70358  0.26213  Biso   1.000  Ag
  Ag6      1.0000 0.76779  0.77125  0.45714  Biso   1.000  Ag
  Ag7      1.0000 0.45223  0.47102  0.27042  Biso   1.000  Ag
  Ag8      1.0000 0.66330  0.76890  0.13344  Biso   1.000  Ag
  Ag9      1.0000 0.77891  0.68207  0.16448  Biso   1.000  Ag
  Ag10     1.0000 0.46226  0.40384  0.01270  Biso   1.000  Ag
  Ag11     1.0000 0.45751  0.62741  0.12145  Biso   1.000  Ag
  Ag12     1.0000 0.66744  0.45813  0.08741  Biso   1.000  Ag
  Ag13     1.0000 0.97978  0.96841  0.17652  Biso   1.000  Ag
  C1       1.0000 0.64220  0.58880  0.35850  Biso   1.000  C
  C2       1.0000 0.59930  0.63500  0.35620  Biso   1.000  C
  C3       1.0000 0.60780  0.54790  0.11840  Biso   1.000  C
  C4       1.0000 0.57340  0.60010  0.12110  Biso   1.000  C
  C5       1.0000 0.08440  0.85650  0.21270  Biso   1.000  C
  H1       1.0000 0.04110  0.83770  0.23970  Biso   1.000  H
  C6       1.0000 0.14330  0.81790  0.20880  Biso   1.000  C
  H2       1.0000 0.14020  0.77440  0.23380  Biso   1.000  H
  C7       1.0000 0.20790  0.84180  0.16860  Biso   1.000  C
  C8       1.0000 0.26680  0.79410  0.15790  Biso   1.000  C
  C9       1.0000 0.23320  0.69860  0.15890  Biso   1.000  C
  H3       1.0000 0.17320  0.66340  0.16740  Biso   1.000  H
  C10      1.0000 0.28780  0.65510  0.14720  Biso   1.000  C
  H4       1.0000 0.26240  0.58990  0.14730  Biso   1.000  H
  C11      1.0000 0.40810  0.79290  0.13570  Biso   1.000  C
  H5       1.0000 0.46970  0.82740  0.12910  Biso   1.000  H
  C12      1.0000 0.35580  0.84120  0.14490  Biso   1.000  C
  H6       1.0000 0.38110  0.90510  0.14230  Biso   1.000  H
  C13      1.0000 0.21010  0.90910  0.13290  Biso   1.000  C
  H7       1.0000 0.25180  0.92810  0.10480  Biso   1.000  H
  C14      1.0000 0.14850  0.94620  0.14090  Biso   1.000  C
  H8       1.0000 0.15110  0.99160  0.11810  Biso   1.000  H
  C15      1.0000 0.87210  0.08210  0.19830  Biso   1.000  C
  H9       1.0000 0.85890  0.05310  0.23400  Biso   1.000  H
  C16      1.0000 0.82860  0.13590  0.18450  Biso   1.000  C
  H10      1.0000 0.78780  0.14180  0.21100  Biso   1.000  H
  C17      1.0000 0.84370  0.17930  0.13410  Biso   1.000  C
  C18      1.0000 0.79770  0.23860  0.11880  Biso   1.000  C
  C19      1.0000 0.72940  0.24180  0.15140  Biso   1.000  C
  H11      1.0000 0.71060  0.20710  0.18320  Biso   1.000  H
  C20      1.0000 0.68960  0.29770  0.13570  Biso   1.000  C
  H12      1.0000 0.64320  0.29930  0.15760  Biso   1.000  H
  C21      1.0000 0.77910  0.34480  0.05890  Biso   1.000  C
  H13      1.0000 0.79550  0.37930  0.02660  Biso   1.000  H
  C22      1.0000 0.82340  0.29110  0.07170  Biso   1.000  C
  H14      1.0000 0.86940  0.29040  0.04910  Biso   1.000  H
  C23      1.0000 0.90490  0.16780  0.10130  Biso   1.000  C
  H15      1.0000 0.92210  0.19880  0.06720  Biso   1.000  H
  C24      1.0000 0.94380  0.11090  0.11660  Biso   1.000  C
  H16      1.0000 0.98310  0.10200  0.08970  Biso   1.000  H
  C25      1.0000 0.81300  0.43030  0.48450  Biso   1.000  C
  H17      1.0000 0.79200  0.45460  0.52140  Biso   1.000  H
  C26      1.0000 0.87020  0.38960  0.50100  Biso   1.000  C
  H18      1.0000 0.88560  0.38650  0.54830  Biso   1.000  H
  C27      1.0000 0.90430  0.35410  0.44950  Biso   1.000  C
  C28      1.0000 0.97120  0.31540  0.46640  Biso   1.000  C
  C29      1.0000 0.97820  0.28410  0.52630  Biso   1.000  C
  H19      1.0000 0.93840  0.28330  0.55570  Biso   1.000  H
  C30      1.0000 0.04470  0.25440  0.54150  Biso   1.000  C
  H20      1.0000 0.04700  0.23230  0.58130  Biso   1.000  H
  C31      1.0000 0.09770  0.28200  0.44650  Biso   1.000  C
  H21      1.0000 0.13820  0.28140  0.41810  Biso   1.000  H
  C32      1.0000 0.03210  0.31180  0.42550  Biso   1.000  C
  H22      1.0000 0.02880  0.32960  0.38360  Biso   1.000  H
  C33      1.0000 0.87520  0.35830  0.38000  Biso   1.000  C
  H23      1.0000 0.89370  0.33260  0.34180  Biso   1.000  H
  C34      1.0000 0.81850  0.40060  0.36680  Biso   1.000  C
  H24      1.0000 0.80180  0.40430  0.31980  Biso   1.000  H
  C35      1.0000 0.40500  0.78690  0.45440  Biso   1.000  C
  H25      1.0000 0.41070  0.75180  0.48470  Biso   1.000  H
  C36      1.0000 0.36680  0.84540  0.47390  Biso   1.000  C
  H26      1.0000 0.34820  0.84950  0.51630  Biso   1.000  H
  C37      1.0000 0.35570  0.89830  0.43090  Biso   1.000  C
  C38      1.0000 0.32030  0.96840  0.45150  Biso   1.000  C
  C39      1.0000 0.26050  0.95580  0.49500  Biso   1.000  C
  H27      1.0000 0.23840  0.90080  0.51020  Biso   1.000  H
  C40      1.0000 0.23370  0.02430  0.51590  Biso   1.000  C
  H28      1.0000 0.19410  0.01440  0.54610  Biso   1.000  H
  C41      1.0000 0.31570  0.11380  0.45220  Biso   1.000  C
  H29      1.0000 0.33500  0.16800  0.43610  Biso   1.000  H
  C42      1.0000 0.34680  0.04880  0.42880  Biso   1.000  C
  H30      1.0000 0.38550  0.05930  0.39790  Biso   1.000  H
  C43      1.0000 0.38310  0.88470  0.36760  Biso   1.000  C
  H31      1.0000 0.37480  0.91610  0.33480  Biso   1.000  H
  C44      1.0000 0.42230  0.82580  0.35300  Biso   1.000  C
  H32      1.0000 0.44140  0.81970  0.31090  Biso   1.000  H
  C45      1.0000 0.65370  0.90580  0.27010  Biso   1.000  C
  C46      1.0000 0.66030  0.00680  0.30040  Biso   1.000  C
  C47      1.0000 0.76300  0.76150  0.00710  Biso   1.000  C
  C48      1.0000 0.83680  0.81140  0.96800  Biso   1.000  C
  C49      1.0000 0.33100  0.32640  0.36650  Biso   1.000  C
  C50      1.0000 0.25190  0.24260  0.29360  Biso   1.000  C
  N1       1.0000 0.92950  0.06980  0.16490  Biso   1.000  N
  N2       1.0000 0.71350  0.34920  0.09130  Biso   1.000  N
  N3       1.0000 0.78690  0.43600  0.41750  Biso   1.000  N
  N4       1.0000 0.10640  0.25450  0.50410  Biso   1.000  N
  N5       1.0000 0.43450  0.77630  0.39620  Biso   1.000  N
  N6       1.0000 0.26030  0.10480  0.49580  Biso   1.000  N
  O1       1.0000 0.70630  0.90890  0.23250  Biso   1.000  O
  O2       1.0000 0.59770  0.83520  0.28490  Biso   1.000  O
  F1       1.0000 0.62980  0.03180  0.24430  Biso   1.000  F
  F2       1.0000 0.75340  0.08250  0.33940  Biso   1.000  F
  F3       1.0000 0.60640  0.00680  0.34350  Biso   1.000  F
  O3       1.0000 0.77940  0.81680  0.06960  Biso   1.000  O
  O4       1.0000 0.69440  0.67140  0.96980  Biso   1.000  O
  F4       1.0000 0.81290  0.86170  0.93580  Biso   1.000  F
  F5       1.0000 0.93040  0.87320  0.01120  Biso   1.000  F
  F6       1.0000 0.83490  0.74590  0.91210  Biso   1.000  F
  O5       1.0000 0.40290  0.39870  0.36040  Biso   1.000  O
  O6       1.0000 0.31540  0.31320  0.42260  Biso   1.000  O
  F7       1.0000 0.28000  0.23400  0.23440  Biso   1.000  F
  F8       1.0000 0.21300  0.15260  0.29900  Biso   1.000  F
  F9       1.0000 0.17640  0.25600  0.27610  Biso   1.000  F
  N7       1.0000 0.08570  0.92090  0.17920  Biso   1.000  N
  N8       1.0000 0.37510  0.70070  0.13580  Biso   1.000  N
  F10      1.0000 0.15730  0.19700  0.29020  Biso   1.000  F
  F11      1.0000 0.25500  0.27730  0.23880  Biso   1.000  F
  F12      1.0000 0.27300  0.17170  0.27660  Biso   1.000  F
  Ag14     1.0000 0.49452  0.30946  0.63029  Biso   1.000  Ag
  Ag15     1.0000 0.43168  0.43689  0.54291  Biso   1.000  Ag
  Ag16     1.0000 0.29976  0.49716  0.61407  Biso   1.000  Ag
  Ag17     1.0000 0.34052  0.45793  0.75939  Biso   1.000  Ag
  Ag18     1.0000 0.37165  0.29642  0.73787  Biso   1.000  Ag
  Ag19     1.0000 0.23221  0.22875  0.54286  Biso   1.000  Ag
  Ag20     1.0000 0.54777  0.52898  0.72958  Biso   1.000  Ag
  Ag21     1.0000 0.33670  0.23110  0.86656  Biso   1.000  Ag
  Ag22     1.0000 0.22109  0.31793  0.83552  Biso   1.000  Ag
  Ag23     1.0000 0.53774  0.59616  0.98730  Biso   1.000  Ag
  Ag24     1.0000 0.54249  0.37259  0.87855  Biso   1.000  Ag
  Ag25     1.0000 0.33256  0.54187  0.91259  Biso   1.000  Ag
  Ag26     1.0000 0.02022  0.03159  0.82348  Biso   1.000  Ag
  C51      1.0000 0.35780  0.41120  0.64150  Biso   1.000  C
  C52      1.0000 0.40070  0.36500  0.64380  Biso   1.000  C
  C53      1.0000 0.39220  0.45210  0.88160  Biso   1.000  C
  C54      1.0000 0.42660  0.39990  0.87890  Biso   1.000  C
  C55      1.0000 0.91560  0.14350  0.78730  Biso   1.000  C
  H33      1.0000 0.95890  0.16230  0.76030  Biso   1.000  H
  C56      1.0000 0.85670  0.18210  0.79120  Biso   1.000  C
  H34      1.0000 0.85980  0.22560  0.76620  Biso   1.000  H
  C57      1.0000 0.79210  0.15820  0.83140  Biso   1.000  C
  C58      1.0000 0.73320  0.20590  0.84210  Biso   1.000  C
  C59      1.0000 0.76680  0.30140  0.84110  Biso   1.000  C
  H35      1.0000 0.82680  0.33660  0.83260  Biso   1.000  H
  C60      1.0000 0.71220  0.34490  0.85280  Biso   1.000  C
  H36      1.0000 0.73760  0.41010  0.85270  Biso   1.000  H
  C61      1.0000 0.59190  0.20710  0.86430  Biso   1.000  C
  H37      1.0000 0.53030  0.17260  0.87090  Biso   1.000  H
  C62      1.0000 0.64420  0.15880  0.85510  Biso   1.000  C
  H38      1.0000 0.61890  0.09490  0.85770  Biso   1.000  H
  C63      1.0000 0.78990  0.09090  0.86710  Biso   1.000  C
  H39      1.0000 0.74820  0.07190  0.89520  Biso   1.000  H
  C64      1.0000 0.85150  0.05380  0.85910  Biso   1.000  C
  H40      1.0000 0.84890  0.00840  0.88190  Biso   1.000  H
  C65      1.0000 0.12790  0.91790  0.80170  Biso   1.000  C
  H41      1.0000 0.14110  0.94690  0.76600  Biso   1.000  H
  C66      1.0000 0.17140  0.86410  0.81550  Biso   1.000  C
  H42      1.0000 0.21220  0.85820  0.78900  Biso   1.000  H
  C67      1.0000 0.15630  0.82070  0.86590  Biso   1.000  C
  C68      1.0000 0.20230  0.76140  0.88120  Biso   1.000  C
  C69      1.0000 0.27060  0.75820  0.84860  Biso   1.000  C
  H43      1.0000 0.28940  0.79290  0.81680  Biso   1.000  H
  C70      1.0000 0.31040  0.70230  0.86430  Biso   1.000  C
  H44      1.0000 0.35680  0.70070  0.84240  Biso   1.000  H
  C71      1.0000 0.22090  0.65520  0.94110  Biso   1.000  C
  H45      1.0000 0.20450  0.62070  0.97340  Biso   1.000  H
  C72      1.0000 0.17660  0.70890  0.92830  Biso   1.000  C
  H46      1.0000 0.13060  0.70960  0.95090  Biso   1.000  H
  C73      1.0000 0.09510  0.83220  0.89870  Biso   1.000  C
  H47      1.0000 0.07790  0.80120  0.93280  Biso   1.000  H
  C74      1.0000 0.05620  0.88910  0.88340  Biso   1.000  C
  H48      1.0000 0.01690  0.89800  0.91030  Biso   1.000  H
  C75      1.0000 0.18700  0.56970  0.51550  Biso   1.000  C
  H49      1.0000 0.20800  0.54540  0.47860  Biso   1.000  H
  C76      1.0000 0.12980  0.61040  0.49900  Biso   1.000  C
  H50      1.0000 0.11440  0.61350  0.45170  Biso   1.000  H
  C77      1.0000 0.09570  0.64590  0.55050  Biso   1.000  C
  C78      1.0000 0.02880  0.68460  0.53360  Biso   1.000  C
  C79      1.0000 0.02180  0.71590  0.47370  Biso   1.000  C
  H51      1.0000 0.06160  0.71670  0.44430  Biso   1.000  H
  C80      1.0000 0.95530  0.74560  0.45850  Biso   1.000  C
  H52      1.0000 0.95300  0.76770  0.41870  Biso   1.000  H
  C81      1.0000 0.90230  0.71800  0.55350  Biso   1.000  C
  H53      1.0000 0.86180  0.71860  0.58190  Biso   1.000  H
  C82      1.0000 0.96790  0.68820  0.57450  Biso   1.000  C
  H54      1.0000 0.97120  0.67040  0.61640  Biso   1.000  H
  C83      1.0000 0.12480  0.64170  0.62000  Biso   1.000  C
  H55      1.0000 0.10630  0.66740  0.65820  Biso   1.000  H
  C84      1.0000 0.18150  0.59940  0.63320  Biso   1.000  C
  H56      1.0000 0.19820  0.59570  0.68020  Biso   1.000  H
  C85      1.0000 0.59500  0.21310  0.54560  Biso   1.000  C
  H57      1.0000 0.58930  0.24820  0.51530  Biso   1.000  H
  C86      1.0000 0.63320  0.15460  0.52610  Biso   1.000  C
  H58      1.0000 0.65180  0.15050  0.48370  Biso   1.000  H
  C87      1.0000 0.64430  0.10170  0.56910  Biso   1.000  C
  C88      1.0000 0.67970  0.03160  0.54850  Biso   1.000  C
  C89      1.0000 0.73950  0.04420  0.50500  Biso   1.000  C
  H59      1.0000 0.76160  0.09920  0.48980  Biso   1.000  H
  C90      1.0000 0.76630  0.97570  0.48410  Biso   1.000  C
  H60      1.0000 0.80590  0.98560  0.45390  Biso   1.000  H
  C91      1.0000 0.68430  0.88620  0.54780  Biso   1.000  C
  H61      1.0000 0.66500  0.83200  0.56390  Biso   1.000  H
  C92      1.0000 0.65320  0.95120  0.57120  Biso   1.000  C
  H62      1.0000 0.61450  0.94070  0.60210  Biso   1.000  H
  C93      1.0000 0.61690  0.11530  0.63240  Biso   1.000  C
  H63      1.0000 0.62520  0.08390  0.66520  Biso   1.000  H
  C94      1.0000 0.57770  0.17420  0.64700  Biso   1.000  C
  H64      1.0000 0.55860  0.18030  0.68910  Biso   1.000  H
  C95      1.0000 0.34630  0.09420  0.72990  Biso   1.000  C
  C96      1.0000 0.33970  0.99320  0.69960  Biso   1.000  C
  C97      1.0000 0.23700  0.23850  0.99290  Biso   1.000  C
  C98      1.0000 0.16320  0.18860  0.03200  Biso   1.000  C
  C99      1.0000 0.66900  0.67360  0.63350  Biso   1.000  C
  C100     1.0000 0.74810  0.75740  0.70640  Biso   1.000  C
  N9       1.0000 0.07050  0.93020  0.83510  Biso   1.000  N
  N10      1.0000 0.28650  0.65080  0.90870  Biso   1.000  N
  N11      1.0000 0.21310  0.56400  0.58250  Biso   1.000  N
  N12      1.0000 0.89360  0.74550  0.49590  Biso   1.000  N
  N13      1.0000 0.56550  0.22370  0.60380  Biso   1.000  N
  N14      1.0000 0.73970  0.89520  0.50420  Biso   1.000  N
  O7       1.0000 0.29370  0.09110  0.76750  Biso   1.000  O
  O8       1.0000 0.40230  0.16480  0.71510  Biso   1.000  O
  F13      1.0000 0.37020  0.96820  0.75570  Biso   1.000  F
  F14      1.0000 0.24660  0.91750  0.66060  Biso   1.000  F
  F15      1.0000 0.39360  0.99320  0.65650  Biso   1.000  F
  O9       1.0000 0.22060  0.18320  0.93040  Biso   1.000  O
  O10      1.0000 0.30560  0.32860  0.03020  Biso   1.000  O
  F16      1.0000 0.18710  0.13830  0.06420  Biso   1.000  F
  F17      1.0000 0.06960  0.12680  0.98880  Biso   1.000  F
  F18      1.0000 0.16510  0.25410  0.08790  Biso   1.000  F
  O11      1.0000 0.59710  0.60130  0.63960  Biso   1.000  O
  O12      1.0000 0.68460  0.68680  0.57740  Biso   1.000  O
  F19      1.0000 0.72000  0.76600  0.76560  Biso   1.000  F
  F20      1.0000 0.78700  0.84740  0.70100  Biso   1.000  F
  F21      1.0000 0.82360  0.74400  0.72390  Biso   1.000  F
  N15      1.0000 0.91430  0.07910  0.82080  Biso   1.000  N
  N16      1.0000 0.62490  0.29930  0.86420  Biso   1.000  N
  F22      1.0000 0.84270  0.80300  0.70980  Biso   1.000  F
  F23      1.0000 0.74500  0.72270  0.76120  Biso   1.000  F
  F24      1.0000 0.72700  0.82830  0.72340  Biso   1.000  F
