data_image0
_cell_length_a       22.6497
_cell_length_b       22.6497
_cell_length_c       7.451
_cell_angle_alpha    90
_cell_angle_beta     90
_cell_angle_gamma    120

_symmetry_space_group_name_H-M    "P 1"
_symmetry_int_tables_number       1

loop_
  _symmetry_equiv_pos_as_xyz
  'x, y, z'

loop_
  _atom_site_label
  _atom_site_occupancy
  _atom_site_fract_x
  _atom_site_fract_y
  _atom_site_fract_z
  _atom_site_thermal_displace_type
  _atom_site_B_iso_or_equiv
  _atom_site_type_symbol
  C1       1.0000 0.78930  0.15090  0.52130  Biso   1.000  C
  H1       1.0000 0.75810  0.13870  0.42250  Biso   1.000  H
  C2       1.0000 0.78330  0.15820  0.78040  Biso   1.000  C
  H2       1.0000 0.74770  0.15170  0.86190  Biso   1.000  H
  C3       1.0000 0.45597  0.48423  0.85463  Biso   1.000  C
  H3       1.0000 0.42477  0.47203  0.75583  Biso   1.000  H
  C4       1.0000 0.44997  0.49153  0.11373  Biso   1.000  C
  H4       1.0000 0.41437  0.48503  0.19523  Biso   1.000  H
  C5       1.0000 0.12263  0.81757  0.18797  Biso   1.000  C
  H5       1.0000 0.09143  0.80537  0.08917  Biso   1.000  H
  C6       1.0000 0.11663  0.82487  0.44707  Biso   1.000  C
  H6       1.0000 0.08103  0.81837  0.52857  Biso   1.000  H
  C7       1.0000 0.84910  0.63840  0.52130  Biso   1.000  C
  H7       1.0000 0.86130  0.61940  0.42250  Biso   1.000  H
  C8       1.0000 0.84180  0.62510  0.78040  Biso   1.000  C
  H8       1.0000 0.84830  0.59600  0.86190  Biso   1.000  H
  C9       1.0000 0.51577  0.97173  0.85463  Biso   1.000  C
  H9       1.0000 0.52797  0.95273  0.75583  Biso   1.000  H
  C10      1.0000 0.50847  0.95843  0.11373  Biso   1.000  C
  H10      1.0000 0.51497  0.92933  0.19523  Biso   1.000  H
  C11      1.0000 0.18243  0.30507  0.18797  Biso   1.000  C
  H11      1.0000 0.19463  0.28607  0.08917  Biso   1.000  H
  C12      1.0000 0.17513  0.29177  0.44707  Biso   1.000  C
  H12      1.0000 0.18163  0.26267  0.52857  Biso   1.000  H
  C13      1.0000 0.36160  0.21070  0.52130  Biso   1.000  C
  H13      1.0000 0.38060  0.24190  0.42250  Biso   1.000  H
  C14      1.0000 0.37490  0.21670  0.78040  Biso   1.000  C
  H14      1.0000 0.40400  0.25230  0.86190  Biso   1.000  H
  C15      1.0000 0.02827  0.54403  0.85463  Biso   1.000  C
  H15      1.0000 0.04727  0.57523  0.75583  Biso   1.000  H
  C16      1.0000 0.04157  0.55003  0.11373  Biso   1.000  C
  H16      1.0000 0.07067  0.58563  0.19523  Biso   1.000  H
  C17      1.0000 0.69493  0.87737  0.18797  Biso   1.000  C
  H17      1.0000 0.71393  0.90857  0.08917  Biso   1.000  H
  C18      1.0000 0.70823  0.88337  0.44707  Biso   1.000  C
  H18      1.0000 0.73733  0.91897  0.52857  Biso   1.000  H
  C19      1.0000 0.15090  0.78930  0.47870  Biso   1.000  C
  H19      1.0000 0.13870  0.75810  0.57750  Biso   1.000  H
  C20      1.0000 0.15820  0.78330  0.21960  Biso   1.000  C
  H20      1.0000 0.15170  0.74770  0.13810  Biso   1.000  H
  C21      1.0000 0.81757  0.12263  0.81203  Biso   1.000  C
  H21      1.0000 0.80537  0.09143  0.91083  Biso   1.000  H
  C22      1.0000 0.82487  0.11663  0.55293  Biso   1.000  C
  H22      1.0000 0.81837  0.08103  0.47143  Biso   1.000  H
  C23      1.0000 0.48423  0.45597  0.14537  Biso   1.000  C
  H23      1.0000 0.47203  0.42477  0.24417  Biso   1.000  H
  C24      1.0000 0.49153  0.44997  0.88627  Biso   1.000  C
  H24      1.0000 0.48503  0.41437  0.80477  Biso   1.000  H
  C25      1.0000 0.63840  0.84910  0.47870  Biso   1.000  C
  H25      1.0000 0.61940  0.86130  0.57750  Biso   1.000  H
  C26      1.0000 0.62510  0.84180  0.21960  Biso   1.000  C
  H26      1.0000 0.59600  0.84830  0.13810  Biso   1.000  H
  C27      1.0000 0.30507  0.18243  0.81203  Biso   1.000  C
  H27      1.0000 0.28607  0.19463  0.91083  Biso   1.000  H
  C28      1.0000 0.29177  0.17513  0.55293  Biso   1.000  C
  H28      1.0000 0.26267  0.18163  0.47143  Biso   1.000  H
  C29      1.0000 0.97173  0.51577  0.14537  Biso   1.000  C
  H29      1.0000 0.95273  0.52797  0.24417  Biso   1.000  H
  C30      1.0000 0.95843  0.50847  0.88627  Biso   1.000  C
  H30      1.0000 0.92933  0.51497  0.80477  Biso   1.000  H
  C31      1.0000 0.21070  0.36160  0.47870  Biso   1.000  C
  H31      1.0000 0.24190  0.38060  0.57750  Biso   1.000  H
  C32      1.0000 0.21670  0.37490  0.21960  Biso   1.000  C
  H32      1.0000 0.25230  0.40400  0.13810  Biso   1.000  H
  C33      1.0000 0.87737  0.69493  0.81203  Biso   1.000  C
  H33      1.0000 0.90857  0.71393  0.91083  Biso   1.000  H
  C34      1.0000 0.88337  0.70823  0.55293  Biso   1.000  C
  H34      1.0000 0.91897  0.73733  0.47143  Biso   1.000  H
  C35      1.0000 0.54403  0.02827  0.14537  Biso   1.000  C
  H35      1.0000 0.57523  0.04727  0.24417  Biso   1.000  H
  C36      1.0000 0.55003  0.04157  0.88627  Biso   1.000  C
  H36      1.0000 0.58563  0.07067  0.80477  Biso   1.000  H
  C37      1.0000 0.21070  0.84910  0.47870  Biso   1.000  C
  H37      1.0000 0.24190  0.86130  0.57750  Biso   1.000  H
  C38      1.0000 0.21670  0.84180  0.21960  Biso   1.000  C
  H38      1.0000 0.25230  0.84830  0.13810  Biso   1.000  H
  C39      1.0000 0.87737  0.18243  0.81203  Biso   1.000  C
  H39      1.0000 0.90857  0.19463  0.91083  Biso   1.000  H
  C40      1.0000 0.88337  0.17513  0.55293  Biso   1.000  C
  H40      1.0000 0.91897  0.18163  0.47143  Biso   1.000  H
  C41      1.0000 0.54403  0.51577  0.14537  Biso   1.000  C
  H41      1.0000 0.57523  0.52797  0.24417  Biso   1.000  H
  C42      1.0000 0.55003  0.50847  0.88627  Biso   1.000  C
  H42      1.0000 0.58563  0.51497  0.80477  Biso   1.000  H
  C43      1.0000 0.15090  0.36160  0.47870  Biso   1.000  C
  H43      1.0000 0.13870  0.38060  0.57750  Biso   1.000  H
  C44      1.0000 0.15820  0.37490  0.21960  Biso   1.000  C
  H44      1.0000 0.15170  0.40400  0.13810  Biso   1.000  H
  C45      1.0000 0.81757  0.69493  0.81203  Biso   1.000  C
  H45      1.0000 0.80537  0.71393  0.91083  Biso   1.000  H
  C46      1.0000 0.82487  0.70823  0.55293  Biso   1.000  C
  H46      1.0000 0.81837  0.73733  0.47143  Biso   1.000  H
  C47      1.0000 0.48423  0.02827  0.14537  Biso   1.000  C
  H47      1.0000 0.47203  0.04727  0.24417  Biso   1.000  H
  C48      1.0000 0.49153  0.04157  0.88627  Biso   1.000  C
  H48      1.0000 0.48503  0.07067  0.80477  Biso   1.000  H
  C49      1.0000 0.63840  0.78930  0.47870  Biso   1.000  C
  H49      1.0000 0.61940  0.75810  0.57750  Biso   1.000  H
  C50      1.0000 0.62510  0.78330  0.21960  Biso   1.000  C
  H50      1.0000 0.59600  0.74770  0.13810  Biso   1.000  H
  C51      1.0000 0.30507  0.12263  0.81203  Biso   1.000  C
  H51      1.0000 0.28607  0.09143  0.91083  Biso   1.000  H
  C52      1.0000 0.29177  0.11663  0.55293  Biso   1.000  C
  H52      1.0000 0.26267  0.08103  0.47143  Biso   1.000  H
  C53      1.0000 0.97173  0.45597  0.14537  Biso   1.000  C
  H53      1.0000 0.95273  0.42477  0.24417  Biso   1.000  H
  C54      1.0000 0.95843  0.44997  0.88627  Biso   1.000  C
  H54      1.0000 0.92933  0.41437  0.80477  Biso   1.000  H
  C55      1.0000 0.84910  0.21070  0.52130  Biso   1.000  C
  H55      1.0000 0.86130  0.24190  0.42250  Biso   1.000  H
  C56      1.0000 0.84180  0.21670  0.78040  Biso   1.000  C
  H56      1.0000 0.84830  0.25230  0.86190  Biso   1.000  H
  C57      1.0000 0.51577  0.54403  0.85463  Biso   1.000  C
  H57      1.0000 0.52797  0.57523  0.75583  Biso   1.000  H
  C58      1.0000 0.50847  0.55003  0.11373  Biso   1.000  C
  H58      1.0000 0.51497  0.58563  0.19523  Biso   1.000  H
  C59      1.0000 0.18243  0.87737  0.18797  Biso   1.000  C
  H59      1.0000 0.19463  0.90857  0.08917  Biso   1.000  H
  C60      1.0000 0.17513  0.88337  0.44707  Biso   1.000  C
  H60      1.0000 0.18163  0.91897  0.52857  Biso   1.000  H
  C61      1.0000 0.36160  0.15090  0.52130  Biso   1.000  C
  H61      1.0000 0.38060  0.13870  0.42250  Biso   1.000  H
  C62      1.0000 0.37490  0.15820  0.78040  Biso   1.000  C
  H62      1.0000 0.40400  0.15170  0.86190  Biso   1.000  H
  C63      1.0000 0.02827  0.48423  0.85463  Biso   1.000  C
  H63      1.0000 0.04727  0.47203  0.75583  Biso   1.000  H
  C64      1.0000 0.04157  0.49153  0.11373  Biso   1.000  C
  H64      1.0000 0.07067  0.48503  0.19523  Biso   1.000  H
  C65      1.0000 0.69493  0.81757  0.18797  Biso   1.000  C
  H65      1.0000 0.71393  0.80537  0.08917  Biso   1.000  H
  C66      1.0000 0.70823  0.82487  0.44707  Biso   1.000  C
  H66      1.0000 0.73733  0.81837  0.52857  Biso   1.000  H
  C67      1.0000 0.78930  0.63840  0.52130  Biso   1.000  C
  H67      1.0000 0.75810  0.61940  0.42250  Biso   1.000  H
  C68      1.0000 0.78330  0.62510  0.78040  Biso   1.000  C
  H68      1.0000 0.74770  0.59600  0.86190  Biso   1.000  H
  C69      1.0000 0.45597  0.97173  0.85463  Biso   1.000  C
  H69      1.0000 0.42477  0.95273  0.75583  Biso   1.000  H
  C70      1.0000 0.44997  0.95843  0.11373  Biso   1.000  C
  H70      1.0000 0.41437  0.92933  0.19523  Biso   1.000  H
  C71      1.0000 0.12263  0.30507  0.18797  Biso   1.000  C
  H71      1.0000 0.09143  0.28607  0.08917  Biso   1.000  H
  C72      1.0000 0.11663  0.29177  0.44707  Biso   1.000  C
  H72      1.0000 0.08103  0.26267  0.52857  Biso   1.000  H
  Fe1      1.0000 0.66667  0.33333  0.33333  Biso   1.000  Fe
  Fe2      1.0000 0.33333  0.66667  0.66667  Biso   1.000  Fe
  Fe3      1.0000 0.00000  0.00000  0.00000  Biso   1.000  Fe
  Fe4      1.0000 0.66667  0.33333  0.83333  Biso   1.000  Fe
  Fe5      1.0000 0.33333  0.66667  0.16667  Biso   1.000  Fe
  Fe6      1.0000 0.00000  0.00000  0.50000  Biso   1.000  Fe
  N1       1.0000 0.74372  0.25628  0.46350  Biso   1.000  N
  N2       1.0000 0.71097  0.28903  0.50900  Biso   1.000  N
  N3       1.0000 0.70802  0.29198  0.68680  Biso   1.000  N
  N4       1.0000 0.73927  0.26073  0.76300  Biso   1.000  N
  C73      1.0000 0.79800  0.20200  0.64240  Biso   1.000  C
  C74      1.0000 0.76095  0.23905  0.61850  Biso   1.000  C
  N5       1.0000 0.41039  0.58961  0.79683  Biso   1.000  N
  N6       1.0000 0.37764  0.62236  0.84233  Biso   1.000  N
  N7       1.0000 0.37469  0.62531  0.02013  Biso   1.000  N
  N8       1.0000 0.40594  0.59406  0.09633  Biso   1.000  N
  C75      1.0000 0.46467  0.53533  0.97573  Biso   1.000  C
  C76      1.0000 0.42762  0.57238  0.95183  Biso   1.000  C
  N9       1.0000 0.07705  0.92295  0.13017  Biso   1.000  N
  N10      1.0000 0.04430  0.95570  0.17567  Biso   1.000  N
  N11      1.0000 0.04135  0.95865  0.35347  Biso   1.000  N
  N12      1.0000 0.07260  0.92740  0.42967  Biso   1.000  N
  C77      1.0000 0.13133  0.86867  0.30907  Biso   1.000  C
  C78      1.0000 0.09428  0.90572  0.28517  Biso   1.000  C
  N13      1.0000 0.74372  0.48744  0.46350  Biso   1.000  N
  N14      1.0000 0.71097  0.42194  0.50900  Biso   1.000  N
  N15      1.0000 0.70802  0.41604  0.68680  Biso   1.000  N
  N16      1.0000 0.73927  0.47854  0.76300  Biso   1.000  N
  C79      1.0000 0.79800  0.59600  0.64240  Biso   1.000  C
  C80      1.0000 0.76095  0.52190  0.61850  Biso   1.000  C
  N17      1.0000 0.41039  0.82077  0.79683  Biso   1.000  N
  N18      1.0000 0.37764  0.75527  0.84233  Biso   1.000  N
  N19      1.0000 0.37469  0.74937  0.02013  Biso   1.000  N
  N20      1.0000 0.40594  0.81187  0.09633  Biso   1.000  N
  C81      1.0000 0.46467  0.92933  0.97573  Biso   1.000  C
  C82      1.0000 0.42762  0.85523  0.95183  Biso   1.000  C
  N21      1.0000 0.07705  0.15411  0.13017  Biso   1.000  N
  N22      1.0000 0.04430  0.08861  0.17567  Biso   1.000  N
  N23      1.0000 0.04135  0.08271  0.35347  Biso   1.000  N
  N24      1.0000 0.07260  0.14521  0.42967  Biso   1.000  N
  C83      1.0000 0.13133  0.26267  0.30907  Biso   1.000  C
  C84      1.0000 0.09428  0.18857  0.28517  Biso   1.000  C
  N25      1.0000 0.51256  0.25628  0.46350  Biso   1.000  N
  N26      1.0000 0.57806  0.28903  0.50900  Biso   1.000  N
  N27      1.0000 0.58396  0.29198  0.68680  Biso   1.000  N
  N28      1.0000 0.52146  0.26073  0.76300  Biso   1.000  N
  C85      1.0000 0.40400  0.20200  0.64240  Biso   1.000  C
  C86      1.0000 0.47810  0.23905  0.61850  Biso   1.000  C
  N29      1.0000 0.17923  0.58961  0.79683  Biso   1.000  N
  N30      1.0000 0.24473  0.62236  0.84233  Biso   1.000  N
  N31      1.0000 0.25063  0.62531  0.02013  Biso   1.000  N
  N32      1.0000 0.18813  0.59406  0.09633  Biso   1.000  N
  C87      1.0000 0.07067  0.53533  0.97573  Biso   1.000  C
  C88      1.0000 0.14477  0.57238  0.95183  Biso   1.000  C
  N33      1.0000 0.84589  0.92295  0.13017  Biso   1.000  N
  N34      1.0000 0.91139  0.95570  0.17567  Biso   1.000  N
  N35      1.0000 0.91729  0.95865  0.35347  Biso   1.000  N
  N36      1.0000 0.85479  0.92740  0.42967  Biso   1.000  N
  C89      1.0000 0.73733  0.86867  0.30907  Biso   1.000  C
  C90      1.0000 0.81143  0.90572  0.28517  Biso   1.000  C
  N37      1.0000 0.25628  0.74372  0.53650  Biso   1.000  N
  N38      1.0000 0.28903  0.71097  0.49100  Biso   1.000  N
  N39      1.0000 0.29198  0.70802  0.31320  Biso   1.000  N
  N40      1.0000 0.26073  0.73927  0.23700  Biso   1.000  N
  C91      1.0000 0.20200  0.79800  0.35760  Biso   1.000  C
  C92      1.0000 0.23905  0.76095  0.38150  Biso   1.000  C
  N41      1.0000 0.92295  0.07705  0.86983  Biso   1.000  N
  N42      1.0000 0.95570  0.04430  0.82433  Biso   1.000  N
  N43      1.0000 0.95865  0.04135  0.64653  Biso   1.000  N
  N44      1.0000 0.92740  0.07260  0.57033  Biso   1.000  N
  C93      1.0000 0.86867  0.13133  0.69093  Biso   1.000  C
  C94      1.0000 0.90572  0.09428  0.71483  Biso   1.000  C
  N45      1.0000 0.58961  0.41039  0.20317  Biso   1.000  N
  N46      1.0000 0.62236  0.37764  0.15767  Biso   1.000  N
  N47      1.0000 0.62531  0.37469  0.97987  Biso   1.000  N
  N48      1.0000 0.59406  0.40594  0.90367  Biso   1.000  N
  C95      1.0000 0.53533  0.46467  0.02427  Biso   1.000  C
  C96      1.0000 0.57238  0.42762  0.04817  Biso   1.000  C
  N49      1.0000 0.48744  0.74372  0.53650  Biso   1.000  N
  N50      1.0000 0.42194  0.71097  0.49100  Biso   1.000  N
  N51      1.0000 0.41604  0.70802  0.31320  Biso   1.000  N
  N52      1.0000 0.47854  0.73927  0.23700  Biso   1.000  N
  C97      1.0000 0.59600  0.79800  0.35760  Biso   1.000  C
  C98      1.0000 0.52190  0.76095  0.38150  Biso   1.000  C
  N53      1.0000 0.15411  0.07705  0.86983  Biso   1.000  N
  N54      1.0000 0.08861  0.04430  0.82433  Biso   1.000  N
  N55      1.0000 0.08271  0.04135  0.64653  Biso   1.000  N
  N56      1.0000 0.14521  0.07260  0.57033  Biso   1.000  N
  C99      1.0000 0.26267  0.13133  0.69093  Biso   1.000  C
  C100     1.0000 0.18857  0.09428  0.71483  Biso   1.000  C
  N57      1.0000 0.82077  0.41039  0.20317  Biso   1.000  N
  N58      1.0000 0.75527  0.37764  0.15767  Biso   1.000  N
  N59      1.0000 0.74937  0.37469  0.97987  Biso   1.000  N
  N60      1.0000 0.81187  0.40594  0.90367  Biso   1.000  N
  C101     1.0000 0.92933  0.46467  0.02427  Biso   1.000  C
  C102     1.0000 0.85523  0.42762  0.04817  Biso   1.000  C
  N61      1.0000 0.25628  0.51256  0.53650  Biso   1.000  N
  N62      1.0000 0.28903  0.57806  0.49100  Biso   1.000  N
  N63      1.0000 0.29198  0.58396  0.31320  Biso   1.000  N
  N64      1.0000 0.26073  0.52146  0.23700  Biso   1.000  N
  C103     1.0000 0.20200  0.40400  0.35760  Biso   1.000  C
  C104     1.0000 0.23905  0.47810  0.38150  Biso   1.000  C
  N65      1.0000 0.92295  0.84589  0.86983  Biso   1.000  N
  N66      1.0000 0.95570  0.91139  0.82433  Biso   1.000  N
  N67      1.0000 0.95865  0.91729  0.64653  Biso   1.000  N
  N68      1.0000 0.92740  0.85479  0.57033  Biso   1.000  N
  C105     1.0000 0.86867  0.73733  0.69093  Biso   1.000  C
  C106     1.0000 0.90572  0.81143  0.71483  Biso   1.000  C
  N69      1.0000 0.58961  0.17923  0.20317  Biso   1.000  N
  N70      1.0000 0.62236  0.24473  0.15767  Biso   1.000  N
  N71      1.0000 0.62531  0.25063  0.97987  Biso   1.000  N
  N72      1.0000 0.59406  0.18813  0.90367  Biso   1.000  N
  C107     1.0000 0.53533  0.07067  0.02427  Biso   1.000  C
  C108     1.0000 0.57238  0.14477  0.04817  Biso   1.000  C
  H73      1.0000 0.08575  0.17150  0.01840  Biso   1.000  H
  H74      1.0000 0.07810  0.15620  0.54710  Biso   1.000  H
  H75      1.0000 0.75242  0.50483  0.35173  Biso   1.000  H
  H76      1.0000 0.74477  0.48953  0.88043  Biso   1.000  H
  H77      1.0000 0.41908  0.83817  0.68507  Biso   1.000  H
  H78      1.0000 0.41143  0.82287  0.21377  Biso   1.000  H
  H79      1.0000 0.82850  0.91425  0.01840  Biso   1.000  H
  H80      1.0000 0.84380  0.92190  0.54710  Biso   1.000  H
  H81      1.0000 0.49517  0.24758  0.35173  Biso   1.000  H
  H82      1.0000 0.51047  0.25523  0.88043  Biso   1.000  H
  H83      1.0000 0.16183  0.58092  0.68507  Biso   1.000  H
  H84      1.0000 0.17713  0.58857  0.21377  Biso   1.000  H
  H85      1.0000 0.08575  0.91425  0.01840  Biso   1.000  H
  H86      1.0000 0.07810  0.92190  0.54710  Biso   1.000  H
  H87      1.0000 0.75242  0.24758  0.35173  Biso   1.000  H
  H88      1.0000 0.74477  0.25523  0.88043  Biso   1.000  H
  H89      1.0000 0.41908  0.58092  0.68507  Biso   1.000  H
  H90      1.0000 0.41143  0.58857  0.21377  Biso   1.000  H
  H91      1.0000 0.17150  0.08575  0.98160  Biso   1.000  H
  H92      1.0000 0.15620  0.07810  0.45290  Biso   1.000  H
  H93      1.0000 0.83817  0.41908  0.31493  Biso   1.000  H
  H94      1.0000 0.82287  0.41143  0.78623  Biso   1.000  H
  H95      1.0000 0.50483  0.75242  0.64827  Biso   1.000  H
  H96      1.0000 0.48953  0.74477  0.11957  Biso   1.000  H
  H97      1.0000 0.91425  0.82850  0.98160  Biso   1.000  H
  H98      1.0000 0.92190  0.84380  0.45290  Biso   1.000  H
  H99      1.0000 0.58092  0.16183  0.31493  Biso   1.000  H
  H100     1.0000 0.58857  0.17713  0.78623  Biso   1.000  H
  H101     1.0000 0.24758  0.49517  0.64827  Biso   1.000  H
  H102     1.0000 0.25523  0.51047  0.11957  Biso   1.000  H
  H103     1.0000 0.91425  0.08575  0.98160  Biso   1.000  H
  H104     1.0000 0.92190  0.07810  0.45290  Biso   1.000  H
  H105     1.0000 0.58092  0.41908  0.31493  Biso   1.000  H
  H106     1.0000 0.58857  0.41143  0.78623  Biso   1.000  H
  H107     1.0000 0.24758  0.75242  0.64827  Biso   1.000  H
  H108     1.0000 0.25523  0.74477  0.11957  Biso   1.000  H
