data_image0
_cell_length_a       22.6799
_cell_length_b       22.6799
_cell_length_c       7.4972
_cell_angle_alpha    90
_cell_angle_beta     90
_cell_angle_gamma    120

_symmetry_space_group_name_H-M    "P 1"
_symmetry_int_tables_number       1

loop_
  _symmetry_equiv_pos_as_xyz
  'x, y, z'

loop_
  _atom_site_label
  _atom_site_occupancy
  _atom_site_fract_x
  _atom_site_fract_y
  _atom_site_fract_z
  _atom_site_thermal_displace_type
  _atom_site_B_iso_or_equiv
  _atom_site_type_symbol
  C1       1.0000 0.79010  0.15220  0.52230  Biso   1.000  C
  H1       1.0000 0.75900  0.14010  0.42350  Biso   1.000  H
  C2       1.0000 0.78460  0.15970  0.78490  Biso   1.000  C
  H2       1.0000 0.74900  0.15320  0.86640  Biso   1.000  H
  C3       1.0000 0.45677  0.48553  0.85563  Biso   1.000  C
  H3       1.0000 0.42567  0.47343  0.75683  Biso   1.000  H
  C4       1.0000 0.45127  0.49303  0.11823  Biso   1.000  C
  H4       1.0000 0.41567  0.48653  0.19973  Biso   1.000  H
  C5       1.0000 0.12343  0.81887  0.18897  Biso   1.000  C
  H5       1.0000 0.09233  0.80677  0.09017  Biso   1.000  H
  C6       1.0000 0.11793  0.82637  0.45157  Biso   1.000  C
  H6       1.0000 0.08233  0.81987  0.53307  Biso   1.000  H
  C7       1.0000 0.84780  0.63790  0.52230  Biso   1.000  C
  H7       1.0000 0.85990  0.61890  0.42350  Biso   1.000  H
  C8       1.0000 0.84030  0.62490  0.78490  Biso   1.000  C
  H8       1.0000 0.84680  0.59580  0.86640  Biso   1.000  H
  C9       1.0000 0.51447  0.97123  0.85563  Biso   1.000  C
  H9       1.0000 0.52657  0.95223  0.75683  Biso   1.000  H
  C10      1.0000 0.50697  0.95823  0.11823  Biso   1.000  C
  H10      1.0000 0.51347  0.92913  0.19973  Biso   1.000  H
  C11      1.0000 0.18113  0.30457  0.18897  Biso   1.000  C
  H11      1.0000 0.19323  0.28557  0.09017  Biso   1.000  H
  C12      1.0000 0.17363  0.29157  0.45157  Biso   1.000  C
  H12      1.0000 0.18013  0.26247  0.53307  Biso   1.000  H
  C13      1.0000 0.36210  0.20990  0.52230  Biso   1.000  C
  H13      1.0000 0.38110  0.24100  0.42350  Biso   1.000  H
  C14      1.0000 0.37510  0.21540  0.78490  Biso   1.000  C
  H14      1.0000 0.40420  0.25100  0.86640  Biso   1.000  H
  C15      1.0000 0.02877  0.54323  0.85563  Biso   1.000  C
  H15      1.0000 0.04777  0.57433  0.75683  Biso   1.000  H
  C16      1.0000 0.04177  0.54873  0.11823  Biso   1.000  C
  H16      1.0000 0.07087  0.58433  0.19973  Biso   1.000  H
  C17      1.0000 0.69543  0.87657  0.18897  Biso   1.000  C
  H17      1.0000 0.71443  0.90767  0.09017  Biso   1.000  H
  C18      1.0000 0.70843  0.88207  0.45157  Biso   1.000  C
  H18      1.0000 0.73753  0.91767  0.53307  Biso   1.000  H
  C19      1.0000 0.15220  0.79010  0.47770  Biso   1.000  C
  H19      1.0000 0.14010  0.75900  0.57650  Biso   1.000  H
  C20      1.0000 0.15970  0.78460  0.21510  Biso   1.000  C
  H20      1.0000 0.15320  0.74900  0.13360  Biso   1.000  H
  C21      1.0000 0.81887  0.12343  0.81103  Biso   1.000  C
  H21      1.0000 0.80677  0.09233  0.90983  Biso   1.000  H
  C22      1.0000 0.82637  0.11793  0.54843  Biso   1.000  C
  H22      1.0000 0.81987  0.08233  0.46693  Biso   1.000  H
  C23      1.0000 0.48553  0.45677  0.14437  Biso   1.000  C
  H23      1.0000 0.47343  0.42567  0.24317  Biso   1.000  H
  C24      1.0000 0.49303  0.45127  0.88177  Biso   1.000  C
  H24      1.0000 0.48653  0.41567  0.80027  Biso   1.000  H
  C25      1.0000 0.63790  0.84780  0.47770  Biso   1.000  C
  H25      1.0000 0.61890  0.85990  0.57650  Biso   1.000  H
  C26      1.0000 0.62490  0.84030  0.21510  Biso   1.000  C
  H26      1.0000 0.59580  0.84680  0.13360  Biso   1.000  H
  C27      1.0000 0.30457  0.18113  0.81103  Biso   1.000  C
  H27      1.0000 0.28557  0.19323  0.90983  Biso   1.000  H
  C28      1.0000 0.29157  0.17363  0.54843  Biso   1.000  C
  H28      1.0000 0.26247  0.18013  0.46693  Biso   1.000  H
  C29      1.0000 0.97123  0.51447  0.14437  Biso   1.000  C
  H29      1.0000 0.95223  0.52657  0.24317  Biso   1.000  H
  C30      1.0000 0.95823  0.50697  0.88177  Biso   1.000  C
  H30      1.0000 0.92913  0.51347  0.80027  Biso   1.000  H
  C31      1.0000 0.20990  0.36210  0.47770  Biso   1.000  C
  H31      1.0000 0.24100  0.38110  0.57650  Biso   1.000  H
  C32      1.0000 0.21540  0.37510  0.21510  Biso   1.000  C
  H32      1.0000 0.25100  0.40420  0.13360  Biso   1.000  H
  C33      1.0000 0.87657  0.69543  0.81103  Biso   1.000  C
  H33      1.0000 0.90767  0.71443  0.90983  Biso   1.000  H
  C34      1.0000 0.88207  0.70843  0.54843  Biso   1.000  C
  H34      1.0000 0.91767  0.73753  0.46693  Biso   1.000  H
  C35      1.0000 0.54323  0.02877  0.14437  Biso   1.000  C
  H35      1.0000 0.57433  0.04777  0.24317  Biso   1.000  H
  C36      1.0000 0.54873  0.04177  0.88177  Biso   1.000  C
  H36      1.0000 0.58433  0.07087  0.80027  Biso   1.000  H
  C37      1.0000 0.20990  0.84780  0.47770  Biso   1.000  C
  H37      1.0000 0.24100  0.85990  0.57650  Biso   1.000  H
  C38      1.0000 0.21540  0.84030  0.21510  Biso   1.000  C
  H38      1.0000 0.25100  0.84680  0.13360  Biso   1.000  H
  C39      1.0000 0.87657  0.18113  0.81103  Biso   1.000  C
  H39      1.0000 0.90767  0.19323  0.90983  Biso   1.000  H
  C40      1.0000 0.88207  0.17363  0.54843  Biso   1.000  C
  H40      1.0000 0.91767  0.18013  0.46693  Biso   1.000  H
  C41      1.0000 0.54323  0.51447  0.14437  Biso   1.000  C
  H41      1.0000 0.57433  0.52657  0.24317  Biso   1.000  H
  C42      1.0000 0.54873  0.50697  0.88177  Biso   1.000  C
  H42      1.0000 0.58433  0.51347  0.80027  Biso   1.000  H
  C43      1.0000 0.15220  0.36210  0.47770  Biso   1.000  C
  H43      1.0000 0.14010  0.38110  0.57650  Biso   1.000  H
  C44      1.0000 0.15970  0.37510  0.21510  Biso   1.000  C
  H44      1.0000 0.15320  0.40420  0.13360  Biso   1.000  H
  C45      1.0000 0.81887  0.69543  0.81103  Biso   1.000  C
  H45      1.0000 0.80677  0.71443  0.90983  Biso   1.000  H
  C46      1.0000 0.82637  0.70843  0.54843  Biso   1.000  C
  H46      1.0000 0.81987  0.73753  0.46693  Biso   1.000  H
  C47      1.0000 0.48553  0.02877  0.14437  Biso   1.000  C
  H47      1.0000 0.47343  0.04777  0.24317  Biso   1.000  H
  C48      1.0000 0.49303  0.04177  0.88177  Biso   1.000  C
  H48      1.0000 0.48653  0.07087  0.80027  Biso   1.000  H
  C49      1.0000 0.63790  0.79010  0.47770  Biso   1.000  C
  H49      1.0000 0.61890  0.75900  0.57650  Biso   1.000  H
  C50      1.0000 0.62490  0.78460  0.21510  Biso   1.000  C
  H50      1.0000 0.59580  0.74900  0.13360  Biso   1.000  H
  C51      1.0000 0.30457  0.12343  0.81103  Biso   1.000  C
  H51      1.0000 0.28557  0.09233  0.90983  Biso   1.000  H
  C52      1.0000 0.29157  0.11793  0.54843  Biso   1.000  C
  H52      1.0000 0.26247  0.08233  0.46693  Biso   1.000  H
  C53      1.0000 0.97123  0.45677  0.14437  Biso   1.000  C
  H53      1.0000 0.95223  0.42567  0.24317  Biso   1.000  H
  C54      1.0000 0.95823  0.45127  0.88177  Biso   1.000  C
  H54      1.0000 0.92913  0.41567  0.80027  Biso   1.000  H
  C55      1.0000 0.84780  0.20990  0.52230  Biso   1.000  C
  H55      1.0000 0.85990  0.24100  0.42350  Biso   1.000  H
  C56      1.0000 0.84030  0.21540  0.78490  Biso   1.000  C
  H56      1.0000 0.84680  0.25100  0.86640  Biso   1.000  H
  C57      1.0000 0.51447  0.54323  0.85563  Biso   1.000  C
  H57      1.0000 0.52657  0.57433  0.75683  Biso   1.000  H
  C58      1.0000 0.50697  0.54873  0.11823  Biso   1.000  C
  H58      1.0000 0.51347  0.58433  0.19973  Biso   1.000  H
  C59      1.0000 0.18113  0.87657  0.18897  Biso   1.000  C
  H59      1.0000 0.19323  0.90767  0.09017  Biso   1.000  H
  C60      1.0000 0.17363  0.88207  0.45157  Biso   1.000  C
  H60      1.0000 0.18013  0.91767  0.53307  Biso   1.000  H
  C61      1.0000 0.36210  0.15220  0.52230  Biso   1.000  C
  H61      1.0000 0.38110  0.14010  0.42350  Biso   1.000  H
  C62      1.0000 0.37510  0.15970  0.78490  Biso   1.000  C
  H62      1.0000 0.40420  0.15320  0.86640  Biso   1.000  H
  C63      1.0000 0.02877  0.48553  0.85563  Biso   1.000  C
  H63      1.0000 0.04777  0.47343  0.75683  Biso   1.000  H
  C64      1.0000 0.04177  0.49303  0.11823  Biso   1.000  C
  H64      1.0000 0.07087  0.48653  0.19973  Biso   1.000  H
  C65      1.0000 0.69543  0.81887  0.18897  Biso   1.000  C
  H65      1.0000 0.71443  0.80677  0.09017  Biso   1.000  H
  C66      1.0000 0.70843  0.82637  0.45157  Biso   1.000  C
  H66      1.0000 0.73753  0.81987  0.53307  Biso   1.000  H
  C67      1.0000 0.79010  0.63790  0.52230  Biso   1.000  C
  H67      1.0000 0.75900  0.61890  0.42350  Biso   1.000  H
  C68      1.0000 0.78460  0.62490  0.78490  Biso   1.000  C
  H68      1.0000 0.74900  0.59580  0.86640  Biso   1.000  H
  C69      1.0000 0.45677  0.97123  0.85563  Biso   1.000  C
  H69      1.0000 0.42567  0.95223  0.75683  Biso   1.000  H
  C70      1.0000 0.45127  0.95823  0.11823  Biso   1.000  C
  H70      1.0000 0.41567  0.92913  0.19973  Biso   1.000  H
  C71      1.0000 0.12343  0.30457  0.18897  Biso   1.000  C
  H71      1.0000 0.09233  0.28557  0.09017  Biso   1.000  H
  C72      1.0000 0.11793  0.29157  0.45157  Biso   1.000  C
  H72      1.0000 0.08233  0.26247  0.53307  Biso   1.000  H
  Fe1      1.0000 0.66667  0.33333  0.33333  Biso   1.000  Fe
  Fe2      1.0000 0.33333  0.66667  0.66667  Biso   1.000  Fe
  Fe3      1.0000 0.00000  0.00000  0.00000  Biso   1.000  Fe
  Fe4      1.0000 0.66667  0.33333  0.83333  Biso   1.000  Fe
  Fe5      1.0000 0.33333  0.66667  0.16667  Biso   1.000  Fe
  Fe6      1.0000 0.00000  0.00000  0.50000  Biso   1.000  Fe
  N1       1.0000 0.74359  0.25641  0.46350  Biso   1.000  N
  N2       1.0000 0.71094  0.28906  0.51050  Biso   1.000  N
  N3       1.0000 0.70828  0.29172  0.68720  Biso   1.000  N
  N4       1.0000 0.73931  0.26069  0.76000  Biso   1.000  N
  C73      1.0000 0.79812  0.20188  0.64170  Biso   1.000  C
  C74      1.0000 0.76087  0.23913  0.62060  Biso   1.000  C
  N5       1.0000 0.41026  0.58974  0.79683  Biso   1.000  N
  N6       1.0000 0.37761  0.62239  0.84383  Biso   1.000  N
  N7       1.0000 0.37494  0.62506  0.02053  Biso   1.000  N
  N8       1.0000 0.40597  0.59403  0.09333  Biso   1.000  N
  C75      1.0000 0.46479  0.53521  0.97503  Biso   1.000  C
  C76      1.0000 0.42754  0.57246  0.95393  Biso   1.000  C
  N9       1.0000 0.07692  0.92308  0.13017  Biso   1.000  N
  N10      1.0000 0.04427  0.95573  0.17717  Biso   1.000  N
  N11      1.0000 0.04161  0.95839  0.35387  Biso   1.000  N
  N12      1.0000 0.07264  0.92736  0.42667  Biso   1.000  N
  C77      1.0000 0.13145  0.86855  0.30837  Biso   1.000  C
  C78      1.0000 0.09420  0.90580  0.28727  Biso   1.000  C
  N13      1.0000 0.74359  0.48718  0.46350  Biso   1.000  N
  N14      1.0000 0.71094  0.42188  0.51050  Biso   1.000  N
  N15      1.0000 0.70828  0.41655  0.68720  Biso   1.000  N
  N16      1.0000 0.73931  0.47861  0.76000  Biso   1.000  N
  C79      1.0000 0.79812  0.59624  0.64170  Biso   1.000  C
  C80      1.0000 0.76087  0.52174  0.62060  Biso   1.000  C
  N17      1.0000 0.41026  0.82051  0.79683  Biso   1.000  N
  N18      1.0000 0.37761  0.75521  0.84383  Biso   1.000  N
  N19      1.0000 0.37494  0.74988  0.02053  Biso   1.000  N
  N20      1.0000 0.40597  0.81194  0.09333  Biso   1.000  N
  C81      1.0000 0.46479  0.92957  0.97503  Biso   1.000  C
  C82      1.0000 0.42754  0.85507  0.95393  Biso   1.000  C
  N21      1.0000 0.07692  0.15385  0.13017  Biso   1.000  N
  N22      1.0000 0.04427  0.08855  0.17717  Biso   1.000  N
  N23      1.0000 0.04161  0.08322  0.35387  Biso   1.000  N
  N24      1.0000 0.07264  0.14528  0.42667  Biso   1.000  N
  C83      1.0000 0.13145  0.26291  0.30837  Biso   1.000  C
  C84      1.0000 0.09420  0.18841  0.28727  Biso   1.000  C
  N25      1.0000 0.51282  0.25641  0.46350  Biso   1.000  N
  N26      1.0000 0.57812  0.28906  0.51050  Biso   1.000  N
  N27      1.0000 0.58345  0.29172  0.68720  Biso   1.000  N
  N28      1.0000 0.52139  0.26069  0.76000  Biso   1.000  N
  C85      1.0000 0.40376  0.20188  0.64170  Biso   1.000  C
  C86      1.0000 0.47826  0.23913  0.62060  Biso   1.000  C
  N29      1.0000 0.17949  0.58974  0.79683  Biso   1.000  N
  N30      1.0000 0.24479  0.62239  0.84383  Biso   1.000  N
  N31      1.0000 0.25012  0.62506  0.02053  Biso   1.000  N
  N32      1.0000 0.18806  0.59403  0.09333  Biso   1.000  N
  C87      1.0000 0.07043  0.53521  0.97503  Biso   1.000  C
  C88      1.0000 0.14493  0.57246  0.95393  Biso   1.000  C
  N33      1.0000 0.84615  0.92308  0.13017  Biso   1.000  N
  N34      1.0000 0.91145  0.95573  0.17717  Biso   1.000  N
  N35      1.0000 0.91678  0.95839  0.35387  Biso   1.000  N
  N36      1.0000 0.85472  0.92736  0.42667  Biso   1.000  N
  C89      1.0000 0.73709  0.86855  0.30837  Biso   1.000  C
  C90      1.0000 0.81159  0.90580  0.28727  Biso   1.000  C
  N37      1.0000 0.25641  0.74359  0.53650  Biso   1.000  N
  N38      1.0000 0.28906  0.71094  0.48950  Biso   1.000  N
  N39      1.0000 0.29172  0.70828  0.31280  Biso   1.000  N
  N40      1.0000 0.26069  0.73931  0.24000  Biso   1.000  N
  C91      1.0000 0.20188  0.79812  0.35830  Biso   1.000  C
  C92      1.0000 0.23913  0.76087  0.37940  Biso   1.000  C
  N41      1.0000 0.92308  0.07692  0.86983  Biso   1.000  N
  N42      1.0000 0.95573  0.04427  0.82283  Biso   1.000  N
  N43      1.0000 0.95839  0.04161  0.64613  Biso   1.000  N
  N44      1.0000 0.92736  0.07264  0.57333  Biso   1.000  N
  C93      1.0000 0.86855  0.13145  0.69163  Biso   1.000  C
  C94      1.0000 0.90580  0.09420  0.71273  Biso   1.000  C
  N45      1.0000 0.58974  0.41026  0.20317  Biso   1.000  N
  N46      1.0000 0.62239  0.37761  0.15617  Biso   1.000  N
  N47      1.0000 0.62506  0.37494  0.97947  Biso   1.000  N
  N48      1.0000 0.59403  0.40597  0.90667  Biso   1.000  N
  C95      1.0000 0.53521  0.46479  0.02497  Biso   1.000  C
  C96      1.0000 0.57246  0.42754  0.04607  Biso   1.000  C
  N49      1.0000 0.48718  0.74359  0.53650  Biso   1.000  N
  N50      1.0000 0.42188  0.71094  0.48950  Biso   1.000  N
  N51      1.0000 0.41655  0.70828  0.31280  Biso   1.000  N
  N52      1.0000 0.47861  0.73931  0.24000  Biso   1.000  N
  C97      1.0000 0.59624  0.79812  0.35830  Biso   1.000  C
  C98      1.0000 0.52174  0.76087  0.37940  Biso   1.000  C
  N53      1.0000 0.15385  0.07692  0.86983  Biso   1.000  N
  N54      1.0000 0.08855  0.04427  0.82283  Biso   1.000  N
  N55      1.0000 0.08322  0.04161  0.64613  Biso   1.000  N
  N56      1.0000 0.14528  0.07264  0.57333  Biso   1.000  N
  C99      1.0000 0.26291  0.13145  0.69163  Biso   1.000  C
  C100     1.0000 0.18841  0.09420  0.71273  Biso   1.000  C
  N57      1.0000 0.82051  0.41026  0.20317  Biso   1.000  N
  N58      1.0000 0.75521  0.37761  0.15617  Biso   1.000  N
  N59      1.0000 0.74988  0.37494  0.97947  Biso   1.000  N
  N60      1.0000 0.81194  0.40597  0.90667  Biso   1.000  N
  C101     1.0000 0.92957  0.46479  0.02497  Biso   1.000  C
  C102     1.0000 0.85507  0.42754  0.04607  Biso   1.000  C
  N61      1.0000 0.25641  0.51282  0.53650  Biso   1.000  N
  N62      1.0000 0.28906  0.57812  0.48950  Biso   1.000  N
  N63      1.0000 0.29172  0.58345  0.31280  Biso   1.000  N
  N64      1.0000 0.26069  0.52139  0.24000  Biso   1.000  N
  C103     1.0000 0.20188  0.40376  0.35830  Biso   1.000  C
  C104     1.0000 0.23913  0.47826  0.37940  Biso   1.000  C
  N65      1.0000 0.92308  0.84615  0.86983  Biso   1.000  N
  N66      1.0000 0.95573  0.91145  0.82283  Biso   1.000  N
  N67      1.0000 0.95839  0.91678  0.64613  Biso   1.000  N
  N68      1.0000 0.92736  0.85472  0.57333  Biso   1.000  N
  C105     1.0000 0.86855  0.73709  0.69163  Biso   1.000  C
  C106     1.0000 0.90580  0.81159  0.71273  Biso   1.000  C
  N69      1.0000 0.58974  0.17949  0.20317  Biso   1.000  N
  N70      1.0000 0.62239  0.24479  0.15617  Biso   1.000  N
  N71      1.0000 0.62506  0.25012  0.97947  Biso   1.000  N
  N72      1.0000 0.59403  0.18806  0.90667  Biso   1.000  N
  C107     1.0000 0.53521  0.07043  0.02497  Biso   1.000  C
  C108     1.0000 0.57246  0.14493  0.04607  Biso   1.000  C
  H73      1.0000 0.08565  0.17130  0.01840  Biso   1.000  H
  H74      1.0000 0.07815  0.15630  0.54400  Biso   1.000  H
  H75      1.0000 0.75232  0.50463  0.35173  Biso   1.000  H
  H76      1.0000 0.74482  0.48963  0.87733  Biso   1.000  H
  H77      1.0000 0.41898  0.83797  0.68507  Biso   1.000  H
  H78      1.0000 0.41148  0.82297  0.21067  Biso   1.000  H
  H79      1.0000 0.82870  0.91435  0.01840  Biso   1.000  H
  H80      1.0000 0.84370  0.92185  0.54400  Biso   1.000  H
  H81      1.0000 0.49537  0.24768  0.35173  Biso   1.000  H
  H82      1.0000 0.51037  0.25518  0.87733  Biso   1.000  H
  H83      1.0000 0.16203  0.58102  0.68507  Biso   1.000  H
  H84      1.0000 0.17703  0.58852  0.21067  Biso   1.000  H
  H85      1.0000 0.08565  0.91435  0.01840  Biso   1.000  H
  H86      1.0000 0.07815  0.92185  0.54400  Biso   1.000  H
  H87      1.0000 0.75232  0.24768  0.35173  Biso   1.000  H
  H88      1.0000 0.74482  0.25518  0.87733  Biso   1.000  H
  H89      1.0000 0.41898  0.58102  0.68507  Biso   1.000  H
  H90      1.0000 0.41148  0.58852  0.21067  Biso   1.000  H
  H91      1.0000 0.17130  0.08565  0.98160  Biso   1.000  H
  H92      1.0000 0.15630  0.07815  0.45600  Biso   1.000  H
  H93      1.0000 0.83797  0.41898  0.31493  Biso   1.000  H
  H94      1.0000 0.82297  0.41148  0.78933  Biso   1.000  H
  H95      1.0000 0.50463  0.75232  0.64827  Biso   1.000  H
  H96      1.0000 0.48963  0.74482  0.12267  Biso   1.000  H
  H97      1.0000 0.91435  0.82870  0.98160  Biso   1.000  H
  H98      1.0000 0.92185  0.84370  0.45600  Biso   1.000  H
  H99      1.0000 0.58102  0.16203  0.31493  Biso   1.000  H
  H100     1.0000 0.58852  0.17703  0.78933  Biso   1.000  H
  H101     1.0000 0.24768  0.49537  0.64827  Biso   1.000  H
  H102     1.0000 0.25518  0.51037  0.12267  Biso   1.000  H
  H103     1.0000 0.91435  0.08565  0.98160  Biso   1.000  H
  H104     1.0000 0.92185  0.07815  0.45600  Biso   1.000  H
  H105     1.0000 0.58102  0.41898  0.31493  Biso   1.000  H
  H106     1.0000 0.58852  0.41148  0.78933  Biso   1.000  H
  H107     1.0000 0.24768  0.75232  0.64827  Biso   1.000  H
  H108     1.0000 0.25518  0.74482  0.12267  Biso   1.000  H
