data_image0
_cell_length_a       22.505
_cell_length_b       22.505
_cell_length_c       7.3716
_cell_angle_alpha    90
_cell_angle_beta     90
_cell_angle_gamma    120

_symmetry_space_group_name_H-M    "P 1"
_symmetry_int_tables_number       1

loop_
  _symmetry_equiv_pos_as_xyz
  'x, y, z'

loop_
  _atom_site_label
  _atom_site_occupancy
  _atom_site_fract_x
  _atom_site_fract_y
  _atom_site_fract_z
  _atom_site_thermal_displace_type
  _atom_site_B_iso_or_equiv
  _atom_site_type_symbol
  C1       1.0000 0.78830  0.14950  0.52120  Biso   1.000  C
  H1       1.0000 0.75720  0.13740  0.42240  Biso   1.000  H
  C2       1.0000 0.78170  0.15790  0.78180  Biso   1.000  C
  H2       1.0000 0.74610  0.15130  0.86330  Biso   1.000  H
  C3       1.0000 0.45497  0.48283  0.85453  Biso   1.000  C
  H3       1.0000 0.42387  0.47073  0.75573  Biso   1.000  H
  C4       1.0000 0.44837  0.49123  0.11513  Biso   1.000  C
  H4       1.0000 0.41277  0.48463  0.19663  Biso   1.000  H
  C5       1.0000 0.12163  0.81617  0.18787  Biso   1.000  C
  H5       1.0000 0.09053  0.80407  0.08907  Biso   1.000  H
  C6       1.0000 0.11503  0.82457  0.44847  Biso   1.000  C
  H6       1.0000 0.07943  0.81797  0.52997  Biso   1.000  H
  C7       1.0000 0.85050  0.63880  0.52120  Biso   1.000  C
  H7       1.0000 0.86260  0.61980  0.42240  Biso   1.000  H
  C8       1.0000 0.84210  0.62380  0.78180  Biso   1.000  C
  H8       1.0000 0.84870  0.59480  0.86330  Biso   1.000  H
  C9       1.0000 0.51717  0.97213  0.85453  Biso   1.000  C
  H9       1.0000 0.52927  0.95313  0.75573  Biso   1.000  H
  C10      1.0000 0.50877  0.95713  0.11513  Biso   1.000  C
  H10      1.0000 0.51537  0.92813  0.19663  Biso   1.000  H
  C11      1.0000 0.18383  0.30547  0.18787  Biso   1.000  C
  H11      1.0000 0.19593  0.28647  0.08907  Biso   1.000  H
  C12      1.0000 0.17543  0.29047  0.44847  Biso   1.000  C
  H12      1.0000 0.18203  0.26147  0.52997  Biso   1.000  H
  C13      1.0000 0.36120  0.21170  0.52120  Biso   1.000  C
  H13      1.0000 0.38020  0.24280  0.42240  Biso   1.000  H
  C14      1.0000 0.37620  0.21830  0.78180  Biso   1.000  C
  H14      1.0000 0.40520  0.25390  0.86330  Biso   1.000  H
  C15      1.0000 0.02787  0.54503  0.85453  Biso   1.000  C
  H15      1.0000 0.04687  0.57613  0.75573  Biso   1.000  H
  C16      1.0000 0.04287  0.55163  0.11513  Biso   1.000  C
  H16      1.0000 0.07187  0.58723  0.19663  Biso   1.000  H
  C17      1.0000 0.69453  0.87837  0.18787  Biso   1.000  C
  H17      1.0000 0.71353  0.90947  0.08907  Biso   1.000  H
  C18      1.0000 0.70953  0.88497  0.44847  Biso   1.000  C
  H18      1.0000 0.73853  0.92057  0.52997  Biso   1.000  H
  C19      1.0000 0.14950  0.78830  0.47880  Biso   1.000  C
  H19      1.0000 0.13740  0.75720  0.57760  Biso   1.000  H
  C20      1.0000 0.15790  0.78170  0.21820  Biso   1.000  C
  H20      1.0000 0.15130  0.74610  0.13670  Biso   1.000  H
  C21      1.0000 0.81617  0.12163  0.81213  Biso   1.000  C
  H21      1.0000 0.80407  0.09053  0.91093  Biso   1.000  H
  C22      1.0000 0.82457  0.11503  0.55153  Biso   1.000  C
  H22      1.0000 0.81797  0.07943  0.47003  Biso   1.000  H
  C23      1.0000 0.48283  0.45497  0.14547  Biso   1.000  C
  H23      1.0000 0.47073  0.42387  0.24427  Biso   1.000  H
  C24      1.0000 0.49123  0.44837  0.88487  Biso   1.000  C
  H24      1.0000 0.48463  0.41277  0.80337  Biso   1.000  H
  C25      1.0000 0.63880  0.85050  0.47880  Biso   1.000  C
  H25      1.0000 0.61980  0.86260  0.57760  Biso   1.000  H
  C26      1.0000 0.62380  0.84210  0.21820  Biso   1.000  C
  H26      1.0000 0.59480  0.84870  0.13670  Biso   1.000  H
  C27      1.0000 0.30547  0.18383  0.81213  Biso   1.000  C
  H27      1.0000 0.28647  0.19593  0.91093  Biso   1.000  H
  C28      1.0000 0.29047  0.17543  0.55153  Biso   1.000  C
  H28      1.0000 0.26147  0.18203  0.47003  Biso   1.000  H
  C29      1.0000 0.97213  0.51717  0.14547  Biso   1.000  C
  H29      1.0000 0.95313  0.52927  0.24427  Biso   1.000  H
  C30      1.0000 0.95713  0.50877  0.88487  Biso   1.000  C
  H30      1.0000 0.92813  0.51537  0.80337  Biso   1.000  H
  C31      1.0000 0.21170  0.36120  0.47880  Biso   1.000  C
  H31      1.0000 0.24280  0.38020  0.57760  Biso   1.000  H
  C32      1.0000 0.21830  0.37620  0.21820  Biso   1.000  C
  H32      1.0000 0.25390  0.40520  0.13670  Biso   1.000  H
  C33      1.0000 0.87837  0.69453  0.81213  Biso   1.000  C
  H33      1.0000 0.90947  0.71353  0.91093  Biso   1.000  H
  C34      1.0000 0.88497  0.70953  0.55153  Biso   1.000  C
  H34      1.0000 0.92057  0.73853  0.47003  Biso   1.000  H
  C35      1.0000 0.54503  0.02787  0.14547  Biso   1.000  C
  H35      1.0000 0.57613  0.04687  0.24427  Biso   1.000  H
  C36      1.0000 0.55163  0.04287  0.88487  Biso   1.000  C
  H36      1.0000 0.58723  0.07187  0.80337  Biso   1.000  H
  C37      1.0000 0.21170  0.85050  0.47880  Biso   1.000  C
  H37      1.0000 0.24280  0.86260  0.57760  Biso   1.000  H
  C38      1.0000 0.21830  0.84210  0.21820  Biso   1.000  C
  H38      1.0000 0.25390  0.84870  0.13670  Biso   1.000  H
  C39      1.0000 0.87837  0.18383  0.81213  Biso   1.000  C
  H39      1.0000 0.90947  0.19593  0.91093  Biso   1.000  H
  C40      1.0000 0.88497  0.17543  0.55153  Biso   1.000  C
  H40      1.0000 0.92057  0.18203  0.47003  Biso   1.000  H
  C41      1.0000 0.54503  0.51717  0.14547  Biso   1.000  C
  H41      1.0000 0.57613  0.52927  0.24427  Biso   1.000  H
  C42      1.0000 0.55163  0.50877  0.88487  Biso   1.000  C
  H42      1.0000 0.58723  0.51537  0.80337  Biso   1.000  H
  C43      1.0000 0.14950  0.36120  0.47880  Biso   1.000  C
  H43      1.0000 0.13740  0.38020  0.57760  Biso   1.000  H
  C44      1.0000 0.15790  0.37620  0.21820  Biso   1.000  C
  H44      1.0000 0.15130  0.40520  0.13670  Biso   1.000  H
  C45      1.0000 0.81617  0.69453  0.81213  Biso   1.000  C
  H45      1.0000 0.80407  0.71353  0.91093  Biso   1.000  H
  C46      1.0000 0.82457  0.70953  0.55153  Biso   1.000  C
  H46      1.0000 0.81797  0.73853  0.47003  Biso   1.000  H
  C47      1.0000 0.48283  0.02787  0.14547  Biso   1.000  C
  H47      1.0000 0.47073  0.04687  0.24427  Biso   1.000  H
  C48      1.0000 0.49123  0.04287  0.88487  Biso   1.000  C
  H48      1.0000 0.48463  0.07187  0.80337  Biso   1.000  H
  C49      1.0000 0.63880  0.78830  0.47880  Biso   1.000  C
  H49      1.0000 0.61980  0.75720  0.57760  Biso   1.000  H
  C50      1.0000 0.62380  0.78170  0.21820  Biso   1.000  C
  H50      1.0000 0.59480  0.74610  0.13670  Biso   1.000  H
  C51      1.0000 0.30547  0.12163  0.81213  Biso   1.000  C
  H51      1.0000 0.28647  0.09053  0.91093  Biso   1.000  H
  C52      1.0000 0.29047  0.11503  0.55153  Biso   1.000  C
  H52      1.0000 0.26147  0.07943  0.47003  Biso   1.000  H
  C53      1.0000 0.97213  0.45497  0.14547  Biso   1.000  C
  H53      1.0000 0.95313  0.42387  0.24427  Biso   1.000  H
  C54      1.0000 0.95713  0.44837  0.88487  Biso   1.000  C
  H54      1.0000 0.92813  0.41277  0.80337  Biso   1.000  H
  C55      1.0000 0.85050  0.21170  0.52120  Biso   1.000  C
  H55      1.0000 0.86260  0.24280  0.42240  Biso   1.000  H
  C56      1.0000 0.84210  0.21830  0.78180  Biso   1.000  C
  H56      1.0000 0.84870  0.25390  0.86330  Biso   1.000  H
  C57      1.0000 0.51717  0.54503  0.85453  Biso   1.000  C
  H57      1.0000 0.52927  0.57613  0.75573  Biso   1.000  H
  C58      1.0000 0.50877  0.55163  0.11513  Biso   1.000  C
  H58      1.0000 0.51537  0.58723  0.19663  Biso   1.000  H
  C59      1.0000 0.18383  0.87837  0.18787  Biso   1.000  C
  H59      1.0000 0.19593  0.90947  0.08907  Biso   1.000  H
  C60      1.0000 0.17543  0.88497  0.44847  Biso   1.000  C
  H60      1.0000 0.18203  0.92057  0.52997  Biso   1.000  H
  C61      1.0000 0.36120  0.14950  0.52120  Biso   1.000  C
  H61      1.0000 0.38020  0.13740  0.42240  Biso   1.000  H
  C62      1.0000 0.37620  0.15790  0.78180  Biso   1.000  C
  H62      1.0000 0.40520  0.15130  0.86330  Biso   1.000  H
  C63      1.0000 0.02787  0.48283  0.85453  Biso   1.000  C
  H63      1.0000 0.04687  0.47073  0.75573  Biso   1.000  H
  C64      1.0000 0.04287  0.49123  0.11513  Biso   1.000  C
  H64      1.0000 0.07187  0.48463  0.19663  Biso   1.000  H
  C65      1.0000 0.69453  0.81617  0.18787  Biso   1.000  C
  H65      1.0000 0.71353  0.80407  0.08907  Biso   1.000  H
  C66      1.0000 0.70953  0.82457  0.44847  Biso   1.000  C
  H66      1.0000 0.73853  0.81797  0.52997  Biso   1.000  H
  C67      1.0000 0.78830  0.63880  0.52120  Biso   1.000  C
  H67      1.0000 0.75720  0.61980  0.42240  Biso   1.000  H
  C68      1.0000 0.78170  0.62380  0.78180  Biso   1.000  C
  H68      1.0000 0.74610  0.59480  0.86330  Biso   1.000  H
  C69      1.0000 0.45497  0.97213  0.85453  Biso   1.000  C
  H69      1.0000 0.42387  0.95313  0.75573  Biso   1.000  H
  C70      1.0000 0.44837  0.95713  0.11513  Biso   1.000  C
  H70      1.0000 0.41277  0.92813  0.19663  Biso   1.000  H
  C71      1.0000 0.12163  0.30547  0.18787  Biso   1.000  C
  H71      1.0000 0.09053  0.28647  0.08907  Biso   1.000  H
  C72      1.0000 0.11503  0.29047  0.44847  Biso   1.000  C
  H72      1.0000 0.07943  0.26147  0.52997  Biso   1.000  H
  Fe1      1.0000 0.66667  0.33333  0.33333  Biso   1.000  Fe
  Fe2      1.0000 0.33333  0.66667  0.66667  Biso   1.000  Fe
  Fe3      1.0000 0.00000  0.00000  0.00000  Biso   1.000  Fe
  Fe4      1.0000 0.66667  0.33333  0.83333  Biso   1.000  Fe
  Fe5      1.0000 0.33333  0.66667  0.16667  Biso   1.000  Fe
  Fe6      1.0000 0.00000  0.00000  0.50000  Biso   1.000  Fe
  N1       1.0000 0.74307  0.25693  0.45740  Biso   1.000  N
  N2       1.0000 0.71004  0.28996  0.50490  Biso   1.000  N
  N3       1.0000 0.70802  0.29198  0.68460  Biso   1.000  N
  N4       1.0000 0.73923  0.26077  0.75730  Biso   1.000  N
  C73      1.0000 0.79802  0.20198  0.63840  Biso   1.000  C
  C74      1.0000 0.76072  0.23928  0.61400  Biso   1.000  C
  N5       1.0000 0.40974  0.59026  0.79073  Biso   1.000  N
  N6       1.0000 0.37671  0.62329  0.83823  Biso   1.000  N
  N7       1.0000 0.37469  0.62531  0.01793  Biso   1.000  N
  N8       1.0000 0.40590  0.59410  0.09063  Biso   1.000  N
  C75      1.0000 0.46469  0.53531  0.97173  Biso   1.000  C
  C76      1.0000 0.42739  0.57261  0.94733  Biso   1.000  C
  N9       1.0000 0.07640  0.92360  0.12407  Biso   1.000  N
  N10      1.0000 0.04338  0.95662  0.17157  Biso   1.000  N
  N11      1.0000 0.04135  0.95865  0.35127  Biso   1.000  N
  N12      1.0000 0.07257  0.92743  0.42397  Biso   1.000  N
  C77      1.0000 0.13135  0.86865  0.30507  Biso   1.000  C
  C78      1.0000 0.09405  0.90595  0.28067  Biso   1.000  C
  N13      1.0000 0.74307  0.48614  0.45740  Biso   1.000  N
  N14      1.0000 0.71004  0.42009  0.50490  Biso   1.000  N
  N15      1.0000 0.70802  0.41604  0.68460  Biso   1.000  N
  N16      1.0000 0.73923  0.47847  0.75730  Biso   1.000  N
  C79      1.0000 0.79802  0.59604  0.63840  Biso   1.000  C
  C80      1.0000 0.76072  0.52144  0.61400  Biso   1.000  C
  N17      1.0000 0.40974  0.81947  0.79073  Biso   1.000  N
  N18      1.0000 0.37671  0.75342  0.83823  Biso   1.000  N
  N19      1.0000 0.37469  0.74937  0.01793  Biso   1.000  N
  N20      1.0000 0.40590  0.81180  0.09063  Biso   1.000  N
  C81      1.0000 0.46469  0.92937  0.97173  Biso   1.000  C
  C82      1.0000 0.42739  0.85477  0.94733  Biso   1.000  C
  N21      1.0000 0.07640  0.15281  0.12407  Biso   1.000  N
  N22      1.0000 0.04338  0.08676  0.17157  Biso   1.000  N
  N23      1.0000 0.04135  0.08271  0.35127  Biso   1.000  N
  N24      1.0000 0.07257  0.14514  0.42397  Biso   1.000  N
  C83      1.0000 0.13135  0.26271  0.30507  Biso   1.000  C
  C84      1.0000 0.09405  0.18811  0.28067  Biso   1.000  C
  N25      1.0000 0.51386  0.25693  0.45740  Biso   1.000  N
  N26      1.0000 0.57991  0.28996  0.50490  Biso   1.000  N
  N27      1.0000 0.58396  0.29198  0.68460  Biso   1.000  N
  N28      1.0000 0.52153  0.26077  0.75730  Biso   1.000  N
  C85      1.0000 0.40396  0.20198  0.63840  Biso   1.000  C
  C86      1.0000 0.47856  0.23928  0.61400  Biso   1.000  C
  N29      1.0000 0.18053  0.59026  0.79073  Biso   1.000  N
  N30      1.0000 0.24658  0.62329  0.83823  Biso   1.000  N
  N31      1.0000 0.25063  0.62531  0.01793  Biso   1.000  N
  N32      1.0000 0.18820  0.59410  0.09063  Biso   1.000  N
  C87      1.0000 0.07063  0.53531  0.97173  Biso   1.000  C
  C88      1.0000 0.14523  0.57261  0.94733  Biso   1.000  C
  N33      1.0000 0.84719  0.92360  0.12407  Biso   1.000  N
  N34      1.0000 0.91324  0.95662  0.17157  Biso   1.000  N
  N35      1.0000 0.91729  0.95865  0.35127  Biso   1.000  N
  N36      1.0000 0.85486  0.92743  0.42397  Biso   1.000  N
  C89      1.0000 0.73729  0.86865  0.30507  Biso   1.000  C
  C90      1.0000 0.81189  0.90595  0.28067  Biso   1.000  C
  N37      1.0000 0.25693  0.74307  0.54260  Biso   1.000  N
  N38      1.0000 0.28996  0.71004  0.49510  Biso   1.000  N
  N39      1.0000 0.29198  0.70802  0.31540  Biso   1.000  N
  N40      1.0000 0.26077  0.73923  0.24270  Biso   1.000  N
  C91      1.0000 0.20198  0.79802  0.36160  Biso   1.000  C
  C92      1.0000 0.23928  0.76072  0.38600  Biso   1.000  C
  N41      1.0000 0.92360  0.07640  0.87593  Biso   1.000  N
  N42      1.0000 0.95662  0.04338  0.82843  Biso   1.000  N
  N43      1.0000 0.95865  0.04135  0.64873  Biso   1.000  N
  N44      1.0000 0.92743  0.07257  0.57603  Biso   1.000  N
  C93      1.0000 0.86865  0.13135  0.69493  Biso   1.000  C
  C94      1.0000 0.90595  0.09405  0.71933  Biso   1.000  C
  N45      1.0000 0.59026  0.40974  0.20927  Biso   1.000  N
  N46      1.0000 0.62329  0.37671  0.16177  Biso   1.000  N
  N47      1.0000 0.62531  0.37469  0.98207  Biso   1.000  N
  N48      1.0000 0.59410  0.40590  0.90937  Biso   1.000  N
  C95      1.0000 0.53531  0.46469  0.02827  Biso   1.000  C
  C96      1.0000 0.57261  0.42739  0.05267  Biso   1.000  C
  N49      1.0000 0.48614  0.74307  0.54260  Biso   1.000  N
  N50      1.0000 0.42009  0.71004  0.49510  Biso   1.000  N
  N51      1.0000 0.41604  0.70802  0.31540  Biso   1.000  N
  N52      1.0000 0.47847  0.73923  0.24270  Biso   1.000  N
  C97      1.0000 0.59604  0.79802  0.36160  Biso   1.000  C
  C98      1.0000 0.52144  0.76072  0.38600  Biso   1.000  C
  N53      1.0000 0.15281  0.07640  0.87593  Biso   1.000  N
  N54      1.0000 0.08676  0.04338  0.82843  Biso   1.000  N
  N55      1.0000 0.08271  0.04135  0.64873  Biso   1.000  N
  N56      1.0000 0.14514  0.07257  0.57603  Biso   1.000  N
  C99      1.0000 0.26271  0.13135  0.69493  Biso   1.000  C
  C100     1.0000 0.18811  0.09405  0.71933  Biso   1.000  C
  N57      1.0000 0.81947  0.40974  0.20927  Biso   1.000  N
  N58      1.0000 0.75342  0.37671  0.16177  Biso   1.000  N
  N59      1.0000 0.74937  0.37469  0.98207  Biso   1.000  N
  N60      1.0000 0.81180  0.40590  0.90937  Biso   1.000  N
  C101     1.0000 0.92937  0.46469  0.02827  Biso   1.000  C
  C102     1.0000 0.85477  0.42739  0.05267  Biso   1.000  C
  N61      1.0000 0.25693  0.51386  0.54260  Biso   1.000  N
  N62      1.0000 0.28996  0.57991  0.49510  Biso   1.000  N
  N63      1.0000 0.29198  0.58396  0.31540  Biso   1.000  N
  N64      1.0000 0.26077  0.52153  0.24270  Biso   1.000  N
  C103     1.0000 0.20198  0.40396  0.36160  Biso   1.000  C
  C104     1.0000 0.23928  0.47856  0.38600  Biso   1.000  C
  N65      1.0000 0.92360  0.84719  0.87593  Biso   1.000  N
  N66      1.0000 0.95662  0.91324  0.82843  Biso   1.000  N
  N67      1.0000 0.95865  0.91729  0.64873  Biso   1.000  N
  N68      1.0000 0.92743  0.85486  0.57603  Biso   1.000  N
  C105     1.0000 0.86865  0.73729  0.69493  Biso   1.000  C
  C106     1.0000 0.90595  0.81189  0.71933  Biso   1.000  C
  N69      1.0000 0.59026  0.18053  0.20927  Biso   1.000  N
  N70      1.0000 0.62329  0.24658  0.16177  Biso   1.000  N
  N71      1.0000 0.62531  0.25063  0.98207  Biso   1.000  N
  N72      1.0000 0.59410  0.18820  0.90937  Biso   1.000  N
  C107     1.0000 0.53531  0.07063  0.02827  Biso   1.000  C
  C108     1.0000 0.57261  0.14523  0.05267  Biso   1.000  C
  H73      1.0000 0.08515  0.17030  0.01230  Biso   1.000  H
  H74      1.0000 0.07805  0.15610  0.54130  Biso   1.000  H
  H75      1.0000 0.75182  0.50363  0.34563  Biso   1.000  H
  H76      1.0000 0.74472  0.48943  0.87463  Biso   1.000  H
  H77      1.0000 0.41848  0.83697  0.67897  Biso   1.000  H
  H78      1.0000 0.41138  0.82277  0.20797  Biso   1.000  H
  H79      1.0000 0.82970  0.91485  0.01230  Biso   1.000  H
  H80      1.0000 0.84390  0.92195  0.54130  Biso   1.000  H
  H81      1.0000 0.49637  0.24818  0.34563  Biso   1.000  H
  H82      1.0000 0.51057  0.25528  0.87463  Biso   1.000  H
  H83      1.0000 0.16303  0.58152  0.67897  Biso   1.000  H
  H84      1.0000 0.17723  0.58862  0.20797  Biso   1.000  H
  H85      1.0000 0.08515  0.91485  0.01230  Biso   1.000  H
  H86      1.0000 0.07805  0.92195  0.54130  Biso   1.000  H
  H87      1.0000 0.75182  0.24818  0.34563  Biso   1.000  H
  H88      1.0000 0.74472  0.25528  0.87463  Biso   1.000  H
  H89      1.0000 0.41848  0.58152  0.67897  Biso   1.000  H
  H90      1.0000 0.41138  0.58862  0.20797  Biso   1.000  H
  H91      1.0000 0.17030  0.08515  0.98770  Biso   1.000  H
  H92      1.0000 0.15610  0.07805  0.45870  Biso   1.000  H
  H93      1.0000 0.83697  0.41848  0.32103  Biso   1.000  H
  H94      1.0000 0.82277  0.41138  0.79203  Biso   1.000  H
  H95      1.0000 0.50363  0.75182  0.65437  Biso   1.000  H
  H96      1.0000 0.48943  0.74472  0.12537  Biso   1.000  H
  H97      1.0000 0.91485  0.82970  0.98770  Biso   1.000  H
  H98      1.0000 0.92195  0.84390  0.45870  Biso   1.000  H
  H99      1.0000 0.58152  0.16303  0.32103  Biso   1.000  H
  H100     1.0000 0.58862  0.17723  0.79203  Biso   1.000  H
  H101     1.0000 0.24818  0.49637  0.65437  Biso   1.000  H
  H102     1.0000 0.25528  0.51057  0.12537  Biso   1.000  H
  H103     1.0000 0.91485  0.08515  0.98770  Biso   1.000  H
  H104     1.0000 0.92195  0.07805  0.45870  Biso   1.000  H
  H105     1.0000 0.58152  0.41848  0.32103  Biso   1.000  H
  H106     1.0000 0.58862  0.41138  0.79203  Biso   1.000  H
  H107     1.0000 0.24818  0.75182  0.65437  Biso   1.000  H
  H108     1.0000 0.25528  0.74472  0.12537  Biso   1.000  H
