data_image0
_cell_length_a       10.2345
_cell_length_b       10.2345
_cell_length_c       7.0799
_cell_angle_alpha    90
_cell_angle_beta     90
_cell_angle_gamma    120

_symmetry_space_group_name_H-M    "P 1"
_symmetry_int_tables_number       1

loop_
  _symmetry_equiv_pos_as_xyz
  'x, y, z'

loop_
  _atom_site_label
  _atom_site_occupancy
  _atom_site_fract_x
  _atom_site_fract_y
  _atom_site_fract_z
  _atom_site_thermal_displace_type
  _atom_site_B_iso_or_equiv
  _atom_site_type_symbol
  Zn1      1.0000 0.66667  0.33333  0.25000  Biso   1.000  Zn
  Zn2      1.0000 0.33333  0.66667  0.75000  Biso   1.000  Zn
  Na1      1.0000 0.00000  0.00000  0.00000  Biso   1.000  Na
  Na2      1.0000 0.00000  0.00000  0.50000  Biso   1.000  Na
  N1       1.0000 0.44250  0.22125  0.25000  Biso   1.000  N
  O1       1.0000 0.17900  0.08950  0.25000  Biso   1.000  O
  C1       1.0000 0.31630  0.15815  0.25000  Biso   1.000  C
  N2       1.0000 0.77875  0.22125  0.25000  Biso   1.000  N
  O2       1.0000 0.91050  0.08950  0.25000  Biso   1.000  O
  C2       1.0000 0.84185  0.15815  0.25000  Biso   1.000  C
  N3       1.0000 0.77875  0.55750  0.25000  Biso   1.000  N
  O3       1.0000 0.91050  0.82100  0.25000  Biso   1.000  O
  C3       1.0000 0.84185  0.68370  0.25000  Biso   1.000  C
  N4       1.0000 0.55750  0.77875  0.75000  Biso   1.000  N
  O4       1.0000 0.82100  0.91050  0.75000  Biso   1.000  O
  C4       1.0000 0.68370  0.84185  0.75000  Biso   1.000  C
  N5       1.0000 0.22125  0.77875  0.75000  Biso   1.000  N
  O5       1.0000 0.08950  0.91050  0.75000  Biso   1.000  O
  C5       1.0000 0.15815  0.84185  0.75000  Biso   1.000  C
  N6       1.0000 0.22125  0.44250  0.75000  Biso   1.000  N
  O6       1.0000 0.08950  0.17900  0.75000  Biso   1.000  O
  C6       1.0000 0.15815  0.31630  0.75000  Biso   1.000  C
  O7       1.0000 0.18270  0.15180  0.25000  Biso   1.000  O
  C7       1.0000 0.31750  0.19050  0.25000  Biso   1.000  C
  O8       1.0000 0.84820  0.03090  0.25000  Biso   1.000  O
  C8       1.0000 0.80950  0.12700  0.25000  Biso   1.000  C
  O9       1.0000 0.96910  0.81730  0.25000  Biso   1.000  O
  C9       1.0000 0.87300  0.68250  0.25000  Biso   1.000  C
  O10      1.0000 0.81730  0.84820  0.75000  Biso   1.000  O
  C10      1.0000 0.68250  0.80950  0.75000  Biso   1.000  C
  O11      1.0000 0.15180  0.96910  0.75000  Biso   1.000  O
  C11      1.0000 0.19050  0.87300  0.75000  Biso   1.000  C
  O12      1.0000 0.03090  0.18270  0.75000  Biso   1.000  O
  C12      1.0000 0.12700  0.31750  0.75000  Biso   1.000  C
  O13      1.0000 0.15180  0.18270  0.75000  Biso   1.000  O
  C13      1.0000 0.19050  0.31750  0.75000  Biso   1.000  C
  O14      1.0000 0.03090  0.84820  0.75000  Biso   1.000  O
  C14      1.0000 0.12700  0.80950  0.75000  Biso   1.000  C
  O15      1.0000 0.81730  0.96910  0.75000  Biso   1.000  O
  C15      1.0000 0.68250  0.87300  0.75000  Biso   1.000  C
  O16      1.0000 0.84820  0.81730  0.25000  Biso   1.000  O
  C16      1.0000 0.80950  0.68250  0.25000  Biso   1.000  C
  O17      1.0000 0.96910  0.15180  0.25000  Biso   1.000  O
  C17      1.0000 0.87300  0.19050  0.25000  Biso   1.000  C
  O18      1.0000 0.18270  0.03090  0.25000  Biso   1.000  O
  C18      1.0000 0.31750  0.12700  0.25000  Biso   1.000  C
