data_image0
_cell_length_a       22.139
_cell_length_b       13.661
_cell_length_c       10.481
_cell_angle_alpha    90
_cell_angle_beta     90.06
_cell_angle_gamma    90

_symmetry_space_group_name_H-M    "P 1"
_symmetry_int_tables_number       1

loop_
  _symmetry_equiv_pos_as_xyz
  'x, y, z'

loop_
  _atom_site_label
  _atom_site_occupancy
  _atom_site_fract_x
  _atom_site_fract_y
  _atom_site_fract_z
  _atom_site_thermal_displace_type
  _atom_site_B_iso_or_equiv
  _atom_site_type_symbol
  Zn1      1.0000 0.39842  0.04063  0.68857  Biso   1.000  Zn
  Zn2      1.0000 0.25709  0.11128  0.44731  Biso   1.000  Zn
  P1       1.0000 0.35017  0.23624  0.58136  Biso   1.000  P
  H1       1.0000 0.39100  0.29500  0.54500  Biso   1.000  H
  P2       1.0000 0.26430  0.97957  0.68033  Biso   1.000  P
  H2       1.0000 0.23440  0.89500  0.65100  Biso   1.000  H
  P3       1.0000 0.47238  0.97270  0.93540  Biso   1.000  P
  O1       1.0000 0.42490  0.03340  0.87340  Biso   1.000  O
  O2       1.0000 0.41340  0.97200  0.84420  Biso   1.000  O
  O3       1.0000 0.46576  0.01480  0.58430  Biso   1.000  O
  O4       1.0000 0.32841  0.96490  0.63470  Biso   1.000  O
  O5       1.0000 0.37616  0.17680  0.69020  Biso   1.000  O
  O6       1.0000 0.23099  0.05900  0.60880  Biso   1.000  O
  O7       1.0000 0.33529  0.17560  0.46410  Biso   1.000  O
  O8       1.0000 0.29690  0.29500  0.62880  Biso   1.000  O
  O9       1.0000 0.26017  0.99460  0.82380  Biso   1.000  O
  Zn3      1.0000 0.89842  0.54063  0.68857  Biso   1.000  Zn
  Zn4      1.0000 0.75709  0.61128  0.44731  Biso   1.000  Zn
  P4       1.0000 0.85017  0.73624  0.58136  Biso   1.000  P
  H3       1.0000 0.89100  0.79500  0.54500  Biso   1.000  H
  P5       1.0000 0.76430  0.47957  0.68033  Biso   1.000  P
  H4       1.0000 0.73440  0.39500  0.65100  Biso   1.000  H
  P6       1.0000 0.97238  0.47270  0.93540  Biso   1.000  P
  O10      1.0000 0.92490  0.53340  0.87340  Biso   1.000  O
  O11      1.0000 0.91340  0.47200  0.84420  Biso   1.000  O
  O12      1.0000 0.96576  0.51480  0.58430  Biso   1.000  O
  O13      1.0000 0.82841  0.46490  0.63470  Biso   1.000  O
  O14      1.0000 0.87616  0.67680  0.69020  Biso   1.000  O
  O15      1.0000 0.73099  0.55900  0.60880  Biso   1.000  O
  O16      1.0000 0.83529  0.67560  0.46410  Biso   1.000  O
  O17      1.0000 0.79690  0.79500  0.62880  Biso   1.000  O
  O18      1.0000 0.76017  0.49460  0.82380  Biso   1.000  O
  Zn5      1.0000 0.60158  0.04063  0.81143  Biso   1.000  Zn
  Zn6      1.0000 0.74291  0.11128  0.05269  Biso   1.000  Zn
  P7       1.0000 0.64983  0.23624  0.91864  Biso   1.000  P
  H5       1.0000 0.60900  0.29500  0.95500  Biso   1.000  H
  P8       1.0000 0.73570  0.97957  0.81967  Biso   1.000  P
  H6       1.0000 0.76560  0.89500  0.84900  Biso   1.000  H
  P9       1.0000 0.52762  0.97270  0.56460  Biso   1.000  P
  O19      1.0000 0.57510  0.03340  0.62660  Biso   1.000  O
  O20      1.0000 0.58660  0.97200  0.65580  Biso   1.000  O
  O21      1.0000 0.53424  0.01480  0.91570  Biso   1.000  O
  O22      1.0000 0.67159  0.96490  0.86530  Biso   1.000  O
  O23      1.0000 0.62384  0.17680  0.80980  Biso   1.000  O
  O24      1.0000 0.76901  0.05900  0.89120  Biso   1.000  O
  O25      1.0000 0.66471  0.17560  0.03590  Biso   1.000  O
  O26      1.0000 0.70310  0.29500  0.87120  Biso   1.000  O
  O27      1.0000 0.73983  0.99460  0.67620  Biso   1.000  O
  Zn7      1.0000 0.10158  0.54063  0.81143  Biso   1.000  Zn
  Zn8      1.0000 0.24291  0.61128  0.05269  Biso   1.000  Zn
  P10      1.0000 0.14983  0.73624  0.91864  Biso   1.000  P
  H7       1.0000 0.10900  0.79500  0.95500  Biso   1.000  H
  P11      1.0000 0.23570  0.47957  0.81967  Biso   1.000  P
  H8       1.0000 0.26560  0.39500  0.84900  Biso   1.000  H
  P12      1.0000 0.02762  0.47270  0.56460  Biso   1.000  P
  O28      1.0000 0.07510  0.53340  0.62660  Biso   1.000  O
  O29      1.0000 0.08660  0.47200  0.65580  Biso   1.000  O
  O30      1.0000 0.03424  0.51480  0.91570  Biso   1.000  O
  O31      1.0000 0.17159  0.46490  0.86530  Biso   1.000  O
  O32      1.0000 0.12384  0.67680  0.80980  Biso   1.000  O
  O33      1.0000 0.26901  0.55900  0.89120  Biso   1.000  O
  O34      1.0000 0.16471  0.67560  0.03590  Biso   1.000  O
  O35      1.0000 0.20310  0.79500  0.87120  Biso   1.000  O
  O36      1.0000 0.23983  0.49460  0.67620  Biso   1.000  O
  Zn9      1.0000 0.60158  0.95937  0.31143  Biso   1.000  Zn
  Zn10     1.0000 0.74291  0.88872  0.55269  Biso   1.000  Zn
  P13      1.0000 0.64983  0.76376  0.41864  Biso   1.000  P
  H9       1.0000 0.60900  0.70500  0.45500  Biso   1.000  H
  P14      1.0000 0.73570  0.02043  0.31967  Biso   1.000  P
  H10      1.0000 0.76560  0.10500  0.34900  Biso   1.000  H
  P15      1.0000 0.52762  0.02730  0.06460  Biso   1.000  P
  O37      1.0000 0.57510  0.96660  0.12660  Biso   1.000  O
  O38      1.0000 0.58660  0.02800  0.15580  Biso   1.000  O
  O39      1.0000 0.53424  0.98520  0.41570  Biso   1.000  O
  O40      1.0000 0.67159  0.03510  0.36530  Biso   1.000  O
  O41      1.0000 0.62384  0.82320  0.30980  Biso   1.000  O
  O42      1.0000 0.76901  0.94100  0.39120  Biso   1.000  O
  O43      1.0000 0.66471  0.82440  0.53590  Biso   1.000  O
  O44      1.0000 0.70310  0.70500  0.37120  Biso   1.000  O
  O45      1.0000 0.73983  0.00540  0.17620  Biso   1.000  O
  Zn11     1.0000 0.10158  0.45937  0.31143  Biso   1.000  Zn
  Zn12     1.0000 0.24291  0.38872  0.55269  Biso   1.000  Zn
  P16      1.0000 0.14983  0.26376  0.41864  Biso   1.000  P
  H11      1.0000 0.10900  0.20500  0.45500  Biso   1.000  H
  P17      1.0000 0.23570  0.52043  0.31967  Biso   1.000  P
  H12      1.0000 0.26560  0.60500  0.34900  Biso   1.000  H
  P18      1.0000 0.02762  0.52730  0.06460  Biso   1.000  P
  O46      1.0000 0.07510  0.46660  0.12660  Biso   1.000  O
  O47      1.0000 0.08660  0.52800  0.15580  Biso   1.000  O
  O48      1.0000 0.03424  0.48520  0.41570  Biso   1.000  O
  O49      1.0000 0.17159  0.53510  0.36530  Biso   1.000  O
  O50      1.0000 0.12384  0.32320  0.30980  Biso   1.000  O
  O51      1.0000 0.26901  0.44100  0.39120  Biso   1.000  O
  O52      1.0000 0.16471  0.32440  0.53590  Biso   1.000  O
  O53      1.0000 0.20310  0.20500  0.37120  Biso   1.000  O
  O54      1.0000 0.23983  0.50540  0.17620  Biso   1.000  O
  Zn13     1.0000 0.39842  0.95937  0.18857  Biso   1.000  Zn
  Zn14     1.0000 0.25709  0.88872  0.94731  Biso   1.000  Zn
  P19      1.0000 0.35017  0.76376  0.08136  Biso   1.000  P
  H13      1.0000 0.39100  0.70500  0.04500  Biso   1.000  H
  P20      1.0000 0.26430  0.02043  0.18033  Biso   1.000  P
  H14      1.0000 0.23440  0.10500  0.15100  Biso   1.000  H
  P21      1.0000 0.47238  0.02730  0.43540  Biso   1.000  P
  O55      1.0000 0.42490  0.96660  0.37340  Biso   1.000  O
  O56      1.0000 0.41340  0.02800  0.34420  Biso   1.000  O
  O57      1.0000 0.46576  0.98520  0.08430  Biso   1.000  O
  O58      1.0000 0.32841  0.03510  0.13470  Biso   1.000  O
  O59      1.0000 0.37616  0.82320  0.19020  Biso   1.000  O
  O60      1.0000 0.23099  0.94100  0.10880  Biso   1.000  O
  O61      1.0000 0.33529  0.82440  0.96410  Biso   1.000  O
  O62      1.0000 0.29690  0.70500  0.12880  Biso   1.000  O
  O63      1.0000 0.26017  0.00540  0.32380  Biso   1.000  O
  Zn15     1.0000 0.89842  0.45937  0.18857  Biso   1.000  Zn
  Zn16     1.0000 0.75709  0.38872  0.94731  Biso   1.000  Zn
  P22      1.0000 0.85017  0.26376  0.08136  Biso   1.000  P
  H15      1.0000 0.89100  0.20500  0.04500  Biso   1.000  H
  P23      1.0000 0.76430  0.52043  0.18033  Biso   1.000  P
  H16      1.0000 0.73440  0.60500  0.15100  Biso   1.000  H
  P24      1.0000 0.97238  0.52730  0.43540  Biso   1.000  P
  O64      1.0000 0.92490  0.46660  0.37340  Biso   1.000  O
  O65      1.0000 0.91340  0.52800  0.34420  Biso   1.000  O
  O66      1.0000 0.96576  0.48520  0.08430  Biso   1.000  O
  O67      1.0000 0.82841  0.53510  0.13470  Biso   1.000  O
  O68      1.0000 0.87616  0.32320  0.19020  Biso   1.000  O
  O69      1.0000 0.73099  0.44100  0.10880  Biso   1.000  O
  O70      1.0000 0.83529  0.32440  0.96410  Biso   1.000  O
  O71      1.0000 0.79690  0.20500  0.12880  Biso   1.000  O
  O72      1.0000 0.76017  0.50540  0.32380  Biso   1.000  O
