data_image0
_cell_length_a       18.024
_cell_length_b       19.371
_cell_length_c       23.242
_cell_angle_alpha    89.45
_cell_angle_beta     87.05
_cell_angle_gamma    63.73

_symmetry_space_group_name_H-M    "P 1"
_symmetry_int_tables_number       1

loop_
  _symmetry_equiv_pos_as_xyz
  'x, y, z'

loop_
  _atom_site_label
  _atom_site_occupancy
  _atom_site_fract_x
  _atom_site_fract_y
  _atom_site_fract_z
  _atom_site_thermal_displace_type
  _atom_site_B_iso_or_equiv
  _atom_site_type_symbol
  K1       1.0000 0.31140  0.04370  0.56240  Biso   1.000  K
  K2       1.0000 0.88670  0.93170  0.44060  Biso   1.000  K
  Na1      1.0000 0.10730  0.14540  0.61830  Biso   1.000  Na
  W1       1.0000 0.93961  0.61802  0.59993  Biso   1.000  W
  W2       1.0000 0.67766  0.94753  0.61314  Biso   1.000  W
  W3       1.0000 0.92561  0.60061  0.89093  Biso   1.000  W
  W4       1.0000 0.69672  0.72170  0.89228  Biso   1.000  W
  W5       1.0000 0.13740  0.06936  0.09270  Biso   1.000  W
  W6       1.0000 0.68085  0.58342  0.66733  Biso   1.000  W
  W7       1.0000 0.71129  0.74371  0.60291  Biso   1.000  W
  W8       1.0000 0.57823  0.11861  0.83771  Biso   1.000  W
  W9       1.0000 0.11707  0.46615  0.66822  Biso   1.000  W
  W10      1.0000 0.10081  0.45083  0.80940  Biso   1.000  W
  W11      1.0000 0.49947  0.79075  0.81885  Biso   1.000  W
  W12      1.0000 0.88517  0.94730  0.61674  Biso   1.000  W
  W13      1.0000 0.18090  0.78240  0.82832  Biso   1.000  W
  W14      1.0000 0.04760  0.74339  0.60783  Biso   1.000  W
  W15      1.0000 0.51260  0.78589  0.67609  Biso   1.000  W
  W16      1.0000 0.91257  0.45874  0.66535  Biso   1.000  W
  W17      1.0000 0.22318  0.59581  0.67745  Biso   1.000  W
  W18      1.0000 0.47466  0.99440  0.68675  Biso   1.000  W
  W19      1.0000 0.65660  0.58416  0.80922  Biso   1.000  W
  W20      1.0000 0.46484  0.99746  0.82872  Biso   1.000  W
  W21      1.0000 0.97002  0.27117  0.10093  Biso   1.000  W
  W22      1.0000 0.18093  0.80317  0.68669  Biso   1.000  W
  W23      1.0000 0.88909  0.45794  0.80748  Biso   1.000  W
  W24      1.0000 0.57529  0.12677  0.69603  Biso   1.000  W
  W25      1.0000 0.01570  0.98859  0.83804  Biso   1.000  W
  W26      1.0000 0.21005  0.57832  0.81897  Biso   1.000  W
  W27      1.0000 0.78393  0.12996  0.69898  Biso   1.000  W
  W28      1.0000 0.78761  0.11931  0.84093  Biso   1.000  W
  W29      1.0000 0.01441  0.00960  0.69695  Biso   1.000  W
  W30      1.0000 0.65700  0.92719  0.90365  Biso   1.000  W
  Eu1      1.0000 0.16060  0.21120  0.17190  Biso   1.000  Eu
  Eu2      1.0000 0.84871  0.79497  0.67864  Biso   1.000  Eu
  Eu3      1.0000 0.39661  0.27721  0.94381  Biso   1.000  Eu
  Eu4      1.0000 0.95580  0.28400  0.92540  Biso   1.000  Eu
  Eu5      1.0000 0.08290  0.70290  0.07290  Biso   1.000  Eu
  P1       1.0000 0.93930  0.59310  0.74590  Biso   1.000  P
  P2       1.0000 0.65280  0.95010  0.75880  Biso   1.000  P
  P3       1.0000 0.87700  0.95240  0.76330  Biso   1.000  P
  P4       1.0000 0.69020  0.72810  0.74820  Biso   1.000  P
  P5       1.0000 0.94510  0.26890  0.24520  Biso   1.000  P
  O1       1.0000 0.89340  0.96810  0.54510  Biso   1.000  O
  O2       1.0000 0.53520  0.17660  0.76850  Biso   1.000  O
  O3       1.0000 0.71680  0.83830  0.60890  Biso   1.000  O
  O4       1.0000 0.72390  0.74020  0.80330  Biso   1.000  O
  O5       1.0000 0.83010  0.69660  0.60310  Biso   1.000  O
  O6       1.0000 0.99800  0.25840  0.19080  Biso   1.000  O
  O7       1.0000 0.71280  0.64810  0.62090  Biso   1.000  O
  O8       1.0000 0.15410  0.40640  0.73560  Biso   1.000  O
  O9       1.0000 0.87200  0.91410  0.70830  Biso   1.000  O
  O10      1.0000 0.04570  0.54620  0.62120  Biso   1.000  O
  O11      1.0000 0.27450  0.55300  0.74800  Biso   1.000  O
  O12      1.0000 0.89780  0.38200  0.85050  Biso   1.000  O
  O13      1.0000 0.58290  0.77520  0.87150  Biso   1.000  O
  O14      1.0000 0.45280  0.78960  0.74650  Biso   1.000  O
  O15      1.0000 0.23460  0.79600  0.75660  Biso   1.000  O
  O16      1.0000 0.73240  0.74930  0.69660  Biso   1.000  O
  O17      1.0000 0.79100  0.50860  0.67260  Biso   1.000  O
  O18      1.0000 0.51860  0.18890  0.88920  Biso   1.000  O
  O19      1.0000 0.55300  0.94280  0.87900  Biso   1.000  O
  O20      1.0000 0.95070  0.28290  0.02970  Biso   1.000  O
  O21      1.0000 0.57090  0.95610  0.63650  Biso   1.000  O
  O22      1.0000 0.62750  0.03270  0.88530  Biso   1.000  O
  O23      1.0000 0.81270  0.67420  0.89760  Biso   1.000  O
  O24      1.0000 0.17220  0.50520  0.80750  Biso   1.000  O
  O25      1.0000 0.88910  0.52730  0.86180  Biso   1.000  O
  O26      1.0000 0.81450  0.04740  0.64560  Biso   1.000  O
  O27      1.0000 0.64380  0.04850  0.64280  Biso   1.000  O
  O28      1.0000 0.70440  0.64390  0.74220  Biso   1.000  O
  O29      1.0000 0.06660  0.17590  0.09410  Biso   1.000  O
  O30      1.0000 0.59440  0.78020  0.74800  Biso   1.000  O
  O31      1.0000 0.13390  0.64980  0.62790  Biso   1.000  O
  O32      1.0000 0.57370  0.67850  0.67300  Biso   1.000  O
  O33      1.0000 0.50150  0.08280  0.69510  Biso   1.000  O
  O34      1.0000 0.86660  0.90850  0.81700  Biso   1.000  O
  O35      1.0000 0.59800  0.79140  0.62650  Biso   1.000  O
  O36      1.0000 0.81070  0.03690  0.76510  Biso   1.000  O
  O37      1.0000 0.89650  0.53820  0.74300  Biso   1.000  O
  O38      1.0000 0.10640  0.89570  0.82820  Biso   1.000  O
  O39      1.0000 0.78920  0.92830  0.61330  Biso   1.000  O
  O40      1.0000 0.10630  0.79450  0.63520  Biso   1.000  O
  O41      1.0000 0.63650  0.03430  0.76320  Biso   1.000  O
  O42      1.0000 0.96240  0.95510  0.76270  Biso   1.000  O
  O43      1.0000 0.90150  0.54410  0.61790  Biso   1.000  O
  O44      1.0000 0.69360  0.90920  0.81260  Biso   1.000  O
  O45      1.0000 0.03290  0.52980  0.86410  Biso   1.000  O
  O46      1.0000 0.56600  0.95330  0.75530  Biso   1.000  O
  O47      1.0000 0.11100  0.90930  0.69870  Biso   1.000  O
  O48      1.0000 0.90290  0.07930  0.83670  Biso   1.000  O
  O49      1.0000 0.41310  0.02550  0.75850  Biso   1.000  O
  O50      1.0000 0.64640  0.54690  0.73450  Biso   1.000  O
  O51      1.0000 0.23010  0.68920  0.68420  Biso   1.000  O
  O52      1.0000 0.90070  0.21620  0.24310  Biso   1.000  O
  O53      1.0000 0.97050  0.70120  0.60600  Biso   1.000  O
  O54      1.0000 0.01180  0.43010  0.80250  Biso   1.000  O
  O55      1.0000 0.12190  0.64900  0.75040  Biso   1.000  O
  O56      1.0000 0.70630  0.91360  0.70390  Biso   1.000  O
  O57      1.0000 0.69600  0.81810  0.90220  Biso   1.000  O
  O58      1.0000 0.22290  0.67680  0.81960  Biso   1.000  O
  O59      1.0000 0.04200  0.05250  0.11410  Biso   1.000  O
  O60      1.0000 0.90560  0.22180  0.11980  Biso   1.000  O
  O61      1.0000 0.66800  0.71040  0.96420  Biso   1.000  O
  O62      1.0000 0.77520  0.17800  0.77160  Biso   1.000  O
  O63      1.0000 0.76900  0.91330  0.90930  Biso   1.000  O
  O64      1.0000 0.00230  0.75210  0.70160  Biso   1.000  O
  O65      1.0000 0.69480  0.63130  0.86270  Biso   1.000  O
  O66      1.0000 0.02320  0.43700  0.66900  Biso   1.000  O
  O67      1.0000 0.67070  0.13420  0.83410  Biso   1.000  O
  O68      1.0000 0.12270  0.63380  0.87240  Biso   1.000  O
  O69      1.0000 0.47710  0.89780  0.68740  Biso   1.000  O
  O70      1.0000 0.03500  0.54060  0.74260  Biso   1.000  O
  O71      1.0000 0.91270  0.63600  0.80230  Biso   1.000  O
  O72      1.0000 0.46700  0.89350  0.81880  Biso   1.000  O
  O73      1.0000 0.90950  0.40720  0.73350  Biso   1.000  O
  O74      1.0000 0.95830  0.67830  0.89980  Biso   1.000  O
  O75      1.0000 0.91830  0.64580  0.69450  Biso   1.000  O
  O76      1.0000 0.95010  0.83830  0.61210  Biso   1.000  O
  O77      1.0000 0.18040  0.51680  0.67590  Biso   1.000  O
  O78      1.0000 0.67790  0.14180  0.70230  Biso   1.000  O
  O79      1.0000 0.55960  0.67600  0.80950  Biso   1.000  O
  O80      1.0000 0.90900  0.09090  0.70130  Biso   1.000  O
  O81      1.0000 0.49420  0.07670  0.83130  Biso   1.000  O
  O82      1.0000 0.39600  0.04120  0.64040  Biso   1.000  O
  O83      1.0000 0.97770  0.96100  0.64150  Biso   1.000  O
  O84      1.0000 0.33590  0.03280  0.45810  Biso   1.000  O
  O85      1.0000 0.77520  0.50480  0.80040  Biso   1.000  O
  O86      1.0000 0.04460  0.03020  0.77020  Biso   1.000  O
  O87      1.0000 0.20180  0.96460  0.11320  Biso   1.000  O
  O88      1.0000 0.93870  0.94950  0.34950  Biso   1.000  O
  O89      1.0000 0.83990  0.78920  0.77820  Biso   1.000  O
  O90      1.0000 0.41500  0.37500  0.01300  Biso   1.000  O
  O91      1.0000 0.48100  0.33200  0.96600  Biso   1.000  O
  O92      1.0000 0.93230  0.21660  0.84140  Biso   1.000  O
  O93      1.0000 0.06520  0.27000  0.85350  Biso   1.000  O
  O94      1.0000 0.99400  0.63000  0.05560  Biso   1.000  O
  O95      1.0000 0.11800  0.79800  0.03900  Biso   1.000  O
  O96      1.0000 0.94600  0.41200  0.96000  Biso   1.000  O
  O97      1.0000 0.05200  0.16300  0.93690  Biso   1.000  O
  O98      1.0000 0.19300  0.64200  0.06000  Biso   1.000  O
  O99      1.0000 0.82800  0.40800  0.96800  Biso   1.000  O
  O100     1.0000 0.39800  0.34100  0.85400  Biso   1.000  O
  O101     1.0000 0.34700  0.25800  0.85070  Biso   1.000  O
  C1       1.0000 0.36400  0.31600  0.76110  Biso   1.000  C
  C2       1.0000 0.34300  0.27000  0.73000  Biso   1.000  C
  H1       1.0000 0.33100  0.23210  0.74870  Biso   1.000  H
  N1       1.0000 0.33820  0.27810  0.67260  Biso   1.000  N
  H2       1.0000 0.32430  0.24790  0.65230  Biso   1.000  H
  C3       1.0000 0.35500  0.33200  0.64620  Biso   1.000  C
  H3       1.0000 0.35170  0.33770  0.60560  Biso   1.000  H
  C4       1.0000 0.37600  0.37800  0.67720  Biso   1.000  C
  H4       1.0000 0.38790  0.41640  0.65860  Biso   1.000  H
  C5       1.0000 0.38100  0.37000  0.73470  Biso   1.000  C
  H5       1.0000 0.39570  0.40290  0.75660  Biso   1.000  H
  C6       1.0000 0.37400  0.29500  0.82600  Biso   1.000  C
  K3       1.0000 0.68860  0.95630  0.43760  Biso   1.000  K
  K4       1.0000 0.11330  0.06830  0.55940  Biso   1.000  K
  Na2      1.0000 0.89270  0.85460  0.38170  Biso   1.000  Na
  W31      1.0000 0.06039  0.38198  0.40007  Biso   1.000  W
  W32      1.0000 0.32234  0.05247  0.38686  Biso   1.000  W
  W33      1.0000 0.07439  0.39939  0.10907  Biso   1.000  W
  W34      1.0000 0.30328  0.27830  0.10772  Biso   1.000  W
  W35      1.0000 0.86260  0.93064  0.90730  Biso   1.000  W
  W36      1.0000 0.31915  0.41658  0.33267  Biso   1.000  W
  W37      1.0000 0.28871  0.25629  0.39709  Biso   1.000  W
  W38      1.0000 0.42177  0.88139  0.16229  Biso   1.000  W
  W39      1.0000 0.88293  0.53385  0.33178  Biso   1.000  W
  W40      1.0000 0.89919  0.54917  0.19060  Biso   1.000  W
  W41      1.0000 0.50053  0.20925  0.18115  Biso   1.000  W
  W42      1.0000 0.11483  0.05270  0.38326  Biso   1.000  W
  W43      1.0000 0.81910  0.21760  0.17168  Biso   1.000  W
  W44      1.0000 0.95240  0.25661  0.39217  Biso   1.000  W
  W45      1.0000 0.48740  0.21411  0.32391  Biso   1.000  W
  W46      1.0000 0.08743  0.54126  0.33465  Biso   1.000  W
  W47      1.0000 0.77682  0.40419  0.32255  Biso   1.000  W
  W48      1.0000 0.52534  0.00560  0.31325  Biso   1.000  W
  W49      1.0000 0.34340  0.41584  0.19078  Biso   1.000  W
  W50      1.0000 0.53516  0.00254  0.17128  Biso   1.000  W
  W51      1.0000 0.02998  0.72883  0.89907  Biso   1.000  W
  W52      1.0000 0.81907  0.19683  0.31331  Biso   1.000  W
  W53      1.0000 0.11091  0.54206  0.19252  Biso   1.000  W
  W54      1.0000 0.42471  0.87323  0.30397  Biso   1.000  W
  W55      1.0000 0.98430  0.01141  0.16196  Biso   1.000  W
  W56      1.0000 0.78995  0.42168  0.18103  Biso   1.000  W
  W57      1.0000 0.21607  0.87004  0.30102  Biso   1.000  W
  W58      1.0000 0.21239  0.88069  0.15907  Biso   1.000  W
  W59      1.0000 0.98559  0.99040  0.30305  Biso   1.000  W
  W60      1.0000 0.34300  0.07281  0.09635  Biso   1.000  W
  Eu6      1.0000 0.83940  0.78880  0.82810  Biso   1.000  Eu
  Eu7      1.0000 0.15129  0.20503  0.32136  Biso   1.000  Eu
  Eu8      1.0000 0.60339  0.72279  0.05619  Biso   1.000  Eu
  Eu9      1.0000 0.04420  0.71600  0.07460  Biso   1.000  Eu
  Eu10     1.0000 0.91710  0.29710  0.92710  Biso   1.000  Eu
  P6       1.0000 0.06070  0.40690  0.25410  Biso   1.000  P
  P7       1.0000 0.34720  0.04990  0.24120  Biso   1.000  P
  P8       1.0000 0.12300  0.04760  0.23670  Biso   1.000  P
  P9       1.0000 0.30980  0.27190  0.25180  Biso   1.000  P
  P10      1.0000 0.05490  0.73110  0.75480  Biso   1.000  P
  O102     1.0000 0.10660  0.03190  0.45490  Biso   1.000  O
  O103     1.0000 0.46480  0.82340  0.23150  Biso   1.000  O
  O104     1.0000 0.28320  0.16170  0.39110  Biso   1.000  O
  O105     1.0000 0.27610  0.25980  0.19670  Biso   1.000  O
  O106     1.0000 0.16990  0.30340  0.39690  Biso   1.000  O
  O107     1.0000 0.00200  0.74160  0.80920  Biso   1.000  O
  O108     1.0000 0.28720  0.35190  0.37910  Biso   1.000  O
  O109     1.0000 0.84590  0.59360  0.26440  Biso   1.000  O
  O110     1.0000 0.12800  0.08590  0.29170  Biso   1.000  O
  O111     1.0000 0.95430  0.45380  0.37880  Biso   1.000  O
  O112     1.0000 0.72550  0.44700  0.25200  Biso   1.000  O
  O113     1.0000 0.10220  0.61800  0.14950  Biso   1.000  O
  O114     1.0000 0.41710  0.22480  0.12850  Biso   1.000  O
  O115     1.0000 0.54720  0.21040  0.25350  Biso   1.000  O
  O116     1.0000 0.76540  0.20400  0.24340  Biso   1.000  O
  O117     1.0000 0.26760  0.25070  0.30340  Biso   1.000  O
  O118     1.0000 0.20900  0.49140  0.32740  Biso   1.000  O
  O119     1.0000 0.48140  0.81110  0.11080  Biso   1.000  O
  O120     1.0000 0.44700  0.05720  0.12100  Biso   1.000  O
  O121     1.0000 0.04930  0.71710  0.97030  Biso   1.000  O
  O122     1.0000 0.42910  0.04390  0.36350  Biso   1.000  O
  O123     1.0000 0.37250  0.96730  0.11470  Biso   1.000  O
  O124     1.0000 0.18730  0.32580  0.10240  Biso   1.000  O
  O125     1.0000 0.82780  0.49480  0.19250  Biso   1.000  O
  O126     1.0000 0.11090  0.47270  0.13820  Biso   1.000  O
  O127     1.0000 0.18550  0.95260  0.35440  Biso   1.000  O
  O128     1.0000 0.35620  0.95150  0.35720  Biso   1.000  O
  O129     1.0000 0.29560  0.35610  0.25780  Biso   1.000  O
  O130     1.0000 0.93340  0.82410  0.90590  Biso   1.000  O
  O131     1.0000 0.40560  0.21980  0.25200  Biso   1.000  O
  O132     1.0000 0.86610  0.35020  0.37210  Biso   1.000  O
  O133     1.0000 0.42630  0.32150  0.32700  Biso   1.000  O
  O134     1.0000 0.49850  0.91720  0.30490  Biso   1.000  O
  O135     1.0000 0.13340  0.09150  0.18300  Biso   1.000  O
  O136     1.0000 0.40200  0.20860  0.37350  Biso   1.000  O
  O137     1.0000 0.18930  0.96310  0.23490  Biso   1.000  O
  O138     1.0000 0.10350  0.46180  0.25700  Biso   1.000  O
  O139     1.0000 0.89360  0.10430  0.17180  Biso   1.000  O
  O140     1.0000 0.21080  0.07170  0.38670  Biso   1.000  O
  O141     1.0000 0.89370  0.20550  0.36480  Biso   1.000  O
  O142     1.0000 0.36350  0.96570  0.23680  Biso   1.000  O
  O143     1.0000 0.03760  0.04490  0.23730  Biso   1.000  O
  O144     1.0000 0.09850  0.45590  0.38210  Biso   1.000  O
  O145     1.0000 0.30640  0.09080  0.18740  Biso   1.000  O
  O146     1.0000 0.96710  0.47020  0.13590  Biso   1.000  O
  O147     1.0000 0.43400  0.04670  0.24470  Biso   1.000  O
  O148     1.0000 0.88900  0.09070  0.30130  Biso   1.000  O
  O149     1.0000 0.09710  0.92070  0.16330  Biso   1.000  O
  O150     1.0000 0.58690  0.97450  0.24150  Biso   1.000  O
  O151     1.0000 0.35360  0.45310  0.26550  Biso   1.000  O
  O152     1.0000 0.76990  0.31080  0.31580  Biso   1.000  O
  O153     1.0000 0.09930  0.78380  0.75690  Biso   1.000  O
  O154     1.0000 0.02950  0.29880  0.39400  Biso   1.000  O
  O155     1.0000 0.98820  0.56990  0.19750  Biso   1.000  O
  O156     1.0000 0.87810  0.35100  0.24960  Biso   1.000  O
  O157     1.0000 0.29370  0.08640  0.29610  Biso   1.000  O
  O158     1.0000 0.30400  0.18190  0.09780  Biso   1.000  O
  O159     1.0000 0.77710  0.32320  0.18040  Biso   1.000  O
  O160     1.0000 0.95800  0.94750  0.88590  Biso   1.000  O
  O161     1.0000 0.09440  0.77820  0.88020  Biso   1.000  O
  O162     1.0000 0.33200  0.28960  0.03580  Biso   1.000  O
  O163     1.0000 0.22480  0.82200  0.22840  Biso   1.000  O
  O164     1.0000 0.23100  0.08670  0.09070  Biso   1.000  O
  O165     1.0000 0.99770  0.24790  0.29840  Biso   1.000  O
  O166     1.0000 0.30520  0.36870  0.13730  Biso   1.000  O
  O167     1.0000 0.97680  0.56300  0.33100  Biso   1.000  O
  O168     1.0000 0.32930  0.86580  0.16590  Biso   1.000  O
  O169     1.0000 0.87730  0.36620  0.12760  Biso   1.000  O
  O170     1.0000 0.52290  0.10220  0.31260  Biso   1.000  O
  O171     1.0000 0.96500  0.45940  0.25740  Biso   1.000  O
  O172     1.0000 0.08730  0.36400  0.19770  Biso   1.000  O
  O173     1.0000 0.53300  0.10650  0.18120  Biso   1.000  O
  O174     1.0000 0.09050  0.59280  0.26650  Biso   1.000  O
  O175     1.0000 0.04170  0.32170  0.10020  Biso   1.000  O
  O176     1.0000 0.08170  0.35420  0.30550  Biso   1.000  O
  O177     1.0000 0.04990  0.16170  0.38790  Biso   1.000  O
  O178     1.0000 0.81960  0.48320  0.32410  Biso   1.000  O
  O179     1.0000 0.32210  0.85820  0.29770  Biso   1.000  O
  O180     1.0000 0.44040  0.32400  0.19050  Biso   1.000  O
  O181     1.0000 0.09100  0.90910  0.29870  Biso   1.000  O
  O182     1.0000 0.50580  0.92330  0.16870  Biso   1.000  O
  O183     1.0000 0.60400  0.95880  0.35960  Biso   1.000  O
  O184     1.0000 0.02230  0.03900  0.35850  Biso   1.000  O
  O185     1.0000 0.66410  0.96720  0.54190  Biso   1.000  O
  O186     1.0000 0.22480  0.49520  0.19960  Biso   1.000  O
  O187     1.0000 0.95540  0.96980  0.22980  Biso   1.000  O
  O188     1.0000 0.79820  0.03540  0.88680  Biso   1.000  O
  O189     1.0000 0.06130  0.05050  0.65050  Biso   1.000  O
  O190     1.0000 0.16010  0.21080  0.22180  Biso   1.000  O
  O191     1.0000 0.58500  0.62500  0.98700  Biso   1.000  O
  O192     1.0000 0.51900  0.66800  0.03400  Biso   1.000  O
  O193     1.0000 0.06770  0.78340  0.15860  Biso   1.000  O
  O194     1.0000 0.93480  0.73000  0.14650  Biso   1.000  O
  O195     1.0000 0.00600  0.37000  0.94440  Biso   1.000  O
  O196     1.0000 0.88200  0.20200  0.96100  Biso   1.000  O
  O197     1.0000 0.05400  0.58800  0.04000  Biso   1.000  O
  O198     1.0000 0.94800  0.83700  0.06310  Biso   1.000  O
  O199     1.0000 0.80700  0.35800  0.94000  Biso   1.000  O
  O200     1.0000 0.17200  0.59200  0.03200  Biso   1.000  O
  O201     1.0000 0.60200  0.65900  0.14600  Biso   1.000  O
  O202     1.0000 0.65300  0.74200  0.14930  Biso   1.000  O
  C7       1.0000 0.63600  0.68400  0.23890  Biso   1.000  C
  C8       1.0000 0.65700  0.73000  0.27000  Biso   1.000  C
  H6       1.0000 0.66900  0.76790  0.25130  Biso   1.000  H
  N2       1.0000 0.66180  0.72190  0.32740  Biso   1.000  N
  H7       1.0000 0.67570  0.75210  0.34770  Biso   1.000  H
  C9       1.0000 0.64500  0.66800  0.35380  Biso   1.000  C
  H8       1.0000 0.64830  0.66230  0.39440  Biso   1.000  H
  C10      1.0000 0.62400  0.62200  0.32280  Biso   1.000  C
  H9       1.0000 0.61210  0.58360  0.34140  Biso   1.000  H
  C11      1.0000 0.61900  0.63000  0.26530  Biso   1.000  C
  H10      1.0000 0.60430  0.59710  0.24340  Biso   1.000  H
  C12      1.0000 0.62600  0.70500  0.17400  Biso   1.000  C
