data_image0
_cell_length_a       9.687
_cell_length_b       13.3514
_cell_length_c       13.4083
_cell_angle_alpha    90
_cell_angle_beta     93.07
_cell_angle_gamma    90

_symmetry_space_group_name_H-M    "P 1"
_symmetry_int_tables_number       1

loop_
  _symmetry_equiv_pos_as_xyz
  'x, y, z'

loop_
  _atom_site_label
  _atom_site_occupancy
  _atom_site_fract_x
  _atom_site_fract_y
  _atom_site_fract_z
  _atom_site_thermal_displace_type
  _atom_site_B_iso_or_equiv
  _atom_site_type_symbol
  Zn1      1.0000 0.14037  0.54840  0.25616  Biso   1.000  Zn
  Zn2      1.0000 0.84712  0.54669  0.24391  Biso   1.000  Zn
  O1       1.0000 0.89500  0.89960  0.77010  Biso   1.000  O
  O2       1.0000 0.12290  0.90130  0.80530  Biso   1.000  O
  O3       1.0000 0.09690  0.57360  0.10910  Biso   1.000  O
  O4       1.0000 0.86920  0.59560  0.10430  Biso   1.000  O
  O5       1.0000 0.10450  0.69380  0.28240  Biso   1.000  O
  O6       1.0000 0.87740  0.68900  0.29300  Biso   1.000  O
  O7       1.0000 0.88420  0.02100  0.59760  Biso   1.000  O
  O8       1.0000 0.10830  0.99720  0.61510  Biso   1.000  O
  N1       1.0000 0.63600  0.54760  0.24440  Biso   1.000  N
  N2       1.0000 0.35010  0.55070  0.25420  Biso   1.000  N
  N3       1.0000 0.35650  0.73200  0.23190  Biso   1.000  N
  H1       1.0000 0.27700  0.73740  0.26040  Biso   1.000  H
  H2       1.0000 0.39820  0.78600  0.21080  Biso   1.000  H
  C1       1.0000 0.98400  0.59410  0.06450  Biso   1.000  C
  C2       1.0000 0.98470  0.62250  0.95490  Biso   1.000  C
  C3       1.0000 0.99550  0.99690  0.56480  Biso   1.000  C
  C4       1.0000 0.99550  0.96850  0.45420  Biso   1.000  C
  C5       1.0000 0.99050  0.84230  0.32820  Biso   1.000  C
  C6       1.0000 0.00600  0.79700  0.50830  Biso   1.000  C
  C7       1.0000 0.99270  0.73260  0.29880  Biso   1.000  C
  C8       1.0000 0.04560  0.73340  0.94060  Biso   1.000  C
  C9       1.0000 0.00390  0.74820  0.82840  Biso   1.000  C
  C10      1.0000 0.00740  0.85990  0.79820  Biso   1.000  C
  C11      1.0000 0.89010  0.69420  0.80550  Biso   1.000  C
  H3       1.0000 0.89260  0.66650  0.73710  Biso   1.000  H
  H4       1.0000 0.80610  0.73590  0.80950  Biso   1.000  H
  C12      1.0000 0.89120  0.60230  0.88980  Biso   1.000  C
  H5       1.0000 0.80060  0.59820  0.92030  Biso   1.000  H
  H6       1.0000 0.91000  0.53720  0.85780  Biso   1.000  H
  C13      1.0000 0.18620  0.76100  0.99180  Biso   1.000  C
  H7       1.0000 0.20080  0.83350  0.98670  Biso   1.000  H
  H8       1.0000 0.26000  0.72560  0.95900  Biso   1.000  H
  H9       1.0000 0.18760  0.74160  0.06230  Biso   1.000  H
  C14      1.0000 0.94230  0.80520  0.99610  Biso   1.000  C
  H10      1.0000 0.96700  0.87530  0.98440  Biso   1.000  H
  H11      1.0000 0.94920  0.79130  0.06800  Biso   1.000  H
  H12      1.0000 0.84730  0.79310  0.97000  Biso   1.000  H
  C15      1.0000 0.13300  0.69720  0.77610  Biso   1.000  C
  H13      1.0000 0.11340  0.69480  0.70370  Biso   1.000  H
  H14      1.0000 0.14670  0.62910  0.80190  Biso   1.000  H
  H15      1.0000 0.21640  0.73690  0.79110  Biso   1.000  H
  C16      1.0000 0.12400  0.89230  0.33050  Biso   1.000  C
  H16      1.0000 0.14220  0.91600  0.26250  Biso   1.000  H
  H17      1.0000 0.19730  0.84380  0.35130  Biso   1.000  H
  C17      1.0000 0.13000  0.98310  0.40370  Biso   1.000  C
  H18      1.0000 0.21080  0.97900  0.45200  Biso   1.000  H
  H19      1.0000 0.13180  0.04770  0.36760  Biso   1.000  H
  C18      1.0000 0.94440  0.86000  0.43530  Biso   1.000  C
  C19      1.0000 0.79300  0.83430  0.45480  Biso   1.000  C
  H20      1.0000 0.78040  0.83540  0.52680  Biso   1.000  H
  H21      1.0000 0.77070  0.76750  0.42830  Biso   1.000  H
  H22      1.0000 0.73160  0.88380  0.42160  Biso   1.000  H
  C20      1.0000 0.87800  0.89550  0.25390  Biso   1.000  C
  H23      1.0000 0.78510  0.87610  0.27180  Biso   1.000  H
  H24      1.0000 0.89240  0.87470  0.18520  Biso   1.000  H
  H25      1.0000 0.88820  0.96840  0.25940  Biso   1.000  H
  C21      1.0000 0.55920  0.46240  0.24830  Biso   1.000  C
  C22      1.0000 0.42570  0.46240  0.25180  Biso   1.000  C
  C23      1.0000 0.40860  0.63420  0.25060  Biso   1.000  C
  C24      1.0000 0.56950  0.63320  0.24990  Biso   1.000  C
  C25      1.0000 0.56720  0.46410  0.27870  Biso   1.000  C
  C26      1.0000 0.42430  0.46560  0.28360  Biso   1.000  C
  C27      1.0000 0.41890  0.63420  0.21990  Biso   1.000  C
  C28      1.0000 0.56180  0.63270  0.21500  Biso   1.000  C
  C29      1.0000 0.87770  0.97880  0.39300  Biso   1.000  C
  H26      1.0000 0.87570  0.04650  0.36280  Biso   1.000  H
  H27      1.0000 0.79540  0.97180  0.43310  Biso   1.000  H
  C30      1.0000 0.87200  0.90050  0.31070  Biso   1.000  C
  H28      1.0000 0.78810  0.85900  0.31360  Biso   1.000  H
  H29      1.0000 0.87270  0.93280  0.24420  Biso   1.000  H
  C31      1.0000 0.04580  0.85230  0.44240  Biso   1.000  C
  C32      1.0000 0.19070  0.82330  0.46600  Biso   1.000  C
  H30      1.0000 0.20070  0.75080  0.45780  Biso   1.000  H
  H31      1.0000 0.21700  0.84180  0.53520  Biso   1.000  H
  H32      1.0000 0.25090  0.85810  0.42080  Biso   1.000  H
  C33      1.0000 0.10100  0.02800  0.40040  Biso   1.000  C
  H33      1.0000 0.05550  0.08210  0.36270  Biso   1.000  H
  H34      1.0000 0.14790  0.98340  0.35430  Biso   1.000  H
  H35      1.0000 0.16990  0.05560  0.44910  Biso   1.000  H
  C34      1.0000 0.93640  0.73830  0.93640  Biso   1.000  C
  C35      1.0000 0.09670  0.60670  0.90690  Biso   1.000  C
  H36      1.0000 0.09040  0.54010  0.87450  Biso   1.000  H
  H37      1.0000 0.17740  0.60590  0.95540  Biso   1.000  H
  C36      1.0000 0.11960  0.68460  0.82890  Biso   1.000  C
  H38      1.0000 0.20540  0.72270  0.84560  Biso   1.000  H
  H39      1.0000 0.12710  0.65300  0.76260  Biso   1.000  H
  C37      1.0000 0.79380  0.76900  0.95000  Biso   1.000  C
  H40      1.0000 0.78600  0.84180  0.94230  Biso   1.000  H
  H41      1.0000 0.76760  0.74980  0.01690  Biso   1.000  H
  H42      1.0000 0.73220  0.73600  0.89980  Biso   1.000  H
  C38      1.0000 0.02500  0.80770  0.00470  Biso   1.000  C
  H43      1.0000 0.01470  0.78880  0.07460  Biso   1.000  H
  H44      1.0000 0.99460  0.87710  0.99440  Biso   1.000  H
  H45      1.0000 0.12220  0.80160  0.98890  Biso   1.000  H
  C39      1.0000 0.84800  0.55700  0.89660  Biso   1.000  C
  H46      1.0000 0.87020  0.48550  0.89610  Biso   1.000  H
  H47      1.0000 0.83310  0.58100  0.82780  Biso   1.000  H
  H48      1.0000 0.76440  0.56800  0.93290  Biso   1.000  H
  N4       1.0000 0.61970  0.37010  0.25090  Biso   1.000  N
  H49      1.0000 0.69200  0.36690  0.21400  Biso   1.000  H
  H50      1.0000 0.58020  0.31460  0.27050  Biso   1.000  H
  N5       1.0000 0.36670  0.37280  0.27140  Biso   1.000  N
  H51      1.0000 0.28210  0.36660  0.24480  Biso   1.000  H
  H52      1.0000 0.41420  0.31920  0.29010  Biso   1.000  H
  Zn3      1.0000 0.85963  0.04840  0.74384  Biso   1.000  Zn
  Zn4      1.0000 0.15288  0.04669  0.75609  Biso   1.000  Zn
  O9       1.0000 0.10500  0.39960  0.22990  Biso   1.000  O
  O10      1.0000 0.87710  0.40130  0.19470  Biso   1.000  O
  O11      1.0000 0.90310  0.07360  0.89090  Biso   1.000  O
  O12      1.0000 0.13080  0.09560  0.89570  Biso   1.000  O
  O13      1.0000 0.89550  0.19380  0.71760  Biso   1.000  O
  O14      1.0000 0.12260  0.18900  0.70700  Biso   1.000  O
  O15      1.0000 0.11580  0.52100  0.40240  Biso   1.000  O
  O16      1.0000 0.89170  0.49720  0.38490  Biso   1.000  O
  N6       1.0000 0.36400  0.04760  0.75560  Biso   1.000  N
  N7       1.0000 0.64990  0.05070  0.74580  Biso   1.000  N
  N8       1.0000 0.64350  0.23200  0.76810  Biso   1.000  N
  H53      1.0000 0.72300  0.23740  0.73960  Biso   1.000  H
  H54      1.0000 0.60180  0.28600  0.78920  Biso   1.000  H
  C40      1.0000 0.01600  0.09410  0.93550  Biso   1.000  C
  C41      1.0000 0.01530  0.12250  0.04510  Biso   1.000  C
  C42      1.0000 0.00450  0.49690  0.43520  Biso   1.000  C
  C43      1.0000 0.00450  0.46850  0.54580  Biso   1.000  C
  C44      1.0000 0.00950  0.34230  0.67180  Biso   1.000  C
  C45      1.0000 0.99400  0.29700  0.49170  Biso   1.000  C
  C46      1.0000 0.00730  0.23260  0.70120  Biso   1.000  C
  C47      1.0000 0.95440  0.23340  0.05940  Biso   1.000  C
  C48      1.0000 0.99610  0.24820  0.17160  Biso   1.000  C
  C49      1.0000 0.99260  0.35990  0.20180  Biso   1.000  C
  C50      1.0000 0.10990  0.19420  0.19450  Biso   1.000  C
  H55      1.0000 0.10740  0.16650  0.26290  Biso   1.000  H
  H56      1.0000 0.19390  0.23590  0.19050  Biso   1.000  H
  C51      1.0000 0.10880  0.10230  0.11020  Biso   1.000  C
  H57      1.0000 0.19940  0.09820  0.07970  Biso   1.000  H
  H58      1.0000 0.09000  0.03720  0.14220  Biso   1.000  H
  C52      1.0000 0.81380  0.26100  0.00820  Biso   1.000  C
  H59      1.0000 0.79920  0.33350  0.01330  Biso   1.000  H
  H60      1.0000 0.74000  0.22560  0.04100  Biso   1.000  H
  H61      1.0000 0.81240  0.24160  0.93770  Biso   1.000  H
  C53      1.0000 0.05770  0.30520  0.00390  Biso   1.000  C
  H62      1.0000 0.03300  0.37530  0.01560  Biso   1.000  H
  H63      1.0000 0.05080  0.29130  0.93200  Biso   1.000  H
  H64      1.0000 0.15270  0.29310  0.03000  Biso   1.000  H
  C54      1.0000 0.86700  0.19720  0.22390  Biso   1.000  C
  H65      1.0000 0.88660  0.19480  0.29630  Biso   1.000  H
  H66      1.0000 0.85330  0.12910  0.19810  Biso   1.000  H
  H67      1.0000 0.78360  0.23690  0.20890  Biso   1.000  H
  C55      1.0000 0.87600  0.39230  0.66950  Biso   1.000  C
  H68      1.0000 0.85780  0.41600  0.73750  Biso   1.000  H
  H69      1.0000 0.80270  0.34380  0.64870  Biso   1.000  H
  C56      1.0000 0.87000  0.48310  0.59630  Biso   1.000  C
  H70      1.0000 0.78920  0.47900  0.54800  Biso   1.000  H
  H71      1.0000 0.86820  0.54770  0.63240  Biso   1.000  H
  C57      1.0000 0.05560  0.36000  0.56470  Biso   1.000  C
  C58      1.0000 0.20700  0.33430  0.54520  Biso   1.000  C
  H72      1.0000 0.21960  0.33540  0.47320  Biso   1.000  H
  H73      1.0000 0.22930  0.26750  0.57170  Biso   1.000  H
  H74      1.0000 0.26840  0.38380  0.57840  Biso   1.000  H
  C59      1.0000 0.12200  0.39550  0.74610  Biso   1.000  C
  H75      1.0000 0.21490  0.37610  0.72820  Biso   1.000  H
  H76      1.0000 0.10760  0.37470  0.81480  Biso   1.000  H
  H77      1.0000 0.11180  0.46840  0.74060  Biso   1.000  H
  C60      1.0000 0.44080  0.96240  0.75170  Biso   1.000  C
  C61      1.0000 0.57430  0.96240  0.74820  Biso   1.000  C
  C62      1.0000 0.59140  0.13420  0.74940  Biso   1.000  C
  C63      1.0000 0.43050  0.13320  0.75010  Biso   1.000  C
  C64      1.0000 0.43280  0.96410  0.72130  Biso   1.000  C
  C65      1.0000 0.57570  0.96560  0.71640  Biso   1.000  C
  C66      1.0000 0.58110  0.13420  0.78010  Biso   1.000  C
  C67      1.0000 0.43820  0.13270  0.78500  Biso   1.000  C
  C68      1.0000 0.12230  0.47880  0.60700  Biso   1.000  C
  H78      1.0000 0.12430  0.54650  0.63720  Biso   1.000  H
  H79      1.0000 0.20460  0.47180  0.56690  Biso   1.000  H
  C69      1.0000 0.12800  0.40050  0.68930  Biso   1.000  C
  H80      1.0000 0.21190  0.35900  0.68640  Biso   1.000  H
  H81      1.0000 0.12730  0.43280  0.75580  Biso   1.000  H
  C70      1.0000 0.95420  0.35230  0.55760  Biso   1.000  C
  C71      1.0000 0.80930  0.32330  0.53400  Biso   1.000  C
  H82      1.0000 0.79930  0.25080  0.54220  Biso   1.000  H
  H83      1.0000 0.78300  0.34180  0.46480  Biso   1.000  H
  H84      1.0000 0.74910  0.35810  0.57920  Biso   1.000  H
  C72      1.0000 0.89900  0.52800  0.59960  Biso   1.000  C
  H85      1.0000 0.94450  0.58210  0.63730  Biso   1.000  H
  H86      1.0000 0.85210  0.48340  0.64570  Biso   1.000  H
  H87      1.0000 0.83010  0.55560  0.55090  Biso   1.000  H
  C73      1.0000 0.06360  0.23830  0.06360  Biso   1.000  C
  C74      1.0000 0.90330  0.10670  0.09310  Biso   1.000  C
  H88      1.0000 0.90960  0.04010  0.12550  Biso   1.000  H
  H89      1.0000 0.82260  0.10590  0.04460  Biso   1.000  H
  C75      1.0000 0.88040  0.18460  0.17110  Biso   1.000  C
  H90      1.0000 0.79460  0.22270  0.15440  Biso   1.000  H
  H91      1.0000 0.87290  0.15300  0.23740  Biso   1.000  H
  C76      1.0000 0.20620  0.26900  0.05000  Biso   1.000  C
  H92      1.0000 0.21400  0.34180  0.05770  Biso   1.000  H
  H93      1.0000 0.23240  0.24980  0.98310  Biso   1.000  H
  H94      1.0000 0.26780  0.23600  0.10020  Biso   1.000  H
  C77      1.0000 0.97500  0.30770  0.99530  Biso   1.000  C
  H95      1.0000 0.98530  0.28880  0.92540  Biso   1.000  H
  H96      1.0000 0.00540  0.37710  0.00560  Biso   1.000  H
  H97      1.0000 0.87780  0.30160  0.01110  Biso   1.000  H
  C78      1.0000 0.15200  0.05700  0.10340  Biso   1.000  C
  H98      1.0000 0.12980  0.98550  0.10390  Biso   1.000  H
  H99      1.0000 0.16690  0.08100  0.17220  Biso   1.000  H
  H100     1.0000 0.23560  0.06800  0.06710  Biso   1.000  H
  N9       1.0000 0.38030  0.87010  0.74910  Biso   1.000  N
  H101     1.0000 0.30800  0.86690  0.78600  Biso   1.000  H
  H102     1.0000 0.41980  0.81460  0.72950  Biso   1.000  H
  N10      1.0000 0.63330  0.87280  0.72860  Biso   1.000  N
  H103     1.0000 0.71790  0.86660  0.75520  Biso   1.000  H
  H104     1.0000 0.58580  0.81920  0.70990  Biso   1.000  H
