data_image0
_cell_length_a       27.798
_cell_length_b       16.2
_cell_length_c       19.129
_cell_angle_alpha    90
_cell_angle_beta     98.338
_cell_angle_gamma    90

_symmetry_space_group_name_H-M    "P 1"
_symmetry_int_tables_number       1

loop_
  _symmetry_equiv_pos_as_xyz
  'x, y, z'

loop_
  _atom_site_label
  _atom_site_occupancy
  _atom_site_fract_x
  _atom_site_fract_y
  _atom_site_fract_z
  _atom_site_thermal_displace_type
  _atom_site_B_iso_or_equiv
  _atom_site_type_symbol
  Cu1      1.0000 0.02180  0.38099  0.07243  Biso   1.000  Cu
  O1       1.0000 0.99275  0.27159  0.06301  Biso   1.000  O
  O2       1.0000 0.99200  0.25729  0.17791  Biso   1.000  O
  O3       1.0000 0.57085  0.10556  0.84456  Biso   1.000  O
  O4       1.0000 0.54486  0.07305  0.94669  Biso   1.000  O
  O5       1.0000 0.04752  0.49197  0.09276  Biso   1.000  O
  O6       1.0000 0.01080  0.50054  0.19137  Biso   1.000  O
  O7       1.0000 0.41397  0.83481  0.39006  Biso   1.000  O
  O8       1.0000 0.42444  0.86220  0.27662  Biso   1.000  O
  O9       1.0000 0.05411  0.47469  0.20500  Biso   1.000  O
  O10      1.0000 0.96777  0.28036  0.16529  Biso   1.000  O
  O11      1.0000 0.54689  0.04562  0.83701  Biso   1.000  O
  O12      1.0000 0.43004  0.80173  0.28759  Biso   1.000  O
  N1       1.0000 0.88216  0.03728  0.06301  Biso   1.000  N
  N2       1.0000 0.71287  0.96975  0.96578  Biso   1.000  N
  N3       1.0000 0.09851  0.76595  0.19028  Biso   1.000  N
  N4       1.0000 0.25314  0.76833  0.25876  Biso   1.000  N
  C1       1.0000 0.97527  0.24119  0.11251  Biso   1.000  C
  C2       1.0000 0.94437  0.16559  0.09637  Biso   1.000  C
  C3       1.0000 0.91624  0.13627  0.14512  Biso   1.000  C
  H1       1.0000 0.91850  0.16000  0.18970  Biso   1.000  H
  C4       1.0000 0.88503  0.07178  0.12668  Biso   1.000  C
  H2       1.0000 0.86570  0.05200  0.15880  Biso   1.000  H
  C5       1.0000 0.91047  0.06268  0.01581  Biso   1.000  C
  H3       1.0000 0.90870  0.03630  0.97230  Biso   1.000  H
  C6       1.0000 0.94189  0.12726  0.03170  Biso   1.000  C
  H4       1.0000 0.96140  0.14510  0.99910  Biso   1.000  H
  C7       1.0000 0.84620  0.97110  0.04347  Biso   1.000  C
  H5       1.0000 0.84190  0.93940  0.08510  Biso   1.000  H
  H6       1.0000 0.85800  0.93410  0.00990  Biso   1.000  H
  C8       1.0000 0.79774  0.00813  0.01094  Biso   1.000  C
  H7       1.0000 0.78480  0.04280  0.04520  Biso   1.000  H
  H8       1.0000 0.80200  0.04180  0.97030  Biso   1.000  H
  C9       1.0000 0.76283  0.93744  0.98844  Biso   1.000  C
  H9       1.0000 0.77370  0.90750  0.94970  Biso   1.000  H
  H10      1.0000 0.76250  0.89950  0.02760  Biso   1.000  H
  C10      1.0000 0.68222  0.97585  0.01306  Biso   1.000  C
  H11      1.0000 0.69240  0.95980  0.05950  Biso   1.000  H
  C11      1.0000 0.63593  0.00548  0.99414  Biso   1.000  C
  H12      1.0000 0.61480  0.00970  0.02750  Biso   1.000  H
  C12      1.0000 0.62108  0.02903  0.92468  Biso   1.000  C
  C13      1.0000 0.65326  0.02158  0.87595  Biso   1.000  C
  H13      1.0000 0.64380  0.03660  0.82900  Biso   1.000  H
  C14      1.0000 0.69902  0.99190  0.89785  Biso   1.000  C
  H14      1.0000 0.72080  0.98690  0.86550  Biso   1.000  H
  C15      1.0000 0.57061  0.06240  0.90211  Biso   1.000  C
  C16      1.0000 0.04593  0.52296  0.15042  Biso   1.000  C
  C17      1.0000 0.06240  0.61060  0.16310  Biso   1.000  C
  C18      1.0000 0.07724  0.65763  0.10945  Biso   1.000  C
  H15      1.0000 0.07490  0.63670  0.06380  Biso   1.000  H
  C19      1.0000 0.09532  0.73518  0.12451  Biso   1.000  C
  H16      1.0000 0.10550  0.76690  0.08890  Biso   1.000  H
  C20      1.0000 0.08174  0.72326  0.24224  Biso   1.000  C
  H17      1.0000 0.08230  0.74680  0.28670  Biso   1.000  H
  C21      1.0000 0.06385  0.64502  0.22939  Biso   1.000  C
  H18      1.0000 0.05270  0.61510  0.26530  Biso   1.000  H
  C22      1.0000 0.12411  0.84594  0.20774  Biso   1.000  C
  H19      1.0000 0.11970  0.86290  0.25500  Biso   1.000  H
  H20      1.0000 0.11010  0.88810  0.17490  Biso   1.000  H
  C23      1.0000 0.17815  0.83774  0.20362  Biso   1.000  C
  H21      1.0000 0.18300  0.84100  0.15450  Biso   1.000  H
  H22      1.0000 0.19520  0.88380  0.22840  Biso   1.000  H
  C24      1.0000 0.20015  0.75777  0.23495  Biso   1.000  C
  H23      1.0000 0.18420  0.74170  0.27470  Biso   1.000  H
  H24      1.0000 0.19500  0.71430  0.19980  Biso   1.000  H
  C25      1.0000 0.28377  0.77504  0.21012  Biso   1.000  C
  H25      1.0000 0.27200  0.76940  0.16230  Biso   1.000  H
  C26      1.0000 0.33207  0.79016  0.23156  Biso   1.000  C
  H26      1.0000 0.35320  0.79480  0.19830  Biso   1.000  H
  C27      1.0000 0.34934  0.79847  0.30265  Biso   1.000  C
  C28      1.0000 0.31797  0.78808  0.35177  Biso   1.000  C
  H27      1.0000 0.32940  0.79100  0.39990  Biso   1.000  H
  C29      1.0000 0.26938  0.77321  0.32830  Biso   1.000  C
  H28      1.0000 0.24780  0.76650  0.36080  Biso   1.000  H
  C30      1.0000 0.40151  0.82319  0.32695  Biso   1.000  C
  Cu2      1.0000 0.52180  0.88099  0.07243  Biso   1.000  Cu
  O13      1.0000 0.49275  0.77159  0.06301  Biso   1.000  O
  O14      1.0000 0.49200  0.75729  0.17791  Biso   1.000  O
  O15      1.0000 0.07085  0.60556  0.84456  Biso   1.000  O
  O16      1.0000 0.04486  0.57305  0.94669  Biso   1.000  O
  O17      1.0000 0.54752  0.99197  0.09276  Biso   1.000  O
  O18      1.0000 0.51080  0.00054  0.19137  Biso   1.000  O
  O19      1.0000 0.91397  0.33481  0.39006  Biso   1.000  O
  O20      1.0000 0.92444  0.36220  0.27662  Biso   1.000  O
  O21      1.0000 0.55411  0.97469  0.20500  Biso   1.000  O
  O22      1.0000 0.46777  0.78036  0.16529  Biso   1.000  O
  O23      1.0000 0.04689  0.54562  0.83701  Biso   1.000  O
  O24      1.0000 0.93004  0.30173  0.28759  Biso   1.000  O
  N5       1.0000 0.38216  0.53728  0.06301  Biso   1.000  N
  N6       1.0000 0.21287  0.46975  0.96578  Biso   1.000  N
  N7       1.0000 0.59851  0.26595  0.19028  Biso   1.000  N
  N8       1.0000 0.75314  0.26833  0.25876  Biso   1.000  N
  C31      1.0000 0.47527  0.74119  0.11251  Biso   1.000  C
  C32      1.0000 0.44437  0.66559  0.09637  Biso   1.000  C
  C33      1.0000 0.41624  0.63627  0.14512  Biso   1.000  C
  H29      1.0000 0.41850  0.66000  0.18970  Biso   1.000  H
  C34      1.0000 0.38503  0.57178  0.12668  Biso   1.000  C
  H30      1.0000 0.36570  0.55200  0.15880  Biso   1.000  H
  C35      1.0000 0.41047  0.56268  0.01581  Biso   1.000  C
  H31      1.0000 0.40870  0.53630  0.97230  Biso   1.000  H
  C36      1.0000 0.44189  0.62726  0.03170  Biso   1.000  C
  H32      1.0000 0.46140  0.64510  0.99910  Biso   1.000  H
  C37      1.0000 0.34620  0.47110  0.04347  Biso   1.000  C
  H33      1.0000 0.34190  0.43940  0.08510  Biso   1.000  H
  H34      1.0000 0.35800  0.43410  0.00990  Biso   1.000  H
  C38      1.0000 0.29774  0.50813  0.01094  Biso   1.000  C
  H35      1.0000 0.28480  0.54280  0.04520  Biso   1.000  H
  H36      1.0000 0.30200  0.54180  0.97030  Biso   1.000  H
  C39      1.0000 0.26283  0.43744  0.98844  Biso   1.000  C
  H37      1.0000 0.27370  0.40750  0.94970  Biso   1.000  H
  H38      1.0000 0.26250  0.39950  0.02760  Biso   1.000  H
  C40      1.0000 0.18222  0.47585  0.01306  Biso   1.000  C
  H39      1.0000 0.19240  0.45980  0.05950  Biso   1.000  H
  C41      1.0000 0.13593  0.50548  0.99414  Biso   1.000  C
  H40      1.0000 0.11480  0.50970  0.02750  Biso   1.000  H
  C42      1.0000 0.12108  0.52903  0.92468  Biso   1.000  C
  C43      1.0000 0.15326  0.52158  0.87595  Biso   1.000  C
  H41      1.0000 0.14380  0.53660  0.82900  Biso   1.000  H
  C44      1.0000 0.19902  0.49190  0.89785  Biso   1.000  C
  H42      1.0000 0.22080  0.48690  0.86550  Biso   1.000  H
  C45      1.0000 0.07061  0.56240  0.90211  Biso   1.000  C
  C46      1.0000 0.54593  0.02296  0.15042  Biso   1.000  C
  C47      1.0000 0.56240  0.11060  0.16310  Biso   1.000  C
  C48      1.0000 0.57724  0.15763  0.10945  Biso   1.000  C
  H43      1.0000 0.57490  0.13670  0.06380  Biso   1.000  H
  C49      1.0000 0.59532  0.23518  0.12451  Biso   1.000  C
  H44      1.0000 0.60550  0.26690  0.08890  Biso   1.000  H
  C50      1.0000 0.58174  0.22326  0.24224  Biso   1.000  C
  H45      1.0000 0.58230  0.24680  0.28670  Biso   1.000  H
  C51      1.0000 0.56385  0.14502  0.22939  Biso   1.000  C
  H46      1.0000 0.55270  0.11510  0.26530  Biso   1.000  H
  C52      1.0000 0.62411  0.34594  0.20774  Biso   1.000  C
  H47      1.0000 0.61970  0.36290  0.25500  Biso   1.000  H
  H48      1.0000 0.61010  0.38810  0.17490  Biso   1.000  H
  C53      1.0000 0.67815  0.33774  0.20362  Biso   1.000  C
  H49      1.0000 0.68300  0.34100  0.15450  Biso   1.000  H
  H50      1.0000 0.69520  0.38380  0.22840  Biso   1.000  H
  C54      1.0000 0.70015  0.25777  0.23495  Biso   1.000  C
  H51      1.0000 0.68420  0.24170  0.27470  Biso   1.000  H
  H52      1.0000 0.69500  0.21430  0.19980  Biso   1.000  H
  C55      1.0000 0.78377  0.27504  0.21012  Biso   1.000  C
  H53      1.0000 0.77200  0.26940  0.16230  Biso   1.000  H
  C56      1.0000 0.83207  0.29016  0.23156  Biso   1.000  C
  H54      1.0000 0.85320  0.29480  0.19830  Biso   1.000  H
  C57      1.0000 0.84934  0.29847  0.30265  Biso   1.000  C
  C58      1.0000 0.81797  0.28808  0.35177  Biso   1.000  C
  H55      1.0000 0.82940  0.29100  0.39990  Biso   1.000  H
  C59      1.0000 0.76938  0.27321  0.32830  Biso   1.000  C
  H56      1.0000 0.74780  0.26650  0.36080  Biso   1.000  H
  C60      1.0000 0.90151  0.32319  0.32695  Biso   1.000  C
  Cu3      1.0000 0.97820  0.38099  0.42757  Biso   1.000  Cu
  O25      1.0000 0.00725  0.27159  0.43699  Biso   1.000  O
  O26      1.0000 0.00800  0.25729  0.32209  Biso   1.000  O
  O27      1.0000 0.42915  0.10556  0.65544  Biso   1.000  O
  O28      1.0000 0.45514  0.07305  0.55331  Biso   1.000  O
  O29      1.0000 0.95248  0.49197  0.40724  Biso   1.000  O
  O30      1.0000 0.98920  0.50054  0.30863  Biso   1.000  O
  O31      1.0000 0.58603  0.83481  0.10994  Biso   1.000  O
  O32      1.0000 0.57556  0.86220  0.22338  Biso   1.000  O
  O33      1.0000 0.94589  0.47469  0.29500  Biso   1.000  O
  O34      1.0000 0.03223  0.28036  0.33471  Biso   1.000  O
  O35      1.0000 0.45311  0.04562  0.66299  Biso   1.000  O
  O36      1.0000 0.56996  0.80173  0.21241  Biso   1.000  O
  N9       1.0000 0.11784  0.03728  0.43699  Biso   1.000  N
  N10      1.0000 0.28713  0.96975  0.53422  Biso   1.000  N
  N11      1.0000 0.90149  0.76595  0.30972  Biso   1.000  N
  N12      1.0000 0.74686  0.76833  0.24124  Biso   1.000  N
  C61      1.0000 0.02473  0.24119  0.38749  Biso   1.000  C
  C62      1.0000 0.05563  0.16559  0.40363  Biso   1.000  C
  C63      1.0000 0.08376  0.13627  0.35488  Biso   1.000  C
  H57      1.0000 0.08150  0.16000  0.31030  Biso   1.000  H
  C64      1.0000 0.11497  0.07178  0.37332  Biso   1.000  C
  H58      1.0000 0.13430  0.05200  0.34120  Biso   1.000  H
  C65      1.0000 0.08953  0.06268  0.48419  Biso   1.000  C
  H59      1.0000 0.09130  0.03630  0.52770  Biso   1.000  H
  C66      1.0000 0.05811  0.12726  0.46830  Biso   1.000  C
  H60      1.0000 0.03860  0.14510  0.50090  Biso   1.000  H
  C67      1.0000 0.15380  0.97110  0.45653  Biso   1.000  C
  H61      1.0000 0.15810  0.93940  0.41490  Biso   1.000  H
  H62      1.0000 0.14200  0.93410  0.49010  Biso   1.000  H
  C68      1.0000 0.20226  0.00813  0.48906  Biso   1.000  C
  H63      1.0000 0.21520  0.04280  0.45480  Biso   1.000  H
  H64      1.0000 0.19800  0.04180  0.52970  Biso   1.000  H
  C69      1.0000 0.23717  0.93744  0.51156  Biso   1.000  C
  H65      1.0000 0.22630  0.90750  0.55030  Biso   1.000  H
  H66      1.0000 0.23750  0.89950  0.47240  Biso   1.000  H
  C70      1.0000 0.31778  0.97585  0.48694  Biso   1.000  C
  H67      1.0000 0.30760  0.95980  0.44050  Biso   1.000  H
  C71      1.0000 0.36407  0.00548  0.50586  Biso   1.000  C
  H68      1.0000 0.38520  0.00970  0.47250  Biso   1.000  H
  C72      1.0000 0.37892  0.02903  0.57532  Biso   1.000  C
  C73      1.0000 0.34674  0.02158  0.62405  Biso   1.000  C
  H69      1.0000 0.35620  0.03660  0.67100  Biso   1.000  H
  C74      1.0000 0.30098  0.99190  0.60215  Biso   1.000  C
  H70      1.0000 0.27920  0.98690  0.63450  Biso   1.000  H
  C75      1.0000 0.42939  0.06240  0.59789  Biso   1.000  C
  C76      1.0000 0.95407  0.52296  0.34958  Biso   1.000  C
  C77      1.0000 0.93760  0.61060  0.33690  Biso   1.000  C
  C78      1.0000 0.92276  0.65763  0.39055  Biso   1.000  C
  H71      1.0000 0.92510  0.63670  0.43620  Biso   1.000  H
  C79      1.0000 0.90468  0.73518  0.37549  Biso   1.000  C
  H72      1.0000 0.89450  0.76690  0.41110  Biso   1.000  H
  C80      1.0000 0.91826  0.72326  0.25776  Biso   1.000  C
  H73      1.0000 0.91770  0.74680  0.21330  Biso   1.000  H
  C81      1.0000 0.93615  0.64502  0.27061  Biso   1.000  C
  H74      1.0000 0.94730  0.61510  0.23470  Biso   1.000  H
  C82      1.0000 0.87589  0.84594  0.29226  Biso   1.000  C
  H75      1.0000 0.88030  0.86290  0.24500  Biso   1.000  H
  H76      1.0000 0.88990  0.88810  0.32510  Biso   1.000  H
  C83      1.0000 0.82185  0.83774  0.29638  Biso   1.000  C
  H77      1.0000 0.81700  0.84100  0.34550  Biso   1.000  H
  H78      1.0000 0.80480  0.88380  0.27160  Biso   1.000  H
  C84      1.0000 0.79985  0.75777  0.26505  Biso   1.000  C
  H79      1.0000 0.81580  0.74170  0.22530  Biso   1.000  H
  H80      1.0000 0.80500  0.71430  0.30020  Biso   1.000  H
  C85      1.0000 0.71623  0.77504  0.28988  Biso   1.000  C
  H81      1.0000 0.72800  0.76940  0.33770  Biso   1.000  H
  C86      1.0000 0.66793  0.79016  0.26844  Biso   1.000  C
  H82      1.0000 0.64680  0.79480  0.30170  Biso   1.000  H
  C87      1.0000 0.65066  0.79847  0.19735  Biso   1.000  C
  C88      1.0000 0.68203  0.78808  0.14823  Biso   1.000  C
  H83      1.0000 0.67060  0.79100  0.10010  Biso   1.000  H
  C89      1.0000 0.73062  0.77321  0.17170  Biso   1.000  C
  H84      1.0000 0.75220  0.76650  0.13920  Biso   1.000  H
  C90      1.0000 0.59849  0.82319  0.17305  Biso   1.000  C
  Cu4      1.0000 0.47820  0.88099  0.42757  Biso   1.000  Cu
  O37      1.0000 0.50725  0.77159  0.43699  Biso   1.000  O
  O38      1.0000 0.50800  0.75729  0.32209  Biso   1.000  O
  O39      1.0000 0.92915  0.60556  0.65544  Biso   1.000  O
  O40      1.0000 0.95514  0.57305  0.55331  Biso   1.000  O
  O41      1.0000 0.45248  0.99197  0.40724  Biso   1.000  O
  O42      1.0000 0.48920  0.00054  0.30863  Biso   1.000  O
  O43      1.0000 0.08603  0.33481  0.10994  Biso   1.000  O
  O44      1.0000 0.07556  0.36220  0.22338  Biso   1.000  O
  O45      1.0000 0.44589  0.97469  0.29500  Biso   1.000  O
  O46      1.0000 0.53223  0.78036  0.33471  Biso   1.000  O
  O47      1.0000 0.95311  0.54562  0.66299  Biso   1.000  O
  O48      1.0000 0.06996  0.30173  0.21241  Biso   1.000  O
  N13      1.0000 0.61784  0.53728  0.43699  Biso   1.000  N
  N14      1.0000 0.78713  0.46975  0.53422  Biso   1.000  N
  N15      1.0000 0.40149  0.26595  0.30972  Biso   1.000  N
  N16      1.0000 0.24686  0.26833  0.24124  Biso   1.000  N
  C91      1.0000 0.52473  0.74119  0.38749  Biso   1.000  C
  C92      1.0000 0.55563  0.66559  0.40363  Biso   1.000  C
  C93      1.0000 0.58376  0.63627  0.35488  Biso   1.000  C
  H85      1.0000 0.58150  0.66000  0.31030  Biso   1.000  H
  C94      1.0000 0.61497  0.57178  0.37332  Biso   1.000  C
  H86      1.0000 0.63430  0.55200  0.34120  Biso   1.000  H
  C95      1.0000 0.58953  0.56268  0.48419  Biso   1.000  C
  H87      1.0000 0.59130  0.53630  0.52770  Biso   1.000  H
  C96      1.0000 0.55811  0.62726  0.46830  Biso   1.000  C
  H88      1.0000 0.53860  0.64510  0.50090  Biso   1.000  H
  C97      1.0000 0.65380  0.47110  0.45653  Biso   1.000  C
  H89      1.0000 0.65810  0.43940  0.41490  Biso   1.000  H
  H90      1.0000 0.64200  0.43410  0.49010  Biso   1.000  H
  C98      1.0000 0.70226  0.50813  0.48906  Biso   1.000  C
  H91      1.0000 0.71520  0.54280  0.45480  Biso   1.000  H
  H92      1.0000 0.69800  0.54180  0.52970  Biso   1.000  H
  C99      1.0000 0.73717  0.43744  0.51156  Biso   1.000  C
  H93      1.0000 0.72630  0.40750  0.55030  Biso   1.000  H
  H94      1.0000 0.73750  0.39950  0.47240  Biso   1.000  H
  C100     1.0000 0.81778  0.47585  0.48694  Biso   1.000  C
  H95      1.0000 0.80760  0.45980  0.44050  Biso   1.000  H
  C101     1.0000 0.86407  0.50548  0.50586  Biso   1.000  C
  H96      1.0000 0.88520  0.50970  0.47250  Biso   1.000  H
  C102     1.0000 0.87892  0.52903  0.57532  Biso   1.000  C
  C103     1.0000 0.84674  0.52158  0.62405  Biso   1.000  C
  H97      1.0000 0.85620  0.53660  0.67100  Biso   1.000  H
  C104     1.0000 0.80098  0.49190  0.60215  Biso   1.000  C
  H98      1.0000 0.77920  0.48690  0.63450  Biso   1.000  H
  C105     1.0000 0.92939  0.56240  0.59789  Biso   1.000  C
  C106     1.0000 0.45407  0.02296  0.34958  Biso   1.000  C
  C107     1.0000 0.43760  0.11060  0.33690  Biso   1.000  C
  C108     1.0000 0.42276  0.15763  0.39055  Biso   1.000  C
  H99      1.0000 0.42510  0.13670  0.43620  Biso   1.000  H
  C109     1.0000 0.40468  0.23518  0.37549  Biso   1.000  C
  H100     1.0000 0.39450  0.26690  0.41110  Biso   1.000  H
  C110     1.0000 0.41826  0.22326  0.25776  Biso   1.000  C
  H101     1.0000 0.41770  0.24680  0.21330  Biso   1.000  H
  C111     1.0000 0.43615  0.14502  0.27061  Biso   1.000  C
  H102     1.0000 0.44730  0.11510  0.23470  Biso   1.000  H
  C112     1.0000 0.37589  0.34594  0.29226  Biso   1.000  C
  H103     1.0000 0.38030  0.36290  0.24500  Biso   1.000  H
  H104     1.0000 0.38990  0.38810  0.32510  Biso   1.000  H
  C113     1.0000 0.32185  0.33774  0.29638  Biso   1.000  C
  H105     1.0000 0.31700  0.34100  0.34550  Biso   1.000  H
  H106     1.0000 0.30480  0.38380  0.27160  Biso   1.000  H
  C114     1.0000 0.29985  0.25777  0.26505  Biso   1.000  C
  H107     1.0000 0.31580  0.24170  0.22530  Biso   1.000  H
  H108     1.0000 0.30500  0.21430  0.30020  Biso   1.000  H
  C115     1.0000 0.21623  0.27504  0.28988  Biso   1.000  C
  H109     1.0000 0.22800  0.26940  0.33770  Biso   1.000  H
  C116     1.0000 0.16793  0.29016  0.26844  Biso   1.000  C
  H110     1.0000 0.14680  0.29480  0.30170  Biso   1.000  H
  C117     1.0000 0.15066  0.29847  0.19735  Biso   1.000  C
  C118     1.0000 0.18203  0.28808  0.14823  Biso   1.000  C
  H111     1.0000 0.17060  0.29100  0.10010  Biso   1.000  H
  C119     1.0000 0.23062  0.27321  0.17170  Biso   1.000  C
  H112     1.0000 0.25220  0.26650  0.13920  Biso   1.000  H
  C120     1.0000 0.09849  0.32319  0.17305  Biso   1.000  C
  Cu5      1.0000 0.97820  0.61901  0.92757  Biso   1.000  Cu
  O49      1.0000 0.00725  0.72841  0.93699  Biso   1.000  O
  O50      1.0000 0.00800  0.74271  0.82209  Biso   1.000  O
  O51      1.0000 0.42915  0.89444  0.15544  Biso   1.000  O
  O52      1.0000 0.45514  0.92695  0.05331  Biso   1.000  O
  O53      1.0000 0.95248  0.50803  0.90724  Biso   1.000  O
  O54      1.0000 0.98920  0.49946  0.80863  Biso   1.000  O
  O55      1.0000 0.58603  0.16519  0.60994  Biso   1.000  O
  O56      1.0000 0.57556  0.13780  0.72338  Biso   1.000  O
  O57      1.0000 0.94589  0.52531  0.79500  Biso   1.000  O
  O58      1.0000 0.03223  0.71964  0.83471  Biso   1.000  O
  O59      1.0000 0.45311  0.95438  0.16299  Biso   1.000  O
  O60      1.0000 0.56996  0.19827  0.71241  Biso   1.000  O
  N17      1.0000 0.11784  0.96272  0.93699  Biso   1.000  N
  N18      1.0000 0.28713  0.03025  0.03422  Biso   1.000  N
  N19      1.0000 0.90149  0.23405  0.80972  Biso   1.000  N
  N20      1.0000 0.74686  0.23167  0.74124  Biso   1.000  N
  C121     1.0000 0.02473  0.75881  0.88749  Biso   1.000  C
  C122     1.0000 0.05563  0.83441  0.90363  Biso   1.000  C
  C123     1.0000 0.08376  0.86373  0.85488  Biso   1.000  C
  H113     1.0000 0.08150  0.84000  0.81030  Biso   1.000  H
  C124     1.0000 0.11497  0.92822  0.87332  Biso   1.000  C
  H114     1.0000 0.13430  0.94800  0.84120  Biso   1.000  H
  C125     1.0000 0.08953  0.93732  0.98419  Biso   1.000  C
  H115     1.0000 0.09130  0.96370  0.02770  Biso   1.000  H
  C126     1.0000 0.05811  0.87274  0.96830  Biso   1.000  C
  H116     1.0000 0.03860  0.85490  0.00090  Biso   1.000  H
  C127     1.0000 0.15380  0.02890  0.95653  Biso   1.000  C
  H117     1.0000 0.15810  0.06060  0.91490  Biso   1.000  H
  H118     1.0000 0.14200  0.06590  0.99010  Biso   1.000  H
  C128     1.0000 0.20226  0.99187  0.98906  Biso   1.000  C
  H119     1.0000 0.21520  0.95720  0.95480  Biso   1.000  H
  H120     1.0000 0.19800  0.95820  0.02970  Biso   1.000  H
  C129     1.0000 0.23717  0.06256  0.01156  Biso   1.000  C
  H121     1.0000 0.22630  0.09250  0.05030  Biso   1.000  H
  H122     1.0000 0.23750  0.10050  0.97240  Biso   1.000  H
  C130     1.0000 0.31778  0.02415  0.98694  Biso   1.000  C
  H123     1.0000 0.30760  0.04020  0.94050  Biso   1.000  H
  C131     1.0000 0.36407  0.99452  0.00586  Biso   1.000  C
  H124     1.0000 0.38520  0.99030  0.97250  Biso   1.000  H
  C132     1.0000 0.37892  0.97097  0.07532  Biso   1.000  C
  C133     1.0000 0.34674  0.97842  0.12405  Biso   1.000  C
  H125     1.0000 0.35620  0.96340  0.17100  Biso   1.000  H
  C134     1.0000 0.30098  0.00810  0.10215  Biso   1.000  C
  H126     1.0000 0.27920  0.01310  0.13450  Biso   1.000  H
  C135     1.0000 0.42939  0.93760  0.09789  Biso   1.000  C
  C136     1.0000 0.95407  0.47704  0.84958  Biso   1.000  C
  C137     1.0000 0.93760  0.38940  0.83690  Biso   1.000  C
  C138     1.0000 0.92276  0.34237  0.89055  Biso   1.000  C
  H127     1.0000 0.92510  0.36330  0.93620  Biso   1.000  H
  C139     1.0000 0.90468  0.26482  0.87549  Biso   1.000  C
  H128     1.0000 0.89450  0.23310  0.91110  Biso   1.000  H
  C140     1.0000 0.91826  0.27674  0.75776  Biso   1.000  C
  H129     1.0000 0.91770  0.25320  0.71330  Biso   1.000  H
  C141     1.0000 0.93615  0.35498  0.77061  Biso   1.000  C
  H130     1.0000 0.94730  0.38490  0.73470  Biso   1.000  H
  C142     1.0000 0.87589  0.15406  0.79226  Biso   1.000  C
  H131     1.0000 0.88030  0.13710  0.74500  Biso   1.000  H
  H132     1.0000 0.88990  0.11190  0.82510  Biso   1.000  H
  C143     1.0000 0.82185  0.16226  0.79638  Biso   1.000  C
  H133     1.0000 0.81700  0.15900  0.84550  Biso   1.000  H
  H134     1.0000 0.80480  0.11620  0.77160  Biso   1.000  H
  C144     1.0000 0.79985  0.24223  0.76505  Biso   1.000  C
  H135     1.0000 0.81580  0.25830  0.72530  Biso   1.000  H
  H136     1.0000 0.80500  0.28570  0.80020  Biso   1.000  H
  C145     1.0000 0.71623  0.22496  0.78988  Biso   1.000  C
  H137     1.0000 0.72800  0.23060  0.83770  Biso   1.000  H
  C146     1.0000 0.66793  0.20984  0.76844  Biso   1.000  C
  H138     1.0000 0.64680  0.20520  0.80170  Biso   1.000  H
  C147     1.0000 0.65066  0.20153  0.69735  Biso   1.000  C
  C148     1.0000 0.68203  0.21192  0.64823  Biso   1.000  C
  H139     1.0000 0.67060  0.20900  0.60010  Biso   1.000  H
  C149     1.0000 0.73062  0.22679  0.67170  Biso   1.000  C
  H140     1.0000 0.75220  0.23350  0.63920  Biso   1.000  H
  C150     1.0000 0.59849  0.17681  0.67305  Biso   1.000  C
  Cu6      1.0000 0.47820  0.11901  0.92757  Biso   1.000  Cu
  O61      1.0000 0.50725  0.22841  0.93699  Biso   1.000  O
  O62      1.0000 0.50800  0.24271  0.82209  Biso   1.000  O
  O63      1.0000 0.92915  0.39444  0.15544  Biso   1.000  O
  O64      1.0000 0.95514  0.42695  0.05331  Biso   1.000  O
  O65      1.0000 0.45248  0.00803  0.90724  Biso   1.000  O
  O66      1.0000 0.48920  0.99946  0.80863  Biso   1.000  O
  O67      1.0000 0.08603  0.66519  0.60994  Biso   1.000  O
  O68      1.0000 0.07556  0.63780  0.72338  Biso   1.000  O
  O69      1.0000 0.44589  0.02531  0.79500  Biso   1.000  O
  O70      1.0000 0.53223  0.21964  0.83471  Biso   1.000  O
  O71      1.0000 0.95311  0.45438  0.16299  Biso   1.000  O
  O72      1.0000 0.06996  0.69827  0.71241  Biso   1.000  O
  N21      1.0000 0.61784  0.46272  0.93699  Biso   1.000  N
  N22      1.0000 0.78713  0.53025  0.03422  Biso   1.000  N
  N23      1.0000 0.40149  0.73405  0.80972  Biso   1.000  N
  N24      1.0000 0.24686  0.73167  0.74124  Biso   1.000  N
  C151     1.0000 0.52473  0.25881  0.88749  Biso   1.000  C
  C152     1.0000 0.55563  0.33441  0.90363  Biso   1.000  C
  C153     1.0000 0.58376  0.36373  0.85488  Biso   1.000  C
  H141     1.0000 0.58150  0.34000  0.81030  Biso   1.000  H
  C154     1.0000 0.61497  0.42822  0.87332  Biso   1.000  C
  H142     1.0000 0.63430  0.44800  0.84120  Biso   1.000  H
  C155     1.0000 0.58953  0.43732  0.98419  Biso   1.000  C
  H143     1.0000 0.59130  0.46370  0.02770  Biso   1.000  H
  C156     1.0000 0.55811  0.37274  0.96830  Biso   1.000  C
  H144     1.0000 0.53860  0.35490  0.00090  Biso   1.000  H
  C157     1.0000 0.65380  0.52890  0.95653  Biso   1.000  C
  H145     1.0000 0.65810  0.56060  0.91490  Biso   1.000  H
  H146     1.0000 0.64200  0.56590  0.99010  Biso   1.000  H
  C158     1.0000 0.70226  0.49187  0.98906  Biso   1.000  C
  H147     1.0000 0.71520  0.45720  0.95480  Biso   1.000  H
  H148     1.0000 0.69800  0.45820  0.02970  Biso   1.000  H
  C159     1.0000 0.73717  0.56256  0.01156  Biso   1.000  C
  H149     1.0000 0.72630  0.59250  0.05030  Biso   1.000  H
  H150     1.0000 0.73750  0.60050  0.97240  Biso   1.000  H
  C160     1.0000 0.81778  0.52415  0.98694  Biso   1.000  C
  H151     1.0000 0.80760  0.54020  0.94050  Biso   1.000  H
  C161     1.0000 0.86407  0.49452  0.00586  Biso   1.000  C
  H152     1.0000 0.88520  0.49030  0.97250  Biso   1.000  H
  C162     1.0000 0.87892  0.47097  0.07532  Biso   1.000  C
  C163     1.0000 0.84674  0.47842  0.12405  Biso   1.000  C
  H153     1.0000 0.85620  0.46340  0.17100  Biso   1.000  H
  C164     1.0000 0.80098  0.50810  0.10215  Biso   1.000  C
  H154     1.0000 0.77920  0.51310  0.13450  Biso   1.000  H
  C165     1.0000 0.92939  0.43760  0.09789  Biso   1.000  C
  C166     1.0000 0.45407  0.97704  0.84958  Biso   1.000  C
  C167     1.0000 0.43760  0.88940  0.83690  Biso   1.000  C
  C168     1.0000 0.42276  0.84237  0.89055  Biso   1.000  C
  H155     1.0000 0.42510  0.86330  0.93620  Biso   1.000  H
  C169     1.0000 0.40468  0.76482  0.87549  Biso   1.000  C
  H156     1.0000 0.39450  0.73310  0.91110  Biso   1.000  H
  C170     1.0000 0.41826  0.77674  0.75776  Biso   1.000  C
  H157     1.0000 0.41770  0.75320  0.71330  Biso   1.000  H
  C171     1.0000 0.43615  0.85498  0.77061  Biso   1.000  C
  H158     1.0000 0.44730  0.88490  0.73470  Biso   1.000  H
  C172     1.0000 0.37589  0.65406  0.79226  Biso   1.000  C
  H159     1.0000 0.38030  0.63710  0.74500  Biso   1.000  H
  H160     1.0000 0.38990  0.61190  0.82510  Biso   1.000  H
  C173     1.0000 0.32185  0.66226  0.79638  Biso   1.000  C
  H161     1.0000 0.31700  0.65900  0.84550  Biso   1.000  H
  H162     1.0000 0.30480  0.61620  0.77160  Biso   1.000  H
  C174     1.0000 0.29985  0.74223  0.76505  Biso   1.000  C
  H163     1.0000 0.31580  0.75830  0.72530  Biso   1.000  H
  H164     1.0000 0.30500  0.78570  0.80020  Biso   1.000  H
  C175     1.0000 0.21623  0.72496  0.78988  Biso   1.000  C
  H165     1.0000 0.22800  0.73060  0.83770  Biso   1.000  H
  C176     1.0000 0.16793  0.70984  0.76844  Biso   1.000  C
  H166     1.0000 0.14680  0.70520  0.80170  Biso   1.000  H
  C177     1.0000 0.15066  0.70153  0.69735  Biso   1.000  C
  C178     1.0000 0.18203  0.71192  0.64823  Biso   1.000  C
  H167     1.0000 0.17060  0.70900  0.60010  Biso   1.000  H
  C179     1.0000 0.23062  0.72679  0.67170  Biso   1.000  C
  H168     1.0000 0.25220  0.73350  0.63920  Biso   1.000  H
  C180     1.0000 0.09849  0.67681  0.67305  Biso   1.000  C
  Cu7      1.0000 0.02180  0.61901  0.57243  Biso   1.000  Cu
  O73      1.0000 0.99275  0.72841  0.56301  Biso   1.000  O
  O74      1.0000 0.99200  0.74271  0.67791  Biso   1.000  O
  O75      1.0000 0.57085  0.89444  0.34456  Biso   1.000  O
  O76      1.0000 0.54486  0.92695  0.44669  Biso   1.000  O
  O77      1.0000 0.04752  0.50803  0.59276  Biso   1.000  O
  O78      1.0000 0.01080  0.49946  0.69137  Biso   1.000  O
  O79      1.0000 0.41397  0.16519  0.89006  Biso   1.000  O
  O80      1.0000 0.42444  0.13780  0.77662  Biso   1.000  O
  O81      1.0000 0.05411  0.52531  0.70500  Biso   1.000  O
  O82      1.0000 0.96777  0.71964  0.66529  Biso   1.000  O
  O83      1.0000 0.54689  0.95438  0.33701  Biso   1.000  O
  O84      1.0000 0.43004  0.19827  0.78759  Biso   1.000  O
  N25      1.0000 0.88216  0.96272  0.56301  Biso   1.000  N
  N26      1.0000 0.71287  0.03025  0.46578  Biso   1.000  N
  N27      1.0000 0.09851  0.23405  0.69028  Biso   1.000  N
  N28      1.0000 0.25314  0.23167  0.75876  Biso   1.000  N
  C181     1.0000 0.97527  0.75881  0.61251  Biso   1.000  C
  C182     1.0000 0.94437  0.83441  0.59637  Biso   1.000  C
  C183     1.0000 0.91624  0.86373  0.64512  Biso   1.000  C
  H169     1.0000 0.91850  0.84000  0.68970  Biso   1.000  H
  C184     1.0000 0.88503  0.92822  0.62668  Biso   1.000  C
  H170     1.0000 0.86570  0.94800  0.65880  Biso   1.000  H
  C185     1.0000 0.91047  0.93732  0.51581  Biso   1.000  C
  H171     1.0000 0.90870  0.96370  0.47230  Biso   1.000  H
  C186     1.0000 0.94189  0.87274  0.53170  Biso   1.000  C
  H172     1.0000 0.96140  0.85490  0.49910  Biso   1.000  H
  C187     1.0000 0.84620  0.02890  0.54347  Biso   1.000  C
  H173     1.0000 0.84190  0.06060  0.58510  Biso   1.000  H
  H174     1.0000 0.85800  0.06590  0.50990  Biso   1.000  H
  C188     1.0000 0.79774  0.99187  0.51094  Biso   1.000  C
  H175     1.0000 0.78480  0.95720  0.54520  Biso   1.000  H
  H176     1.0000 0.80200  0.95820  0.47030  Biso   1.000  H
  C189     1.0000 0.76283  0.06256  0.48844  Biso   1.000  C
  H177     1.0000 0.77370  0.09250  0.44970  Biso   1.000  H
  H178     1.0000 0.76250  0.10050  0.52760  Biso   1.000  H
  C190     1.0000 0.68222  0.02415  0.51306  Biso   1.000  C
  H179     1.0000 0.69240  0.04020  0.55950  Biso   1.000  H
  C191     1.0000 0.63593  0.99452  0.49414  Biso   1.000  C
  H180     1.0000 0.61480  0.99030  0.52750  Biso   1.000  H
  C192     1.0000 0.62108  0.97097  0.42468  Biso   1.000  C
  C193     1.0000 0.65326  0.97842  0.37595  Biso   1.000  C
  H181     1.0000 0.64380  0.96340  0.32900  Biso   1.000  H
  C194     1.0000 0.69902  0.00810  0.39785  Biso   1.000  C
  H182     1.0000 0.72080  0.01310  0.36550  Biso   1.000  H
  C195     1.0000 0.57061  0.93760  0.40211  Biso   1.000  C
  C196     1.0000 0.04593  0.47704  0.65042  Biso   1.000  C
  C197     1.0000 0.06240  0.38940  0.66310  Biso   1.000  C
  C198     1.0000 0.07724  0.34237  0.60945  Biso   1.000  C
  H183     1.0000 0.07490  0.36330  0.56380  Biso   1.000  H
  C199     1.0000 0.09532  0.26482  0.62451  Biso   1.000  C
  H184     1.0000 0.10550  0.23310  0.58890  Biso   1.000  H
  C200     1.0000 0.08174  0.27674  0.74224  Biso   1.000  C
  H185     1.0000 0.08230  0.25320  0.78670  Biso   1.000  H
  C201     1.0000 0.06385  0.35498  0.72939  Biso   1.000  C
  H186     1.0000 0.05270  0.38490  0.76530  Biso   1.000  H
  C202     1.0000 0.12411  0.15406  0.70774  Biso   1.000  C
  H187     1.0000 0.11970  0.13710  0.75500  Biso   1.000  H
  H188     1.0000 0.11010  0.11190  0.67490  Biso   1.000  H
  C203     1.0000 0.17815  0.16226  0.70362  Biso   1.000  C
  H189     1.0000 0.18300  0.15900  0.65450  Biso   1.000  H
  H190     1.0000 0.19520  0.11620  0.72840  Biso   1.000  H
  C204     1.0000 0.20015  0.24223  0.73495  Biso   1.000  C
  H191     1.0000 0.18420  0.25830  0.77470  Biso   1.000  H
  H192     1.0000 0.19500  0.28570  0.69980  Biso   1.000  H
  C205     1.0000 0.28377  0.22496  0.71012  Biso   1.000  C
  H193     1.0000 0.27200  0.23060  0.66230  Biso   1.000  H
  C206     1.0000 0.33207  0.20984  0.73156  Biso   1.000  C
  H194     1.0000 0.35320  0.20520  0.69830  Biso   1.000  H
  C207     1.0000 0.34934  0.20153  0.80265  Biso   1.000  C
  C208     1.0000 0.31797  0.21192  0.85177  Biso   1.000  C
  H195     1.0000 0.32940  0.20900  0.89990  Biso   1.000  H
  C209     1.0000 0.26938  0.22679  0.82830  Biso   1.000  C
  H196     1.0000 0.24780  0.23350  0.86080  Biso   1.000  H
  C210     1.0000 0.40151  0.17681  0.82695  Biso   1.000  C
  Cu8      1.0000 0.52180  0.11901  0.57243  Biso   1.000  Cu
  O85      1.0000 0.49275  0.22841  0.56301  Biso   1.000  O
  O86      1.0000 0.49200  0.24271  0.67791  Biso   1.000  O
  O87      1.0000 0.07085  0.39444  0.34456  Biso   1.000  O
  O88      1.0000 0.04486  0.42695  0.44669  Biso   1.000  O
  O89      1.0000 0.54752  0.00803  0.59276  Biso   1.000  O
  O90      1.0000 0.51080  0.99946  0.69137  Biso   1.000  O
  O91      1.0000 0.91397  0.66519  0.89006  Biso   1.000  O
  O92      1.0000 0.92444  0.63780  0.77662  Biso   1.000  O
  O93      1.0000 0.55411  0.02531  0.70500  Biso   1.000  O
  O94      1.0000 0.46777  0.21964  0.66529  Biso   1.000  O
  O95      1.0000 0.04689  0.45438  0.33701  Biso   1.000  O
  O96      1.0000 0.93004  0.69827  0.78759  Biso   1.000  O
  N29      1.0000 0.38216  0.46272  0.56301  Biso   1.000  N
  N30      1.0000 0.21287  0.53025  0.46578  Biso   1.000  N
  N31      1.0000 0.59851  0.73405  0.69028  Biso   1.000  N
  N32      1.0000 0.75314  0.73167  0.75876  Biso   1.000  N
  C211     1.0000 0.47527  0.25881  0.61251  Biso   1.000  C
  C212     1.0000 0.44437  0.33441  0.59637  Biso   1.000  C
  C213     1.0000 0.41624  0.36373  0.64512  Biso   1.000  C
  H197     1.0000 0.41850  0.34000  0.68970  Biso   1.000  H
  C214     1.0000 0.38503  0.42822  0.62668  Biso   1.000  C
  H198     1.0000 0.36570  0.44800  0.65880  Biso   1.000  H
  C215     1.0000 0.41047  0.43732  0.51581  Biso   1.000  C
  H199     1.0000 0.40870  0.46370  0.47230  Biso   1.000  H
  C216     1.0000 0.44189  0.37274  0.53170  Biso   1.000  C
  H200     1.0000 0.46140  0.35490  0.49910  Biso   1.000  H
  C217     1.0000 0.34620  0.52890  0.54347  Biso   1.000  C
  H201     1.0000 0.34190  0.56060  0.58510  Biso   1.000  H
  H202     1.0000 0.35800  0.56590  0.50990  Biso   1.000  H
  C218     1.0000 0.29774  0.49187  0.51094  Biso   1.000  C
  H203     1.0000 0.28480  0.45720  0.54520  Biso   1.000  H
  H204     1.0000 0.30200  0.45820  0.47030  Biso   1.000  H
  C219     1.0000 0.26283  0.56256  0.48844  Biso   1.000  C
  H205     1.0000 0.27370  0.59250  0.44970  Biso   1.000  H
  H206     1.0000 0.26250  0.60050  0.52760  Biso   1.000  H
  C220     1.0000 0.18222  0.52415  0.51306  Biso   1.000  C
  H207     1.0000 0.19240  0.54020  0.55950  Biso   1.000  H
  C221     1.0000 0.13593  0.49452  0.49414  Biso   1.000  C
  H208     1.0000 0.11480  0.49030  0.52750  Biso   1.000  H
  C222     1.0000 0.12108  0.47097  0.42468  Biso   1.000  C
  C223     1.0000 0.15326  0.47842  0.37595  Biso   1.000  C
  H209     1.0000 0.14380  0.46340  0.32900  Biso   1.000  H
  C224     1.0000 0.19902  0.50810  0.39785  Biso   1.000  C
  H210     1.0000 0.22080  0.51310  0.36550  Biso   1.000  H
  C225     1.0000 0.07061  0.43760  0.40211  Biso   1.000  C
  C226     1.0000 0.54593  0.97704  0.65042  Biso   1.000  C
  C227     1.0000 0.56240  0.88940  0.66310  Biso   1.000  C
  C228     1.0000 0.57724  0.84237  0.60945  Biso   1.000  C
  H211     1.0000 0.57490  0.86330  0.56380  Biso   1.000  H
  C229     1.0000 0.59532  0.76482  0.62451  Biso   1.000  C
  H212     1.0000 0.60550  0.73310  0.58890  Biso   1.000  H
  C230     1.0000 0.58174  0.77674  0.74224  Biso   1.000  C
  H213     1.0000 0.58230  0.75320  0.78670  Biso   1.000  H
  C231     1.0000 0.56385  0.85498  0.72939  Biso   1.000  C
  H214     1.0000 0.55270  0.88490  0.76530  Biso   1.000  H
  C232     1.0000 0.62411  0.65406  0.70774  Biso   1.000  C
  H215     1.0000 0.61970  0.63710  0.75500  Biso   1.000  H
  H216     1.0000 0.61010  0.61190  0.67490  Biso   1.000  H
  C233     1.0000 0.67815  0.66226  0.70362  Biso   1.000  C
  H217     1.0000 0.68300  0.65900  0.65450  Biso   1.000  H
  H218     1.0000 0.69520  0.61620  0.72840  Biso   1.000  H
  C234     1.0000 0.70015  0.74223  0.73495  Biso   1.000  C
  H219     1.0000 0.68420  0.75830  0.77470  Biso   1.000  H
  H220     1.0000 0.69500  0.78570  0.69980  Biso   1.000  H
  C235     1.0000 0.78377  0.72496  0.71012  Biso   1.000  C
  H221     1.0000 0.77200  0.73060  0.66230  Biso   1.000  H
  C236     1.0000 0.83207  0.70984  0.73156  Biso   1.000  C
  H222     1.0000 0.85320  0.70520  0.69830  Biso   1.000  H
  C237     1.0000 0.84934  0.70153  0.80265  Biso   1.000  C
  C238     1.0000 0.81797  0.71192  0.85177  Biso   1.000  C
  H223     1.0000 0.82940  0.70900  0.89990  Biso   1.000  H
  C239     1.0000 0.76938  0.72679  0.82830  Biso   1.000  C
  H224     1.0000 0.74780  0.73350  0.86080  Biso   1.000  H
  C240     1.0000 0.90151  0.67681  0.82695  Biso   1.000  C
  Gd1      1.0000 0.00000  0.37599  0.25000  Biso   1.000  Gd
  Gd2      1.0000 0.50000  0.87599  0.25000  Biso   1.000  Gd
  Gd3      1.0000 0.00000  0.62401  0.75000  Biso   1.000  Gd
  Gd4      1.0000 0.50000  0.12401  0.75000  Biso   1.000  Gd
