data_image0
_cell_length_a       47.4
_cell_length_b       9.611
_cell_length_c       17.8051
_cell_angle_alpha    90
_cell_angle_beta     92.21
_cell_angle_gamma    90

_symmetry_space_group_name_H-M    "P 1"
_symmetry_int_tables_number       1

loop_
  _symmetry_equiv_pos_as_xyz
  'x, y, z'

loop_
  _atom_site_label
  _atom_site_occupancy
  _atom_site_fract_x
  _atom_site_fract_y
  _atom_site_fract_z
  _atom_site_thermal_displace_type
  _atom_site_B_iso_or_equiv
  _atom_site_type_symbol
  Co1      1.0000 0.67717  0.67715  0.49146  Biso   1.000  Co
  N1       1.0000 0.63574  0.67940  0.52580  Biso   1.000  N
  N2       1.0000 0.56086  0.66190  0.64430  Biso   1.000  N
  O1       1.0000 0.71883  0.59660  0.47340  Biso   1.000  O
  O2       1.0000 0.68905  0.47270  0.53640  Biso   1.000  O
  O3       1.0000 0.68634  0.78560  0.58720  Biso   1.000  O
  O4       1.0000 0.73356  0.78820  0.60290  Biso   1.000  O
  O5       1.0000 0.67854  0.16210  0.91840  Biso   1.000  O
  O6       1.0000 0.72392  0.10820  0.94520  Biso   1.000  O
  O7       1.0000 0.58730  0.72600  0.74640  Biso   1.000  O
  O8       1.0000 0.53480  0.60700  0.53790  Biso   1.000  O
  C1       1.0000 0.71248  0.48360  0.50600  Biso   1.000  C
  C2       1.0000 0.73211  0.36360  0.50240  Biso   1.000  C
  C3       1.0000 0.72847  0.25200  0.55020  Biso   1.000  C
  H1       1.0000 0.71400  0.25280  0.58410  Biso   1.000  H
  C4       1.0000 0.75332  0.36190  0.45300  Biso   1.000  C
  H2       1.0000 0.75570  0.43720  0.42100  Biso   1.000  H
  C5       1.0000 0.70188  0.10650  0.90610  Biso   1.000  C
  C6       1.0000 0.70912  0.81330  0.62150  Biso   1.000  C
  C7       1.0000 0.70751  0.88810  0.69600  Biso   1.000  C
  C8       1.0000 0.68235  0.94750  0.71570  Biso   1.000  C
  H3       1.0000 0.66650  0.94010  0.68340  Biso   1.000  H
  C9       1.0000 0.68035  0.02020  0.78520  Biso   1.000  C
  H4       1.0000 0.66350  0.06250  0.79770  Biso   1.000  H
  C10      1.0000 0.70315  0.02650  0.83250  Biso   1.000  C
  C11      1.0000 0.72814  0.97020  0.81130  Biso   1.000  C
  H5       1.0000 0.74420  0.97850  0.84280  Biso   1.000  H
  C12      1.0000 0.72976  0.90060  0.74320  Biso   1.000  C
  H6       1.0000 0.74690  0.86170  0.73030  Biso   1.000  H
  C13      1.0000 0.62174  0.56380  0.53390  Biso   1.000  C
  H7       1.0000 0.62890  0.48220  0.51410  Biso   1.000  H
  C14      1.0000 0.59590  0.55750  0.57190  Biso   1.000  C
  H8       1.0000 0.58610  0.47400  0.57520  Biso   1.000  H
  C15      1.0000 0.58600  0.67140  0.60240  Biso   1.000  C
  C16      1.0000 0.59980  0.78940  0.59280  Biso   1.000  C
  H9       1.0000 0.59270  0.87230  0.61110  Biso   1.000  H
  C17      1.0000 0.62433  0.78960  0.55640  Biso   1.000  C
  H10      1.0000 0.63380  0.87380  0.55280  Biso   1.000  H
  C18      1.0000 0.56430  0.70200  0.72000  Biso   1.000  C
  C19      1.0000 0.53920  0.69500  0.76300  Biso   1.000  C
  C20      1.0000 0.51250  0.65750  0.73020  Biso   1.000  C
  C21      1.0000 0.51010  0.61600  0.64600  Biso   1.000  C
  C22      1.0000 0.53610  0.61800  0.60400  Biso   1.000  C
  C23      1.0000 0.54050  0.71100  0.83830  Biso   1.000  C
  H11      1.0000 0.55810  0.72380  0.86200  Biso   1.000  H
  C24      1.0000 0.48440  0.59700  0.61470  Biso   1.000  C
  H12      1.0000 0.48230  0.58540  0.56290  Biso   1.000  H
  O9       1.0000 0.58720  0.61100  0.75130  Biso   1.000  O
  O10      1.0000 0.53570  0.72100  0.54200  Biso   1.000  O
  C25      1.0000 0.56360  0.62100  0.72300  Biso   1.000  C
  C26      1.0000 0.53800  0.61700  0.76700  Biso   1.000  C
  C27      1.0000 0.50900  0.69000  0.65200  Biso   1.000  C
  C28      1.0000 0.53660  0.69300  0.60900  Biso   1.000  C
  C29      1.0000 0.53970  0.59300  0.84200  Biso   1.000  C
  H13      1.0000 0.55720  0.57380  0.86550  Biso   1.000  H
  C30      1.0000 0.48260  0.71100  0.61900  Biso   1.000  C
  H14      1.0000 0.48050  0.72490  0.56700  Biso   1.000  H
  Co2      1.0000 0.17717  0.17715  0.49146  Biso   1.000  Co
  N3       1.0000 0.13574  0.17940  0.52580  Biso   1.000  N
  N4       1.0000 0.06086  0.16190  0.64430  Biso   1.000  N
  O11      1.0000 0.21883  0.09660  0.47340  Biso   1.000  O
  O12      1.0000 0.18905  0.97270  0.53640  Biso   1.000  O
  O13      1.0000 0.18634  0.28560  0.58720  Biso   1.000  O
  O14      1.0000 0.23356  0.28820  0.60290  Biso   1.000  O
  O15      1.0000 0.17854  0.66210  0.91840  Biso   1.000  O
  O16      1.0000 0.22392  0.60820  0.94520  Biso   1.000  O
  O17      1.0000 0.08730  0.22600  0.74640  Biso   1.000  O
  O18      1.0000 0.03480  0.10700  0.53790  Biso   1.000  O
  C31      1.0000 0.21248  0.98360  0.50600  Biso   1.000  C
  C32      1.0000 0.23211  0.86360  0.50240  Biso   1.000  C
  C33      1.0000 0.22847  0.75200  0.55020  Biso   1.000  C
  H15      1.0000 0.21400  0.75280  0.58410  Biso   1.000  H
  C34      1.0000 0.25332  0.86190  0.45300  Biso   1.000  C
  H16      1.0000 0.25570  0.93720  0.42100  Biso   1.000  H
  C35      1.0000 0.20188  0.60650  0.90610  Biso   1.000  C
  C36      1.0000 0.20912  0.31330  0.62150  Biso   1.000  C
  C37      1.0000 0.20751  0.38810  0.69600  Biso   1.000  C
  C38      1.0000 0.18235  0.44750  0.71570  Biso   1.000  C
  H17      1.0000 0.16650  0.44010  0.68340  Biso   1.000  H
  C39      1.0000 0.18035  0.52020  0.78520  Biso   1.000  C
  H18      1.0000 0.16350  0.56250  0.79770  Biso   1.000  H
  C40      1.0000 0.20315  0.52650  0.83250  Biso   1.000  C
  C41      1.0000 0.22814  0.47020  0.81130  Biso   1.000  C
  H19      1.0000 0.24420  0.47850  0.84280  Biso   1.000  H
  C42      1.0000 0.22976  0.40060  0.74320  Biso   1.000  C
  H20      1.0000 0.24690  0.36170  0.73030  Biso   1.000  H
  C43      1.0000 0.12174  0.06380  0.53390  Biso   1.000  C
  H21      1.0000 0.12890  0.98220  0.51410  Biso   1.000  H
  C44      1.0000 0.09590  0.05750  0.57190  Biso   1.000  C
  H22      1.0000 0.08610  0.97400  0.57520  Biso   1.000  H
  C45      1.0000 0.08600  0.17140  0.60240  Biso   1.000  C
  C46      1.0000 0.09980  0.28940  0.59280  Biso   1.000  C
  H23      1.0000 0.09270  0.37230  0.61110  Biso   1.000  H
  C47      1.0000 0.12433  0.28960  0.55640  Biso   1.000  C
  H24      1.0000 0.13380  0.37380  0.55280  Biso   1.000  H
  C48      1.0000 0.06430  0.20200  0.72000  Biso   1.000  C
  C49      1.0000 0.03920  0.19500  0.76300  Biso   1.000  C
  C50      1.0000 0.01250  0.15750  0.73020  Biso   1.000  C
  C51      1.0000 0.01010  0.11600  0.64600  Biso   1.000  C
  C52      1.0000 0.03610  0.11800  0.60400  Biso   1.000  C
  C53      1.0000 0.04050  0.21100  0.83830  Biso   1.000  C
  H25      1.0000 0.05810  0.22380  0.86200  Biso   1.000  H
  C54      1.0000 0.98440  0.09700  0.61470  Biso   1.000  C
  H26      1.0000 0.98230  0.08540  0.56290  Biso   1.000  H
  O19      1.0000 0.08720  0.11100  0.75130  Biso   1.000  O
  O20      1.0000 0.03570  0.22100  0.54200  Biso   1.000  O
  C55      1.0000 0.06360  0.12100  0.72300  Biso   1.000  C
  C56      1.0000 0.03800  0.11700  0.76700  Biso   1.000  C
  C57      1.0000 0.00900  0.19000  0.65200  Biso   1.000  C
  C58      1.0000 0.03660  0.19300  0.60900  Biso   1.000  C
  C59      1.0000 0.03970  0.09300  0.84200  Biso   1.000  C
  H27      1.0000 0.05720  0.07380  0.86550  Biso   1.000  H
  C60      1.0000 0.98260  0.21100  0.61900  Biso   1.000  C
  H28      1.0000 0.98050  0.22490  0.56700  Biso   1.000  H
  Co3      1.0000 0.32283  0.67715  0.00854  Biso   1.000  Co
  N5       1.0000 0.36426  0.67940  0.97420  Biso   1.000  N
  N6       1.0000 0.43914  0.66190  0.85570  Biso   1.000  N
  O21      1.0000 0.28117  0.59660  0.02660  Biso   1.000  O
  O22      1.0000 0.31095  0.47270  0.96360  Biso   1.000  O
  O23      1.0000 0.31366  0.78560  0.91280  Biso   1.000  O
  O24      1.0000 0.26644  0.78820  0.89710  Biso   1.000  O
  O25      1.0000 0.32146  0.16210  0.58160  Biso   1.000  O
  O26      1.0000 0.27608  0.10820  0.55480  Biso   1.000  O
  O27      1.0000 0.41270  0.72600  0.75360  Biso   1.000  O
  O28      1.0000 0.46520  0.60700  0.96210  Biso   1.000  O
  C61      1.0000 0.28752  0.48360  0.99400  Biso   1.000  C
  C62      1.0000 0.26789  0.36360  0.99760  Biso   1.000  C
  C63      1.0000 0.27153  0.25200  0.94980  Biso   1.000  C
  H29      1.0000 0.28600  0.25280  0.91590  Biso   1.000  H
  C64      1.0000 0.24668  0.36190  0.04700  Biso   1.000  C
  H30      1.0000 0.24430  0.43720  0.07900  Biso   1.000  H
  C65      1.0000 0.29812  0.10650  0.59390  Biso   1.000  C
  C66      1.0000 0.29088  0.81330  0.87850  Biso   1.000  C
  C67      1.0000 0.29249  0.88810  0.80400  Biso   1.000  C
  C68      1.0000 0.31765  0.94750  0.78430  Biso   1.000  C
  H31      1.0000 0.33350  0.94010  0.81660  Biso   1.000  H
  C69      1.0000 0.31965  0.02020  0.71480  Biso   1.000  C
  H32      1.0000 0.33650  0.06250  0.70230  Biso   1.000  H
  C70      1.0000 0.29685  0.02650  0.66750  Biso   1.000  C
  C71      1.0000 0.27186  0.97020  0.68870  Biso   1.000  C
  H33      1.0000 0.25580  0.97850  0.65720  Biso   1.000  H
  C72      1.0000 0.27024  0.90060  0.75680  Biso   1.000  C
  H34      1.0000 0.25310  0.86170  0.76970  Biso   1.000  H
  C73      1.0000 0.37826  0.56380  0.96610  Biso   1.000  C
  H35      1.0000 0.37110  0.48220  0.98590  Biso   1.000  H
  C74      1.0000 0.40410  0.55750  0.92810  Biso   1.000  C
  H36      1.0000 0.41390  0.47400  0.92480  Biso   1.000  H
  C75      1.0000 0.41400  0.67140  0.89760  Biso   1.000  C
  C76      1.0000 0.40020  0.78940  0.90720  Biso   1.000  C
  H37      1.0000 0.40730  0.87230  0.88890  Biso   1.000  H
  C77      1.0000 0.37567  0.78960  0.94360  Biso   1.000  C
  H38      1.0000 0.36620  0.87380  0.94720  Biso   1.000  H
  C78      1.0000 0.43570  0.70200  0.78000  Biso   1.000  C
  C79      1.0000 0.46080  0.69500  0.73700  Biso   1.000  C
  C80      1.0000 0.48750  0.65750  0.76980  Biso   1.000  C
  C81      1.0000 0.48990  0.61600  0.85400  Biso   1.000  C
  C82      1.0000 0.46390  0.61800  0.89600  Biso   1.000  C
  C83      1.0000 0.45950  0.71100  0.66170  Biso   1.000  C
  H39      1.0000 0.44190  0.72380  0.63800  Biso   1.000  H
  C84      1.0000 0.51560  0.59700  0.88530  Biso   1.000  C
  H40      1.0000 0.51770  0.58540  0.93710  Biso   1.000  H
  O29      1.0000 0.41280  0.61100  0.74870  Biso   1.000  O
  O30      1.0000 0.46430  0.72100  0.95800  Biso   1.000  O
  C85      1.0000 0.43640  0.62100  0.77700  Biso   1.000  C
  C86      1.0000 0.46200  0.61700  0.73300  Biso   1.000  C
  C87      1.0000 0.49100  0.69000  0.84800  Biso   1.000  C
  C88      1.0000 0.46340  0.69300  0.89100  Biso   1.000  C
  C89      1.0000 0.46030  0.59300  0.65800  Biso   1.000  C
  H41      1.0000 0.44280  0.57380  0.63450  Biso   1.000  H
  C90      1.0000 0.51740  0.71100  0.88100  Biso   1.000  C
  H42      1.0000 0.51950  0.72490  0.93300  Biso   1.000  H
  Co4      1.0000 0.82283  0.17715  0.00854  Biso   1.000  Co
  N7       1.0000 0.86426  0.17940  0.97420  Biso   1.000  N
  N8       1.0000 0.93914  0.16190  0.85570  Biso   1.000  N
  O31      1.0000 0.78117  0.09660  0.02660  Biso   1.000  O
  O32      1.0000 0.81095  0.97270  0.96360  Biso   1.000  O
  O33      1.0000 0.81366  0.28560  0.91280  Biso   1.000  O
  O34      1.0000 0.76644  0.28820  0.89710  Biso   1.000  O
  O35      1.0000 0.82146  0.66210  0.58160  Biso   1.000  O
  O36      1.0000 0.77608  0.60820  0.55480  Biso   1.000  O
  O37      1.0000 0.91270  0.22600  0.75360  Biso   1.000  O
  O38      1.0000 0.96520  0.10700  0.96210  Biso   1.000  O
  C91      1.0000 0.78752  0.98360  0.99400  Biso   1.000  C
  C92      1.0000 0.76789  0.86360  0.99760  Biso   1.000  C
  C93      1.0000 0.77153  0.75200  0.94980  Biso   1.000  C
  H43      1.0000 0.78600  0.75280  0.91590  Biso   1.000  H
  C94      1.0000 0.74668  0.86190  0.04700  Biso   1.000  C
  H44      1.0000 0.74430  0.93720  0.07900  Biso   1.000  H
  C95      1.0000 0.79812  0.60650  0.59390  Biso   1.000  C
  C96      1.0000 0.79088  0.31330  0.87850  Biso   1.000  C
  C97      1.0000 0.79249  0.38810  0.80400  Biso   1.000  C
  C98      1.0000 0.81765  0.44750  0.78430  Biso   1.000  C
  H45      1.0000 0.83350  0.44010  0.81660  Biso   1.000  H
  C99      1.0000 0.81965  0.52020  0.71480  Biso   1.000  C
  H46      1.0000 0.83650  0.56250  0.70230  Biso   1.000  H
  C100     1.0000 0.79685  0.52650  0.66750  Biso   1.000  C
  C101     1.0000 0.77186  0.47020  0.68870  Biso   1.000  C
  H47      1.0000 0.75580  0.47850  0.65720  Biso   1.000  H
  C102     1.0000 0.77024  0.40060  0.75680  Biso   1.000  C
  H48      1.0000 0.75310  0.36170  0.76970  Biso   1.000  H
  C103     1.0000 0.87826  0.06380  0.96610  Biso   1.000  C
  H49      1.0000 0.87110  0.98220  0.98590  Biso   1.000  H
  C104     1.0000 0.90410  0.05750  0.92810  Biso   1.000  C
  H50      1.0000 0.91390  0.97400  0.92480  Biso   1.000  H
  C105     1.0000 0.91400  0.17140  0.89760  Biso   1.000  C
  C106     1.0000 0.90020  0.28940  0.90720  Biso   1.000  C
  H51      1.0000 0.90730  0.37230  0.88890  Biso   1.000  H
  C107     1.0000 0.87567  0.28960  0.94360  Biso   1.000  C
  H52      1.0000 0.86620  0.37380  0.94720  Biso   1.000  H
  C108     1.0000 0.93570  0.20200  0.78000  Biso   1.000  C
  C109     1.0000 0.96080  0.19500  0.73700  Biso   1.000  C
  C110     1.0000 0.98750  0.15750  0.76980  Biso   1.000  C
  C111     1.0000 0.98990  0.11600  0.85400  Biso   1.000  C
  C112     1.0000 0.96390  0.11800  0.89600  Biso   1.000  C
  C113     1.0000 0.95950  0.21100  0.66170  Biso   1.000  C
  H53      1.0000 0.94190  0.22380  0.63800  Biso   1.000  H
  C114     1.0000 0.01560  0.09700  0.88530  Biso   1.000  C
  H54      1.0000 0.01770  0.08540  0.93710  Biso   1.000  H
  O39      1.0000 0.91280  0.11100  0.74870  Biso   1.000  O
  O40      1.0000 0.96430  0.22100  0.95800  Biso   1.000  O
  C115     1.0000 0.93640  0.12100  0.77700  Biso   1.000  C
  C116     1.0000 0.96200  0.11700  0.73300  Biso   1.000  C
  C117     1.0000 0.99100  0.19000  0.84800  Biso   1.000  C
  C118     1.0000 0.96340  0.19300  0.89100  Biso   1.000  C
  C119     1.0000 0.96030  0.09300  0.65800  Biso   1.000  C
  H55      1.0000 0.94280  0.07380  0.63450  Biso   1.000  H
  C120     1.0000 0.01740  0.21100  0.88100  Biso   1.000  C
  H56      1.0000 0.01950  0.22490  0.93300  Biso   1.000  H
  Co5      1.0000 0.32283  0.32285  0.50854  Biso   1.000  Co
  N9       1.0000 0.36426  0.32060  0.47420  Biso   1.000  N
  N10      1.0000 0.43914  0.33810  0.35570  Biso   1.000  N
  O41      1.0000 0.28117  0.40340  0.52660  Biso   1.000  O
  O42      1.0000 0.31095  0.52730  0.46360  Biso   1.000  O
  O43      1.0000 0.31366  0.21440  0.41280  Biso   1.000  O
  O44      1.0000 0.26644  0.21180  0.39710  Biso   1.000  O
  O45      1.0000 0.32146  0.83790  0.08160  Biso   1.000  O
  O46      1.0000 0.27608  0.89180  0.05480  Biso   1.000  O
  O47      1.0000 0.41270  0.27400  0.25360  Biso   1.000  O
  O48      1.0000 0.46520  0.39300  0.46210  Biso   1.000  O
  C121     1.0000 0.28752  0.51640  0.49400  Biso   1.000  C
  C122     1.0000 0.26789  0.63640  0.49760  Biso   1.000  C
  C123     1.0000 0.27153  0.74800  0.44980  Biso   1.000  C
  H57      1.0000 0.28600  0.74720  0.41590  Biso   1.000  H
  C124     1.0000 0.24668  0.63810  0.54700  Biso   1.000  C
  H58      1.0000 0.24430  0.56280  0.57900  Biso   1.000  H
  C125     1.0000 0.29812  0.89350  0.09390  Biso   1.000  C
  C126     1.0000 0.29088  0.18670  0.37850  Biso   1.000  C
  C127     1.0000 0.29249  0.11190  0.30400  Biso   1.000  C
  C128     1.0000 0.31765  0.05250  0.28430  Biso   1.000  C
  H59      1.0000 0.33350  0.05990  0.31660  Biso   1.000  H
  C129     1.0000 0.31965  0.97980  0.21480  Biso   1.000  C
  H60      1.0000 0.33650  0.93750  0.20230  Biso   1.000  H
  C130     1.0000 0.29685  0.97350  0.16750  Biso   1.000  C
  C131     1.0000 0.27186  0.02980  0.18870  Biso   1.000  C
  H61      1.0000 0.25580  0.02150  0.15720  Biso   1.000  H
  C132     1.0000 0.27024  0.09940  0.25680  Biso   1.000  C
  H62      1.0000 0.25310  0.13830  0.26970  Biso   1.000  H
  C133     1.0000 0.37826  0.43620  0.46610  Biso   1.000  C
  H63      1.0000 0.37110  0.51780  0.48590  Biso   1.000  H
  C134     1.0000 0.40410  0.44250  0.42810  Biso   1.000  C
  H64      1.0000 0.41390  0.52600  0.42480  Biso   1.000  H
  C135     1.0000 0.41400  0.32860  0.39760  Biso   1.000  C
  C136     1.0000 0.40020  0.21060  0.40720  Biso   1.000  C
  H65      1.0000 0.40730  0.12770  0.38890  Biso   1.000  H
  C137     1.0000 0.37567  0.21040  0.44360  Biso   1.000  C
  H66      1.0000 0.36620  0.12620  0.44720  Biso   1.000  H
  C138     1.0000 0.43570  0.29800  0.28000  Biso   1.000  C
  C139     1.0000 0.46080  0.30500  0.23700  Biso   1.000  C
  C140     1.0000 0.48750  0.34250  0.26980  Biso   1.000  C
  C141     1.0000 0.48990  0.38400  0.35400  Biso   1.000  C
  C142     1.0000 0.46390  0.38200  0.39600  Biso   1.000  C
  C143     1.0000 0.45950  0.28900  0.16170  Biso   1.000  C
  H67      1.0000 0.44190  0.27620  0.13800  Biso   1.000  H
  C144     1.0000 0.51560  0.40300  0.38530  Biso   1.000  C
  H68      1.0000 0.51770  0.41460  0.43710  Biso   1.000  H
  O49      1.0000 0.41280  0.38900  0.24870  Biso   1.000  O
  O50      1.0000 0.46430  0.27900  0.45800  Biso   1.000  O
  C145     1.0000 0.43640  0.37900  0.27700  Biso   1.000  C
  C146     1.0000 0.46200  0.38300  0.23300  Biso   1.000  C
  C147     1.0000 0.49100  0.31000  0.34800  Biso   1.000  C
  C148     1.0000 0.46340  0.30700  0.39100  Biso   1.000  C
  C149     1.0000 0.46030  0.40700  0.15800  Biso   1.000  C
  H69      1.0000 0.44280  0.42620  0.13450  Biso   1.000  H
  C150     1.0000 0.51740  0.28900  0.38100  Biso   1.000  C
  H70      1.0000 0.51950  0.27510  0.43300  Biso   1.000  H
  Co6      1.0000 0.82283  0.82285  0.50854  Biso   1.000  Co
  N11      1.0000 0.86426  0.82060  0.47420  Biso   1.000  N
  N12      1.0000 0.93914  0.83810  0.35570  Biso   1.000  N
  O51      1.0000 0.78117  0.90340  0.52660  Biso   1.000  O
  O52      1.0000 0.81095  0.02730  0.46360  Biso   1.000  O
  O53      1.0000 0.81366  0.71440  0.41280  Biso   1.000  O
  O54      1.0000 0.76644  0.71180  0.39710  Biso   1.000  O
  O55      1.0000 0.82146  0.33790  0.08160  Biso   1.000  O
  O56      1.0000 0.77608  0.39180  0.05480  Biso   1.000  O
  O57      1.0000 0.91270  0.77400  0.25360  Biso   1.000  O
  O58      1.0000 0.96520  0.89300  0.46210  Biso   1.000  O
  C151     1.0000 0.78752  0.01640  0.49400  Biso   1.000  C
  C152     1.0000 0.76789  0.13640  0.49760  Biso   1.000  C
  C153     1.0000 0.77153  0.24800  0.44980  Biso   1.000  C
  H71      1.0000 0.78600  0.24720  0.41590  Biso   1.000  H
  C154     1.0000 0.74668  0.13810  0.54700  Biso   1.000  C
  H72      1.0000 0.74430  0.06280  0.57900  Biso   1.000  H
  C155     1.0000 0.79812  0.39350  0.09390  Biso   1.000  C
  C156     1.0000 0.79088  0.68670  0.37850  Biso   1.000  C
  C157     1.0000 0.79249  0.61190  0.30400  Biso   1.000  C
  C158     1.0000 0.81765  0.55250  0.28430  Biso   1.000  C
  H73      1.0000 0.83350  0.55990  0.31660  Biso   1.000  H
  C159     1.0000 0.81965  0.47980  0.21480  Biso   1.000  C
  H74      1.0000 0.83650  0.43750  0.20230  Biso   1.000  H
  C160     1.0000 0.79685  0.47350  0.16750  Biso   1.000  C
  C161     1.0000 0.77186  0.52980  0.18870  Biso   1.000  C
  H75      1.0000 0.75580  0.52150  0.15720  Biso   1.000  H
  C162     1.0000 0.77024  0.59940  0.25680  Biso   1.000  C
  H76      1.0000 0.75310  0.63830  0.26970  Biso   1.000  H
  C163     1.0000 0.87826  0.93620  0.46610  Biso   1.000  C
  H77      1.0000 0.87110  0.01780  0.48590  Biso   1.000  H
  C164     1.0000 0.90410  0.94250  0.42810  Biso   1.000  C
  H78      1.0000 0.91390  0.02600  0.42480  Biso   1.000  H
  C165     1.0000 0.91400  0.82860  0.39760  Biso   1.000  C
  C166     1.0000 0.90020  0.71060  0.40720  Biso   1.000  C
  H79      1.0000 0.90730  0.62770  0.38890  Biso   1.000  H
  C167     1.0000 0.87567  0.71040  0.44360  Biso   1.000  C
  H80      1.0000 0.86620  0.62620  0.44720  Biso   1.000  H
  C168     1.0000 0.93570  0.79800  0.28000  Biso   1.000  C
  C169     1.0000 0.96080  0.80500  0.23700  Biso   1.000  C
  C170     1.0000 0.98750  0.84250  0.26980  Biso   1.000  C
  C171     1.0000 0.98990  0.88400  0.35400  Biso   1.000  C
  C172     1.0000 0.96390  0.88200  0.39600  Biso   1.000  C
  C173     1.0000 0.95950  0.78900  0.16170  Biso   1.000  C
  H81      1.0000 0.94190  0.77620  0.13800  Biso   1.000  H
  C174     1.0000 0.01560  0.90300  0.38530  Biso   1.000  C
  H82      1.0000 0.01770  0.91460  0.43710  Biso   1.000  H
  O59      1.0000 0.91280  0.88900  0.24870  Biso   1.000  O
  O60      1.0000 0.96430  0.77900  0.45800  Biso   1.000  O
  C175     1.0000 0.93640  0.87900  0.27700  Biso   1.000  C
  C176     1.0000 0.96200  0.88300  0.23300  Biso   1.000  C
  C177     1.0000 0.99100  0.81000  0.34800  Biso   1.000  C
  C178     1.0000 0.96340  0.80700  0.39100  Biso   1.000  C
  C179     1.0000 0.96030  0.90700  0.15800  Biso   1.000  C
  H83      1.0000 0.94280  0.92620  0.13450  Biso   1.000  H
  C180     1.0000 0.01740  0.78900  0.38100  Biso   1.000  C
  H84      1.0000 0.01950  0.77510  0.43300  Biso   1.000  H
  Co7      1.0000 0.67717  0.32285  0.99146  Biso   1.000  Co
  N13      1.0000 0.63574  0.32060  0.02580  Biso   1.000  N
  N14      1.0000 0.56086  0.33810  0.14430  Biso   1.000  N
  O61      1.0000 0.71883  0.40340  0.97340  Biso   1.000  O
  O62      1.0000 0.68905  0.52730  0.03640  Biso   1.000  O
  O63      1.0000 0.68634  0.21440  0.08720  Biso   1.000  O
  O64      1.0000 0.73356  0.21180  0.10290  Biso   1.000  O
  O65      1.0000 0.67854  0.83790  0.41840  Biso   1.000  O
  O66      1.0000 0.72392  0.89180  0.44520  Biso   1.000  O
  O67      1.0000 0.58730  0.27400  0.24640  Biso   1.000  O
  O68      1.0000 0.53480  0.39300  0.03790  Biso   1.000  O
  C181     1.0000 0.71248  0.51640  0.00600  Biso   1.000  C
  C182     1.0000 0.73211  0.63640  0.00240  Biso   1.000  C
  C183     1.0000 0.72847  0.74800  0.05020  Biso   1.000  C
  H85      1.0000 0.71400  0.74720  0.08410  Biso   1.000  H
  C184     1.0000 0.75332  0.63810  0.95300  Biso   1.000  C
  H86      1.0000 0.75570  0.56280  0.92100  Biso   1.000  H
  C185     1.0000 0.70188  0.89350  0.40610  Biso   1.000  C
  C186     1.0000 0.70912  0.18670  0.12150  Biso   1.000  C
  C187     1.0000 0.70751  0.11190  0.19600  Biso   1.000  C
  C188     1.0000 0.68235  0.05250  0.21570  Biso   1.000  C
  H87      1.0000 0.66650  0.05990  0.18340  Biso   1.000  H
  C189     1.0000 0.68035  0.97980  0.28520  Biso   1.000  C
  H88      1.0000 0.66350  0.93750  0.29770  Biso   1.000  H
  C190     1.0000 0.70315  0.97350  0.33250  Biso   1.000  C
  C191     1.0000 0.72814  0.02980  0.31130  Biso   1.000  C
  H89      1.0000 0.74420  0.02150  0.34280  Biso   1.000  H
  C192     1.0000 0.72976  0.09940  0.24320  Biso   1.000  C
  H90      1.0000 0.74690  0.13830  0.23030  Biso   1.000  H
  C193     1.0000 0.62174  0.43620  0.03390  Biso   1.000  C
  H91      1.0000 0.62890  0.51780  0.01410  Biso   1.000  H
  C194     1.0000 0.59590  0.44250  0.07190  Biso   1.000  C
  H92      1.0000 0.58610  0.52600  0.07520  Biso   1.000  H
  C195     1.0000 0.58600  0.32860  0.10240  Biso   1.000  C
  C196     1.0000 0.59980  0.21060  0.09280  Biso   1.000  C
  H93      1.0000 0.59270  0.12770  0.11110  Biso   1.000  H
  C197     1.0000 0.62433  0.21040  0.05640  Biso   1.000  C
  H94      1.0000 0.63380  0.12620  0.05280  Biso   1.000  H
  C198     1.0000 0.56430  0.29800  0.22000  Biso   1.000  C
  C199     1.0000 0.53920  0.30500  0.26300  Biso   1.000  C
  C200     1.0000 0.51250  0.34250  0.23020  Biso   1.000  C
  C201     1.0000 0.51010  0.38400  0.14600  Biso   1.000  C
  C202     1.0000 0.53610  0.38200  0.10400  Biso   1.000  C
  C203     1.0000 0.54050  0.28900  0.33830  Biso   1.000  C
  H95      1.0000 0.55810  0.27620  0.36200  Biso   1.000  H
  C204     1.0000 0.48440  0.40300  0.11470  Biso   1.000  C
  H96      1.0000 0.48230  0.41460  0.06290  Biso   1.000  H
  O69      1.0000 0.58720  0.38900  0.25130  Biso   1.000  O
  O70      1.0000 0.53570  0.27900  0.04200  Biso   1.000  O
  C205     1.0000 0.56360  0.37900  0.22300  Biso   1.000  C
  C206     1.0000 0.53800  0.38300  0.26700  Biso   1.000  C
  C207     1.0000 0.50900  0.31000  0.15200  Biso   1.000  C
  C208     1.0000 0.53660  0.30700  0.10900  Biso   1.000  C
  C209     1.0000 0.53970  0.40700  0.34200  Biso   1.000  C
  H97      1.0000 0.55720  0.42620  0.36550  Biso   1.000  H
  C210     1.0000 0.48260  0.28900  0.11900  Biso   1.000  C
  H98      1.0000 0.48050  0.27510  0.06700  Biso   1.000  H
  Co8      1.0000 0.17717  0.82285  0.99146  Biso   1.000  Co
  N15      1.0000 0.13574  0.82060  0.02580  Biso   1.000  N
  N16      1.0000 0.06086  0.83810  0.14430  Biso   1.000  N
  O71      1.0000 0.21883  0.90340  0.97340  Biso   1.000  O
  O72      1.0000 0.18905  0.02730  0.03640  Biso   1.000  O
  O73      1.0000 0.18634  0.71440  0.08720  Biso   1.000  O
  O74      1.0000 0.23356  0.71180  0.10290  Biso   1.000  O
  O75      1.0000 0.17854  0.33790  0.41840  Biso   1.000  O
  O76      1.0000 0.22392  0.39180  0.44520  Biso   1.000  O
  O77      1.0000 0.08730  0.77400  0.24640  Biso   1.000  O
  O78      1.0000 0.03480  0.89300  0.03790  Biso   1.000  O
  C211     1.0000 0.21248  0.01640  0.00600  Biso   1.000  C
  C212     1.0000 0.23211  0.13640  0.00240  Biso   1.000  C
  C213     1.0000 0.22847  0.24800  0.05020  Biso   1.000  C
  H99      1.0000 0.21400  0.24720  0.08410  Biso   1.000  H
  C214     1.0000 0.25332  0.13810  0.95300  Biso   1.000  C
  H100     1.0000 0.25570  0.06280  0.92100  Biso   1.000  H
  C215     1.0000 0.20188  0.39350  0.40610  Biso   1.000  C
  C216     1.0000 0.20912  0.68670  0.12150  Biso   1.000  C
  C217     1.0000 0.20751  0.61190  0.19600  Biso   1.000  C
  C218     1.0000 0.18235  0.55250  0.21570  Biso   1.000  C
  H101     1.0000 0.16650  0.55990  0.18340  Biso   1.000  H
  C219     1.0000 0.18035  0.47980  0.28520  Biso   1.000  C
  H102     1.0000 0.16350  0.43750  0.29770  Biso   1.000  H
  C220     1.0000 0.20315  0.47350  0.33250  Biso   1.000  C
  C221     1.0000 0.22814  0.52980  0.31130  Biso   1.000  C
  H103     1.0000 0.24420  0.52150  0.34280  Biso   1.000  H
  C222     1.0000 0.22976  0.59940  0.24320  Biso   1.000  C
  H104     1.0000 0.24690  0.63830  0.23030  Biso   1.000  H
  C223     1.0000 0.12174  0.93620  0.03390  Biso   1.000  C
  H105     1.0000 0.12890  0.01780  0.01410  Biso   1.000  H
  C224     1.0000 0.09590  0.94250  0.07190  Biso   1.000  C
  H106     1.0000 0.08610  0.02600  0.07520  Biso   1.000  H
  C225     1.0000 0.08600  0.82860  0.10240  Biso   1.000  C
  C226     1.0000 0.09980  0.71060  0.09280  Biso   1.000  C
  H107     1.0000 0.09270  0.62770  0.11110  Biso   1.000  H
  C227     1.0000 0.12433  0.71040  0.05640  Biso   1.000  C
  H108     1.0000 0.13380  0.62620  0.05280  Biso   1.000  H
  C228     1.0000 0.06430  0.79800  0.22000  Biso   1.000  C
  C229     1.0000 0.03920  0.80500  0.26300  Biso   1.000  C
  C230     1.0000 0.01250  0.84250  0.23020  Biso   1.000  C
  C231     1.0000 0.01010  0.88400  0.14600  Biso   1.000  C
  C232     1.0000 0.03610  0.88200  0.10400  Biso   1.000  C
  C233     1.0000 0.04050  0.78900  0.33830  Biso   1.000  C
  H109     1.0000 0.05810  0.77620  0.36200  Biso   1.000  H
  C234     1.0000 0.98440  0.90300  0.11470  Biso   1.000  C
  H110     1.0000 0.98230  0.91460  0.06290  Biso   1.000  H
  O79      1.0000 0.08720  0.88900  0.25130  Biso   1.000  O
  O80      1.0000 0.03570  0.77900  0.04200  Biso   1.000  O
  C235     1.0000 0.06360  0.87900  0.22300  Biso   1.000  C
  C236     1.0000 0.03800  0.88300  0.26700  Biso   1.000  C
  C237     1.0000 0.00900  0.81000  0.15200  Biso   1.000  C
  C238     1.0000 0.03660  0.80700  0.10900  Biso   1.000  C
  C239     1.0000 0.03970  0.90700  0.34200  Biso   1.000  C
  H111     1.0000 0.05720  0.92620  0.36550  Biso   1.000  H
  C240     1.0000 0.98260  0.78900  0.11900  Biso   1.000  C
  H112     1.0000 0.98050  0.77510  0.06700  Biso   1.000  H
  Co9      1.0000 0.75000  0.75000  0.50000  Biso   1.000  Co
  Co10     1.0000 0.25000  0.75000  0.00000  Biso   1.000  Co
  Co11     1.0000 0.25000  0.25000  0.50000  Biso   1.000  Co
  Co12     1.0000 0.75000  0.25000  0.00000  Biso   1.000  Co
