data_image0
_cell_length_a       8.0107
_cell_length_b       20.461
_cell_length_c       8.6435
_cell_angle_alpha    90
_cell_angle_beta     90.643
_cell_angle_gamma    90

_symmetry_space_group_name_H-M    "P 1"
_symmetry_int_tables_number       1

loop_
  _symmetry_equiv_pos_as_xyz
  'x, y, z'

loop_
  _atom_site_label
  _atom_site_occupancy
  _atom_site_fract_x
  _atom_site_fract_y
  _atom_site_fract_z
  _atom_site_thermal_displace_type
  _atom_site_B_iso_or_equiv
  _atom_site_type_symbol
  N1       1.0000 0.37360  0.07490  0.09300  Biso   1.000  N
  N2       1.0000 0.20050  0.07854  0.09480  Biso   1.000  N
  N3       1.0000 0.30950  0.16830  0.18930  Biso   1.000  N
  N4       1.0000 0.34220  0.23176  0.24310  Biso   1.000  N
  N5       1.0000 0.17400  0.42163  0.37760  Biso   1.000  N
  N6       1.0000 0.34710  0.41474  0.39640  Biso   1.000  N
  N7       1.0000 0.24220  0.32501  0.29800  Biso   1.000  N
  N8       1.0000 0.21010  0.26208  0.24490  Biso   1.000  N
  C1       1.0000 0.43610  0.12831  0.15110  Biso   1.000  C
  H1       1.0000 0.55160  0.13760  0.16440  Biso   1.000  H
  C2       1.0000 0.16480  0.13576  0.15200  Biso   1.000  C
  H2       1.0000 0.05520  0.15240  0.16580  Biso   1.000  H
  C3       1.0000 0.11590  0.36800  0.31810  Biso   1.000  C
  H3       1.0000 0.00200  0.36010  0.29240  Biso   1.000  H
  C4       1.0000 0.38440  0.35637  0.34810  Biso   1.000  C
  H4       1.0000 0.49350  0.33820  0.34760  Biso   1.000  H
  C5       1.0000 0.18440  0.99982  0.79080  Biso   1.000  C
  H5       1.0000 0.10280  0.00360  0.86920  Biso   1.000  H
  N9       1.0000 0.34570  0.99987  0.81190  Biso   1.000  N
  N10      1.0000 0.42220  0.99420  0.66860  Biso   1.000  N
  C6       1.0000 0.30370  0.99190  0.56470  Biso   1.000  C
  H6       1.0000 0.31970  0.98960  0.45610  Biso   1.000  H
  N11      1.0000 0.15330  0.99340  0.63570  Biso   1.000  N
  N12      1.0000 0.99460  0.99860  0.57170  Biso   1.000  N
  H7       1.0000 0.10290  0.99560  0.86910  Biso   1.000  H
  N13      1.0000 0.42220  0.00560  0.66850  Biso   1.000  N
  C7       1.0000 0.30360  0.00800  0.56480  Biso   1.000  C
  H8       1.0000 0.31960  0.01030  0.45620  Biso   1.000  H
  N14      1.0000 0.15320  0.00690  0.63590  Biso   1.000  N
  N15      1.0000 0.99440  0.00180  0.57190  Biso   1.000  N
  N16      1.0000 0.62640  0.92510  0.90700  Biso   1.000  N
  N17      1.0000 0.79950  0.92146  0.90520  Biso   1.000  N
  N18      1.0000 0.69050  0.83170  0.81070  Biso   1.000  N
  N19      1.0000 0.65780  0.76824  0.75690  Biso   1.000  N
  N20      1.0000 0.82600  0.57837  0.62240  Biso   1.000  N
  N21      1.0000 0.65290  0.58526  0.60360  Biso   1.000  N
  N22      1.0000 0.75780  0.67499  0.70200  Biso   1.000  N
  N23      1.0000 0.78990  0.73792  0.75510  Biso   1.000  N
  C8       1.0000 0.56390  0.87169  0.84890  Biso   1.000  C
  H9       1.0000 0.44840  0.86240  0.83560  Biso   1.000  H
  C9       1.0000 0.83520  0.86424  0.84800  Biso   1.000  C
  H10      1.0000 0.94480  0.84760  0.83420  Biso   1.000  H
  C10      1.0000 0.88410  0.63200  0.68190  Biso   1.000  C
  H11      1.0000 0.99800  0.63990  0.70760  Biso   1.000  H
  C11      1.0000 0.61560  0.64363  0.65190  Biso   1.000  C
  H12      1.0000 0.50650  0.66180  0.65240  Biso   1.000  H
  C12      1.0000 0.81560  0.00018  0.20920  Biso   1.000  C
  H13      1.0000 0.89720  0.99640  0.13080  Biso   1.000  H
  N24      1.0000 0.65430  0.00013  0.18810  Biso   1.000  N
  N25      1.0000 0.57780  0.00580  0.33140  Biso   1.000  N
  C13      1.0000 0.69630  0.00810  0.43530  Biso   1.000  C
  H14      1.0000 0.68030  0.01040  0.54390  Biso   1.000  H
  N26      1.0000 0.84670  0.00660  0.36430  Biso   1.000  N
  N27      1.0000 0.00540  0.00140  0.42830  Biso   1.000  N
  H15      1.0000 0.89710  0.00440  0.13090  Biso   1.000  H
  N28      1.0000 0.57780  0.99440  0.33150  Biso   1.000  N
  C14      1.0000 0.69640  0.99200  0.43520  Biso   1.000  C
  H16      1.0000 0.68040  0.98970  0.54380  Biso   1.000  H
  N29      1.0000 0.84680  0.99310  0.36410  Biso   1.000  N
  N30      1.0000 0.00560  0.99820  0.42810  Biso   1.000  N
  Cu1      1.0000 0.50000  0.00000  0.00000  Biso   1.000  Cu
  N31      1.0000 0.12640  0.57490  0.40700  Biso   1.000  N
  N32      1.0000 0.29950  0.57854  0.40520  Biso   1.000  N
  N33      1.0000 0.19050  0.66830  0.31070  Biso   1.000  N
  N34      1.0000 0.15780  0.73176  0.25690  Biso   1.000  N
  N35      1.0000 0.32600  0.92163  0.12240  Biso   1.000  N
  N36      1.0000 0.15290  0.91474  0.10360  Biso   1.000  N
  N37      1.0000 0.25780  0.82501  0.20200  Biso   1.000  N
  N38      1.0000 0.28990  0.76208  0.25510  Biso   1.000  N
  C15      1.0000 0.06390  0.62831  0.34890  Biso   1.000  C
  H17      1.0000 0.94840  0.63760  0.33560  Biso   1.000  H
  C16      1.0000 0.33520  0.63576  0.34800  Biso   1.000  C
  H18      1.0000 0.44480  0.65240  0.33420  Biso   1.000  H
  C17      1.0000 0.38410  0.86800  0.18190  Biso   1.000  C
  H19      1.0000 0.49800  0.86010  0.20760  Biso   1.000  H
  C18      1.0000 0.11560  0.85637  0.15190  Biso   1.000  C
  H20      1.0000 0.00650  0.83820  0.15240  Biso   1.000  H
  C19      1.0000 0.31560  0.49982  0.70920  Biso   1.000  C
  H21      1.0000 0.39720  0.50360  0.63080  Biso   1.000  H
  N39      1.0000 0.15430  0.49987  0.68810  Biso   1.000  N
  N40      1.0000 0.07780  0.49420  0.83140  Biso   1.000  N
  C20      1.0000 0.19630  0.49190  0.93530  Biso   1.000  C
  H22      1.0000 0.18030  0.48960  0.04390  Biso   1.000  H
  N41      1.0000 0.34670  0.49340  0.86430  Biso   1.000  N
  N42      1.0000 0.50540  0.49860  0.92830  Biso   1.000  N
  H23      1.0000 0.39710  0.49560  0.63090  Biso   1.000  H
  N43      1.0000 0.07780  0.50560  0.83150  Biso   1.000  N
  C21      1.0000 0.19640  0.50800  0.93520  Biso   1.000  C
  H24      1.0000 0.18040  0.51030  0.04380  Biso   1.000  H
  N44      1.0000 0.34680  0.50690  0.86410  Biso   1.000  N
  N45      1.0000 0.50560  0.50180  0.92810  Biso   1.000  N
  N46      1.0000 0.87360  0.42510  0.59300  Biso   1.000  N
  N47      1.0000 0.70050  0.42146  0.59480  Biso   1.000  N
  N48      1.0000 0.80950  0.33170  0.68930  Biso   1.000  N
  N49      1.0000 0.84220  0.26824  0.74310  Biso   1.000  N
  N50      1.0000 0.67400  0.07837  0.87760  Biso   1.000  N
  N51      1.0000 0.84710  0.08526  0.89640  Biso   1.000  N
  N52      1.0000 0.74220  0.17499  0.79800  Biso   1.000  N
  N53      1.0000 0.71010  0.23792  0.74490  Biso   1.000  N
  C22      1.0000 0.93610  0.37169  0.65110  Biso   1.000  C
  H25      1.0000 0.05160  0.36240  0.66440  Biso   1.000  H
  C23      1.0000 0.66480  0.36424  0.65200  Biso   1.000  C
  H26      1.0000 0.55520  0.34760  0.66580  Biso   1.000  H
  C24      1.0000 0.61590  0.13200  0.81810  Biso   1.000  C
  H27      1.0000 0.50200  0.13990  0.79240  Biso   1.000  H
  C25      1.0000 0.88440  0.14363  0.84810  Biso   1.000  C
  H28      1.0000 0.99350  0.16180  0.84760  Biso   1.000  H
  C26      1.0000 0.68440  0.50018  0.29080  Biso   1.000  C
  H29      1.0000 0.60280  0.49640  0.36920  Biso   1.000  H
  N54      1.0000 0.84570  0.50013  0.31190  Biso   1.000  N
  N55      1.0000 0.92220  0.50580  0.16860  Biso   1.000  N
  C27      1.0000 0.80370  0.50810  0.06470  Biso   1.000  C
  H30      1.0000 0.81970  0.51040  0.95610  Biso   1.000  H
  N56      1.0000 0.65330  0.50660  0.13570  Biso   1.000  N
  N57      1.0000 0.49460  0.50140  0.07170  Biso   1.000  N
  H31      1.0000 0.60290  0.50440  0.36910  Biso   1.000  H
  N58      1.0000 0.92220  0.49440  0.16850  Biso   1.000  N
  C28      1.0000 0.80360  0.49200  0.06480  Biso   1.000  C
  H32      1.0000 0.81960  0.48970  0.95620  Biso   1.000  H
  N59      1.0000 0.65320  0.49310  0.13590  Biso   1.000  N
  N60      1.0000 0.49440  0.49820  0.07190  Biso   1.000  N
  Cu2      1.0000 0.00000  0.50000  0.50000  Biso   1.000  Cu
