data_image0
_cell_length_a       15.1644
_cell_length_b       15.1644
_cell_length_c       19.043
_cell_angle_alpha    90
_cell_angle_beta     90
_cell_angle_gamma    90

_symmetry_space_group_name_H-M    "P 1"
_symmetry_int_tables_number       1

loop_
  _symmetry_equiv_pos_as_xyz
  'x, y, z'

loop_
  _atom_site_label
  _atom_site_occupancy
  _atom_site_fract_x
  _atom_site_fract_y
  _atom_site_fract_z
  _atom_site_thermal_displace_type
  _atom_site_B_iso_or_equiv
  _atom_site_type_symbol
  C1       1.0000 0.25980  0.17590  0.43734  Biso   1.000  C
  H1       1.0000 0.23960  0.15320  0.39490  Biso   1.000  H
  O1       1.0000 0.11800  0.06060  0.44161  Biso   1.000  O
  C2       1.0000 0.92570  0.05800  0.29150  Biso   1.000  C
  C3       1.0000 0.96300  0.08720  0.28990  Biso   1.000  C
  C4       1.0000 0.01200  0.09220  0.29140  Biso   1.000  C
  C5       1.0000 0.75980  0.67590  0.93734  Biso   1.000  C
  H2       1.0000 0.73960  0.65320  0.89490  Biso   1.000  H
  O2       1.0000 0.61800  0.56060  0.94161  Biso   1.000  O
  C6       1.0000 0.42570  0.55800  0.79150  Biso   1.000  C
  C7       1.0000 0.46300  0.58720  0.78990  Biso   1.000  C
  C8       1.0000 0.51200  0.59220  0.79140  Biso   1.000  C
  C9       1.0000 0.74020  0.82410  0.43734  Biso   1.000  C
  H3       1.0000 0.76040  0.84680  0.39490  Biso   1.000  H
  O3       1.0000 0.88200  0.93940  0.44161  Biso   1.000  O
  C10      1.0000 0.07430  0.94200  0.29150  Biso   1.000  C
  C11      1.0000 0.03700  0.91280  0.28990  Biso   1.000  C
  C12      1.0000 0.98800  0.90780  0.29140  Biso   1.000  C
  C13      1.0000 0.24020  0.32410  0.93734  Biso   1.000  C
  H4       1.0000 0.26040  0.34680  0.89490  Biso   1.000  H
  O4       1.0000 0.38200  0.43940  0.94161  Biso   1.000  O
  C14      1.0000 0.57430  0.44200  0.79150  Biso   1.000  C
  C15      1.0000 0.53700  0.41280  0.78990  Biso   1.000  C
  C16      1.0000 0.48800  0.40780  0.79140  Biso   1.000  C
  C17      1.0000 0.82410  0.25980  0.43734  Biso   1.000  C
  H5       1.0000 0.84680  0.23960  0.39490  Biso   1.000  H
  O5       1.0000 0.93940  0.11800  0.44161  Biso   1.000  O
  C18      1.0000 0.94200  0.92570  0.29150  Biso   1.000  C
  C19      1.0000 0.91280  0.96300  0.28990  Biso   1.000  C
  C20      1.0000 0.90780  0.01200  0.29140  Biso   1.000  C
  C21      1.0000 0.32410  0.75980  0.93734  Biso   1.000  C
  H6       1.0000 0.34680  0.73960  0.89490  Biso   1.000  H
  O6       1.0000 0.43940  0.61800  0.94161  Biso   1.000  O
  C22      1.0000 0.44200  0.42570  0.79150  Biso   1.000  C
  C23      1.0000 0.41280  0.46300  0.78990  Biso   1.000  C
  C24      1.0000 0.40780  0.51200  0.79140  Biso   1.000  C
  C25      1.0000 0.17590  0.74020  0.43734  Biso   1.000  C
  H7       1.0000 0.15320  0.76040  0.39490  Biso   1.000  H
  O7       1.0000 0.06060  0.88200  0.44161  Biso   1.000  O
  C26      1.0000 0.05800  0.07430  0.29150  Biso   1.000  C
  C27      1.0000 0.08720  0.03700  0.28990  Biso   1.000  C
  C28      1.0000 0.09220  0.98800  0.29140  Biso   1.000  C
  C29      1.0000 0.67590  0.24020  0.93734  Biso   1.000  C
  H8       1.0000 0.65320  0.26040  0.89490  Biso   1.000  H
  O8       1.0000 0.56060  0.38200  0.94161  Biso   1.000  O
  C30      1.0000 0.55800  0.57430  0.79150  Biso   1.000  C
  C31      1.0000 0.58720  0.53700  0.78990  Biso   1.000  C
  C32      1.0000 0.59220  0.48800  0.79140  Biso   1.000  C
  C33      1.0000 0.74020  0.17590  0.06266  Biso   1.000  C
  H9       1.0000 0.76040  0.15320  0.10510  Biso   1.000  H
  O9       1.0000 0.88200  0.06060  0.05839  Biso   1.000  O
  C34      1.0000 0.07430  0.05800  0.20850  Biso   1.000  C
  C35      1.0000 0.03700  0.08720  0.21010  Biso   1.000  C
  C36      1.0000 0.98800  0.09220  0.20860  Biso   1.000  C
  C37      1.0000 0.24020  0.67590  0.56266  Biso   1.000  C
  H10      1.0000 0.26040  0.65320  0.60510  Biso   1.000  H
  O10      1.0000 0.38200  0.56060  0.55839  Biso   1.000  O
  C38      1.0000 0.57430  0.55800  0.70850  Biso   1.000  C
  C39      1.0000 0.53700  0.58720  0.71010  Biso   1.000  C
  C40      1.0000 0.48800  0.59220  0.70860  Biso   1.000  C
  C41      1.0000 0.25980  0.82410  0.06266  Biso   1.000  C
  H11      1.0000 0.23960  0.84680  0.10510  Biso   1.000  H
  O11      1.0000 0.11800  0.93940  0.05839  Biso   1.000  O
  C42      1.0000 0.92570  0.94200  0.20850  Biso   1.000  C
  C43      1.0000 0.96300  0.91280  0.21010  Biso   1.000  C
  C44      1.0000 0.01200  0.90780  0.20860  Biso   1.000  C
  C45      1.0000 0.75980  0.32410  0.56266  Biso   1.000  C
  H12      1.0000 0.73960  0.34680  0.60510  Biso   1.000  H
  O12      1.0000 0.61800  0.43940  0.55839  Biso   1.000  O
  C46      1.0000 0.42570  0.44200  0.70850  Biso   1.000  C
  C47      1.0000 0.46300  0.41280  0.71010  Biso   1.000  C
  C48      1.0000 0.51200  0.40780  0.70860  Biso   1.000  C
  C49      1.0000 0.17590  0.25980  0.06266  Biso   1.000  C
  H13      1.0000 0.15320  0.23960  0.10510  Biso   1.000  H
  O13      1.0000 0.06060  0.11800  0.05839  Biso   1.000  O
  C50      1.0000 0.05800  0.92570  0.20850  Biso   1.000  C
  C51      1.0000 0.08720  0.96300  0.21010  Biso   1.000  C
  C52      1.0000 0.09220  0.01200  0.20860  Biso   1.000  C
  C53      1.0000 0.67590  0.75980  0.56266  Biso   1.000  C
  H14      1.0000 0.65320  0.73960  0.60510  Biso   1.000  H
  O14      1.0000 0.56060  0.61800  0.55839  Biso   1.000  O
  C54      1.0000 0.55800  0.42570  0.70850  Biso   1.000  C
  C55      1.0000 0.58720  0.46300  0.71010  Biso   1.000  C
  C56      1.0000 0.59220  0.51200  0.70860  Biso   1.000  C
  C57      1.0000 0.82410  0.74020  0.06266  Biso   1.000  C
  H15      1.0000 0.84680  0.76040  0.10510  Biso   1.000  H
  O15      1.0000 0.93940  0.88200  0.05839  Biso   1.000  O
  C58      1.0000 0.94200  0.07430  0.20850  Biso   1.000  C
  C59      1.0000 0.91280  0.03700  0.21010  Biso   1.000  C
  C60      1.0000 0.90780  0.98800  0.20860  Biso   1.000  C
  C61      1.0000 0.32410  0.24020  0.56266  Biso   1.000  C
  H16      1.0000 0.34680  0.26040  0.60510  Biso   1.000  H
  O16      1.0000 0.43940  0.38200  0.55839  Biso   1.000  O
  C62      1.0000 0.44200  0.57430  0.70850  Biso   1.000  C
  C63      1.0000 0.41280  0.53700  0.71010  Biso   1.000  C
  C64      1.0000 0.40780  0.48800  0.70860  Biso   1.000  C
  C65      1.0000 0.74020  0.82410  0.56266  Biso   1.000  C
  H17      1.0000 0.76040  0.84680  0.60510  Biso   1.000  H
  O17      1.0000 0.88200  0.93940  0.55839  Biso   1.000  O
  C66      1.0000 0.07430  0.94200  0.70850  Biso   1.000  C
  C67      1.0000 0.03700  0.91280  0.71010  Biso   1.000  C
  C68      1.0000 0.98800  0.90780  0.70860  Biso   1.000  C
  C69      1.0000 0.24020  0.32410  0.06266  Biso   1.000  C
  H18      1.0000 0.26040  0.34680  0.10510  Biso   1.000  H
  O18      1.0000 0.38200  0.43940  0.05839  Biso   1.000  O
  C70      1.0000 0.57430  0.44200  0.20850  Biso   1.000  C
  C71      1.0000 0.53700  0.41280  0.21010  Biso   1.000  C
  C72      1.0000 0.48800  0.40780  0.20860  Biso   1.000  C
  C73      1.0000 0.25980  0.17590  0.56266  Biso   1.000  C
  H19      1.0000 0.23960  0.15320  0.60510  Biso   1.000  H
  O19      1.0000 0.11800  0.06060  0.55839  Biso   1.000  O
  C74      1.0000 0.92570  0.05800  0.70850  Biso   1.000  C
  C75      1.0000 0.96300  0.08720  0.71010  Biso   1.000  C
  C76      1.0000 0.01200  0.09220  0.70860  Biso   1.000  C
  C77      1.0000 0.75980  0.67590  0.06266  Biso   1.000  C
  H20      1.0000 0.73960  0.65320  0.10510  Biso   1.000  H
  O20      1.0000 0.61800  0.56060  0.05839  Biso   1.000  O
  C78      1.0000 0.42570  0.55800  0.20850  Biso   1.000  C
  C79      1.0000 0.46300  0.58720  0.21010  Biso   1.000  C
  C80      1.0000 0.51200  0.59220  0.20860  Biso   1.000  C
  C81      1.0000 0.17590  0.74020  0.56266  Biso   1.000  C
  H21      1.0000 0.15320  0.76040  0.60510  Biso   1.000  H
  O21      1.0000 0.06060  0.88200  0.55839  Biso   1.000  O
  C82      1.0000 0.05800  0.07430  0.70850  Biso   1.000  C
  C83      1.0000 0.08720  0.03700  0.71010  Biso   1.000  C
  C84      1.0000 0.09220  0.98800  0.70860  Biso   1.000  C
  C85      1.0000 0.67590  0.24020  0.06266  Biso   1.000  C
  H22      1.0000 0.65320  0.26040  0.10510  Biso   1.000  H
  O22      1.0000 0.56060  0.38200  0.05839  Biso   1.000  O
  C86      1.0000 0.55800  0.57430  0.20850  Biso   1.000  C
  C87      1.0000 0.58720  0.53700  0.21010  Biso   1.000  C
  C88      1.0000 0.59220  0.48800  0.20860  Biso   1.000  C
  C89      1.0000 0.82410  0.25980  0.56266  Biso   1.000  C
  H23      1.0000 0.84680  0.23960  0.60510  Biso   1.000  H
  O23      1.0000 0.93940  0.11800  0.55839  Biso   1.000  O
  C90      1.0000 0.94200  0.92570  0.70850  Biso   1.000  C
  C91      1.0000 0.91280  0.96300  0.71010  Biso   1.000  C
  C92      1.0000 0.90780  0.01200  0.70860  Biso   1.000  C
  C93      1.0000 0.32410  0.75980  0.06266  Biso   1.000  C
  H24      1.0000 0.34680  0.73960  0.10510  Biso   1.000  H
  O24      1.0000 0.43940  0.61800  0.05839  Biso   1.000  O
  C94      1.0000 0.44200  0.42570  0.20850  Biso   1.000  C
  C95      1.0000 0.41280  0.46300  0.21010  Biso   1.000  C
  C96      1.0000 0.40780  0.51200  0.20860  Biso   1.000  C
  C97      1.0000 0.25980  0.82410  0.93734  Biso   1.000  C
  H25      1.0000 0.23960  0.84680  0.89490  Biso   1.000  H
  O25      1.0000 0.11800  0.93940  0.94161  Biso   1.000  O
  C98      1.0000 0.92570  0.94200  0.79150  Biso   1.000  C
  C99      1.0000 0.96300  0.91280  0.78990  Biso   1.000  C
  C100     1.0000 0.01200  0.90780  0.79140  Biso   1.000  C
  C101     1.0000 0.75980  0.32410  0.43734  Biso   1.000  C
  H26      1.0000 0.73960  0.34680  0.39490  Biso   1.000  H
  O26      1.0000 0.61800  0.43940  0.44161  Biso   1.000  O
  C102     1.0000 0.42570  0.44200  0.29150  Biso   1.000  C
  C103     1.0000 0.46300  0.41280  0.28990  Biso   1.000  C
  C104     1.0000 0.51200  0.40780  0.29140  Biso   1.000  C
  C105     1.0000 0.74020  0.17590  0.93734  Biso   1.000  C
  H27      1.0000 0.76040  0.15320  0.89490  Biso   1.000  H
  O27      1.0000 0.88200  0.06060  0.94161  Biso   1.000  O
  C106     1.0000 0.07430  0.05800  0.79150  Biso   1.000  C
  C107     1.0000 0.03700  0.08720  0.78990  Biso   1.000  C
  C108     1.0000 0.98800  0.09220  0.79140  Biso   1.000  C
  C109     1.0000 0.24020  0.67590  0.43734  Biso   1.000  C
  H28      1.0000 0.26040  0.65320  0.39490  Biso   1.000  H
  O28      1.0000 0.38200  0.56060  0.44161  Biso   1.000  O
  C110     1.0000 0.57430  0.55800  0.29150  Biso   1.000  C
  C111     1.0000 0.53700  0.58720  0.28990  Biso   1.000  C
  C112     1.0000 0.48800  0.59220  0.29140  Biso   1.000  C
  C113     1.0000 0.82410  0.74020  0.93734  Biso   1.000  C
  H29      1.0000 0.84680  0.76040  0.89490  Biso   1.000  H
  O29      1.0000 0.93940  0.88200  0.94161  Biso   1.000  O
  C114     1.0000 0.94200  0.07430  0.79150  Biso   1.000  C
  C115     1.0000 0.91280  0.03700  0.78990  Biso   1.000  C
  C116     1.0000 0.90780  0.98800  0.79140  Biso   1.000  C
  C117     1.0000 0.32410  0.24020  0.43734  Biso   1.000  C
  H30      1.0000 0.34680  0.26040  0.39490  Biso   1.000  H
  O30      1.0000 0.43940  0.38200  0.44161  Biso   1.000  O
  C118     1.0000 0.44200  0.57430  0.29150  Biso   1.000  C
  C119     1.0000 0.41280  0.53700  0.28990  Biso   1.000  C
  C120     1.0000 0.40780  0.48800  0.29140  Biso   1.000  C
  C121     1.0000 0.17590  0.25980  0.93734  Biso   1.000  C
  H31      1.0000 0.15320  0.23960  0.89490  Biso   1.000  H
  O31      1.0000 0.06060  0.11800  0.94161  Biso   1.000  O
  C122     1.0000 0.05800  0.92570  0.79150  Biso   1.000  C
  C123     1.0000 0.08720  0.96300  0.78990  Biso   1.000  C
  C124     1.0000 0.09220  0.01200  0.79140  Biso   1.000  C
  C125     1.0000 0.67590  0.75980  0.43734  Biso   1.000  C
  H32      1.0000 0.65320  0.73960  0.39490  Biso   1.000  H
  O32      1.0000 0.56060  0.61800  0.44161  Biso   1.000  O
  C126     1.0000 0.55800  0.42570  0.29150  Biso   1.000  C
  C127     1.0000 0.58720  0.46300  0.28990  Biso   1.000  C
  C128     1.0000 0.59220  0.51200  0.29140  Biso   1.000  C
  Co1      1.0000 0.00000  0.00000  0.42791  Biso   1.000  Co
  N1       1.0000 0.00000  0.00000  0.31760  Biso   1.000  N
  Co2      1.0000 0.50000  0.50000  0.92791  Biso   1.000  Co
  N2       1.0000 0.50000  0.50000  0.81760  Biso   1.000  N
  Co3      1.0000 0.00000  0.00000  0.07209  Biso   1.000  Co
  N3       1.0000 0.00000  0.00000  0.18240  Biso   1.000  N
  Co4      1.0000 0.50000  0.50000  0.57209  Biso   1.000  Co
  N4       1.0000 0.50000  0.50000  0.68240  Biso   1.000  N
  Co5      1.0000 0.00000  0.00000  0.57209  Biso   1.000  Co
  N5       1.0000 0.00000  0.00000  0.68240  Biso   1.000  N
  Co6      1.0000 0.50000  0.50000  0.07209  Biso   1.000  Co
  N6       1.0000 0.50000  0.50000  0.18240  Biso   1.000  N
  Co7      1.0000 0.00000  0.00000  0.92791  Biso   1.000  Co
  N7       1.0000 0.00000  0.00000  0.81760  Biso   1.000  N
  Co8      1.0000 0.50000  0.50000  0.42791  Biso   1.000  Co
  N8       1.0000 0.50000  0.50000  0.31760  Biso   1.000  N
  C129     1.0000 0.14860  0.08320  0.50000  Biso   1.000  C
  C130     1.0000 0.22500  0.14470  0.50000  Biso   1.000  C
  C131     1.0000 0.64860  0.58320  0.00000  Biso   1.000  C
  C132     1.0000 0.72500  0.64470  0.00000  Biso   1.000  C
  C133     1.0000 0.85140  0.91680  0.50000  Biso   1.000  C
  C134     1.0000 0.77500  0.85530  0.50000  Biso   1.000  C
  C135     1.0000 0.35140  0.41680  0.00000  Biso   1.000  C
  C136     1.0000 0.27500  0.35530  0.00000  Biso   1.000  C
  C137     1.0000 0.91680  0.14860  0.50000  Biso   1.000  C
  C138     1.0000 0.85530  0.22500  0.50000  Biso   1.000  C
  C139     1.0000 0.41680  0.64860  0.00000  Biso   1.000  C
  C140     1.0000 0.35530  0.72500  0.00000  Biso   1.000  C
  C141     1.0000 0.08320  0.85140  0.50000  Biso   1.000  C
  C142     1.0000 0.14470  0.77500  0.50000  Biso   1.000  C
  C143     1.0000 0.58320  0.35140  0.00000  Biso   1.000  C
  C144     1.0000 0.64470  0.27500  0.00000  Biso   1.000  C
  C145     1.0000 0.85140  0.08320  0.00000  Biso   1.000  C
  C146     1.0000 0.77500  0.14470  0.00000  Biso   1.000  C
  C147     1.0000 0.35140  0.58320  0.50000  Biso   1.000  C
  C148     1.0000 0.27500  0.64470  0.50000  Biso   1.000  C
  C149     1.0000 0.14860  0.91680  0.00000  Biso   1.000  C
  C150     1.0000 0.22500  0.85530  0.00000  Biso   1.000  C
  C151     1.0000 0.64860  0.41680  0.50000  Biso   1.000  C
  C152     1.0000 0.72500  0.35530  0.50000  Biso   1.000  C
  C153     1.0000 0.08320  0.14860  0.00000  Biso   1.000  C
  C154     1.0000 0.14470  0.22500  0.00000  Biso   1.000  C
  C155     1.0000 0.58320  0.64860  0.50000  Biso   1.000  C
  C156     1.0000 0.64470  0.72500  0.50000  Biso   1.000  C
  C157     1.0000 0.91680  0.85140  0.00000  Biso   1.000  C
  C158     1.0000 0.85530  0.77500  0.00000  Biso   1.000  C
  C159     1.0000 0.41680  0.35140  0.50000  Biso   1.000  C
  C160     1.0000 0.35530  0.27500  0.50000  Biso   1.000  C
