data_image0
_cell_length_a       11.2163
_cell_length_b       11.2163
_cell_length_c       18.286
_cell_angle_alpha    90
_cell_angle_beta     90
_cell_angle_gamma    90

_symmetry_space_group_name_H-M    "P 1"
_symmetry_int_tables_number       1

loop_
  _symmetry_equiv_pos_as_xyz
  'x, y, z'

loop_
  _atom_site_label
  _atom_site_occupancy
  _atom_site_fract_x
  _atom_site_fract_y
  _atom_site_fract_z
  _atom_site_thermal_displace_type
  _atom_site_B_iso_or_equiv
  _atom_site_type_symbol
  N1       1.0000 0.41420  0.14580  0.31800  Biso   1.000  N
  C1       1.0000 0.34550  0.21380  0.33710  Biso   1.000  C
  C2       1.0000 0.25680  0.30040  0.36200  Biso   1.000  C
  H1       1.0000 0.19410  0.30930  0.32430  Biso   1.000  H
  H2       1.0000 0.29540  0.37900  0.36890  Biso   1.000  H
  C3       1.0000 0.19940  0.25950  0.43500  Biso   1.000  C
  H3       1.0000 0.16470  0.17800  0.42850  Biso   1.000  H
  C4       1.0000 0.10010  0.34640  0.45920  Biso   1.000  C
  H4       1.0000 0.11630  0.42750  0.44030  Biso   1.000  H
  H5       1.0000 0.02180  0.31960  0.44030  Biso   1.000  H
  N2       1.0000 0.35210  0.08580  0.18180  Biso   1.000  N
  C5       1.0000 0.28390  0.15510  0.16360  Biso   1.000  C
  C6       1.0000 0.19730  0.24320  0.13810  Biso   1.000  C
  H6       1.0000 0.18750  0.30590  0.17570  Biso   1.000  H
  H7       1.0000 0.11910  0.20410  0.13070  Biso   1.000  H
  C7       1.0000 0.23910  0.30070  0.06530  Biso   1.000  C
  H8       1.0000 0.32090  0.33430  0.07190  Biso   1.000  H
  C8       1.0000 0.15300  0.40120  0.04130  Biso   1.000  C
  H9       1.0000 0.07210  0.38600  0.06020  Biso   1.000  H
  H10      1.0000 0.18120  0.47910  0.06020  Biso   1.000  H
  N3       1.0000 0.91420  0.64580  0.81800  Biso   1.000  N
  C9       1.0000 0.84550  0.71380  0.83710  Biso   1.000  C
  C10      1.0000 0.75680  0.80040  0.86200  Biso   1.000  C
  H11      1.0000 0.69410  0.80930  0.82430  Biso   1.000  H
  H12      1.0000 0.79540  0.87900  0.86890  Biso   1.000  H
  C11      1.0000 0.69940  0.75950  0.93500  Biso   1.000  C
  H13      1.0000 0.66470  0.67800  0.92850  Biso   1.000  H
  C12      1.0000 0.60010  0.84640  0.95920  Biso   1.000  C
  H14      1.0000 0.61630  0.92750  0.94030  Biso   1.000  H
  H15      1.0000 0.52180  0.81960  0.94030  Biso   1.000  H
  N4       1.0000 0.85210  0.58580  0.68180  Biso   1.000  N
  C13      1.0000 0.78390  0.65510  0.66360  Biso   1.000  C
  C14      1.0000 0.69730  0.74320  0.63810  Biso   1.000  C
  H16      1.0000 0.68750  0.80590  0.67570  Biso   1.000  H
  H17      1.0000 0.61910  0.70410  0.63070  Biso   1.000  H
  C15      1.0000 0.73910  0.80070  0.56530  Biso   1.000  C
  H18      1.0000 0.82090  0.83430  0.57190  Biso   1.000  H
  C16      1.0000 0.65300  0.90120  0.54130  Biso   1.000  C
  H19      1.0000 0.57210  0.88600  0.56020  Biso   1.000  H
  H20      1.0000 0.68120  0.97910  0.56020  Biso   1.000  H
  N5       1.0000 0.58580  0.85420  0.31800  Biso   1.000  N
  C17      1.0000 0.65450  0.78620  0.33710  Biso   1.000  C
  C18      1.0000 0.74320  0.69960  0.36200  Biso   1.000  C
  H21      1.0000 0.80590  0.69070  0.32430  Biso   1.000  H
  H22      1.0000 0.70460  0.62100  0.36890  Biso   1.000  H
  C19      1.0000 0.80060  0.74050  0.43500  Biso   1.000  C
  H23      1.0000 0.83530  0.82200  0.42850  Biso   1.000  H
  C20      1.0000 0.89990  0.65360  0.45920  Biso   1.000  C
  H24      1.0000 0.88370  0.57250  0.44030  Biso   1.000  H
  H25      1.0000 0.97820  0.68040  0.44030  Biso   1.000  H
  N6       1.0000 0.64790  0.91420  0.18180  Biso   1.000  N
  C21      1.0000 0.71610  0.84490  0.16360  Biso   1.000  C
  C22      1.0000 0.80270  0.75680  0.13810  Biso   1.000  C
  H26      1.0000 0.81250  0.69410  0.17570  Biso   1.000  H
  H27      1.0000 0.88090  0.79590  0.13070  Biso   1.000  H
  C23      1.0000 0.76090  0.69930  0.06530  Biso   1.000  C
  H28      1.0000 0.67910  0.66570  0.07190  Biso   1.000  H
  C24      1.0000 0.84700  0.59880  0.04130  Biso   1.000  C
  H29      1.0000 0.92790  0.61400  0.06020  Biso   1.000  H
  H30      1.0000 0.81880  0.52090  0.06020  Biso   1.000  H
  N7       1.0000 0.08580  0.35420  0.81800  Biso   1.000  N
  C25      1.0000 0.15450  0.28620  0.83710  Biso   1.000  C
  C26      1.0000 0.24320  0.19960  0.86200  Biso   1.000  C
  H31      1.0000 0.30590  0.19070  0.82430  Biso   1.000  H
  H32      1.0000 0.20460  0.12100  0.86890  Biso   1.000  H
  C27      1.0000 0.30060  0.24050  0.93500  Biso   1.000  C
  H33      1.0000 0.33530  0.32200  0.92850  Biso   1.000  H
  C28      1.0000 0.39990  0.15360  0.95920  Biso   1.000  C
  H34      1.0000 0.38370  0.07250  0.94030  Biso   1.000  H
  H35      1.0000 0.47820  0.18040  0.94030  Biso   1.000  H
  N8       1.0000 0.14790  0.41420  0.68180  Biso   1.000  N
  C29      1.0000 0.21610  0.34490  0.66360  Biso   1.000  C
  C30      1.0000 0.30270  0.25680  0.63810  Biso   1.000  C
  H36      1.0000 0.31250  0.19410  0.67570  Biso   1.000  H
  H37      1.0000 0.38090  0.29590  0.63070  Biso   1.000  H
  C31      1.0000 0.26090  0.19930  0.56530  Biso   1.000  C
  H38      1.0000 0.17910  0.16570  0.57190  Biso   1.000  H
  C32      1.0000 0.34700  0.09880  0.54130  Biso   1.000  C
  H39      1.0000 0.42790  0.11400  0.56020  Biso   1.000  H
  H40      1.0000 0.31880  0.02090  0.56020  Biso   1.000  H
  N9       1.0000 0.85420  0.41420  0.31800  Biso   1.000  N
  C33      1.0000 0.78620  0.34550  0.33710  Biso   1.000  C
  C34      1.0000 0.69960  0.25680  0.36200  Biso   1.000  C
  H41      1.0000 0.69070  0.19410  0.32430  Biso   1.000  H
  H42      1.0000 0.62100  0.29540  0.36890  Biso   1.000  H
  C35      1.0000 0.74050  0.19940  0.43500  Biso   1.000  C
  H43      1.0000 0.82200  0.16470  0.42850  Biso   1.000  H
  C36      1.0000 0.65360  0.10010  0.45920  Biso   1.000  C
  H44      1.0000 0.57250  0.11630  0.44030  Biso   1.000  H
  H45      1.0000 0.68040  0.02180  0.44030  Biso   1.000  H
  N10      1.0000 0.91420  0.35210  0.18180  Biso   1.000  N
  C37      1.0000 0.84490  0.28390  0.16360  Biso   1.000  C
  C38      1.0000 0.75680  0.19730  0.13810  Biso   1.000  C
  H46      1.0000 0.69410  0.18750  0.17570  Biso   1.000  H
  H47      1.0000 0.79590  0.11910  0.13070  Biso   1.000  H
  C39      1.0000 0.69930  0.23910  0.06530  Biso   1.000  C
  H48      1.0000 0.66570  0.32090  0.07190  Biso   1.000  H
  C40      1.0000 0.59880  0.15300  0.04130  Biso   1.000  C
  H49      1.0000 0.61400  0.07210  0.06020  Biso   1.000  H
  H50      1.0000 0.52090  0.18120  0.06020  Biso   1.000  H
  N11      1.0000 0.35420  0.91420  0.81800  Biso   1.000  N
  C41      1.0000 0.28620  0.84550  0.83710  Biso   1.000  C
  C42      1.0000 0.19960  0.75680  0.86200  Biso   1.000  C
  H51      1.0000 0.19070  0.69410  0.82430  Biso   1.000  H
  H52      1.0000 0.12100  0.79540  0.86890  Biso   1.000  H
  C43      1.0000 0.24050  0.69940  0.93500  Biso   1.000  C
  H53      1.0000 0.32200  0.66470  0.92850  Biso   1.000  H
  C44      1.0000 0.15360  0.60010  0.95920  Biso   1.000  C
  H54      1.0000 0.07250  0.61630  0.94030  Biso   1.000  H
  H55      1.0000 0.18040  0.52180  0.94030  Biso   1.000  H
  N12      1.0000 0.41420  0.85210  0.68180  Biso   1.000  N
  C45      1.0000 0.34490  0.78390  0.66360  Biso   1.000  C
  C46      1.0000 0.25680  0.69730  0.63810  Biso   1.000  C
  H56      1.0000 0.19410  0.68750  0.67570  Biso   1.000  H
  H57      1.0000 0.29590  0.61910  0.63070  Biso   1.000  H
  C47      1.0000 0.19930  0.73910  0.56530  Biso   1.000  C
  H58      1.0000 0.16570  0.82090  0.57190  Biso   1.000  H
  C48      1.0000 0.09880  0.65300  0.54130  Biso   1.000  C
  H59      1.0000 0.11400  0.57210  0.56020  Biso   1.000  H
  H60      1.0000 0.02090  0.68120  0.56020  Biso   1.000  H
  N13      1.0000 0.14580  0.58580  0.31800  Biso   1.000  N
  C49      1.0000 0.21380  0.65450  0.33710  Biso   1.000  C
  C50      1.0000 0.30040  0.74320  0.36200  Biso   1.000  C
  H61      1.0000 0.30930  0.80590  0.32430  Biso   1.000  H
  H62      1.0000 0.37900  0.70460  0.36890  Biso   1.000  H
  C51      1.0000 0.25950  0.80060  0.43500  Biso   1.000  C
  H63      1.0000 0.17800  0.83530  0.42850  Biso   1.000  H
  C52      1.0000 0.34640  0.89990  0.45920  Biso   1.000  C
  H64      1.0000 0.42750  0.88370  0.44030  Biso   1.000  H
  H65      1.0000 0.31960  0.97820  0.44030  Biso   1.000  H
  N14      1.0000 0.08580  0.64790  0.18180  Biso   1.000  N
  C53      1.0000 0.15510  0.71610  0.16360  Biso   1.000  C
  C54      1.0000 0.24320  0.80270  0.13810  Biso   1.000  C
  H66      1.0000 0.30590  0.81250  0.17570  Biso   1.000  H
  H67      1.0000 0.20410  0.88090  0.13070  Biso   1.000  H
  C55      1.0000 0.30070  0.76090  0.06530  Biso   1.000  C
  H68      1.0000 0.33430  0.67910  0.07190  Biso   1.000  H
  C56      1.0000 0.40120  0.84700  0.04130  Biso   1.000  C
  H69      1.0000 0.38600  0.92790  0.06020  Biso   1.000  H
  H70      1.0000 0.47910  0.81880  0.06020  Biso   1.000  H
  N15      1.0000 0.64580  0.08580  0.81800  Biso   1.000  N
  C57      1.0000 0.71380  0.15450  0.83710  Biso   1.000  C
  C58      1.0000 0.80040  0.24320  0.86200  Biso   1.000  C
  H71      1.0000 0.80930  0.30590  0.82430  Biso   1.000  H
  H72      1.0000 0.87900  0.20460  0.86890  Biso   1.000  H
  C59      1.0000 0.75950  0.30060  0.93500  Biso   1.000  C
  H73      1.0000 0.67800  0.33530  0.92850  Biso   1.000  H
  C60      1.0000 0.84640  0.39990  0.95920  Biso   1.000  C
  H74      1.0000 0.92750  0.38370  0.94030  Biso   1.000  H
  H75      1.0000 0.81960  0.47820  0.94030  Biso   1.000  H
  N16      1.0000 0.58580  0.14790  0.68180  Biso   1.000  N
  C61      1.0000 0.65510  0.21610  0.66360  Biso   1.000  C
  C62      1.0000 0.74320  0.30270  0.63810  Biso   1.000  C
  H76      1.0000 0.80590  0.31250  0.67570  Biso   1.000  H
  H77      1.0000 0.70410  0.38090  0.63070  Biso   1.000  H
  C63      1.0000 0.80070  0.26090  0.56530  Biso   1.000  C
  H78      1.0000 0.83430  0.17910  0.57190  Biso   1.000  H
  C64      1.0000 0.90120  0.34700  0.54130  Biso   1.000  C
  H79      1.0000 0.88600  0.42790  0.56020  Biso   1.000  H
  H80      1.0000 0.97910  0.31880  0.56020  Biso   1.000  H
  N17      1.0000 0.58580  0.85420  0.68200  Biso   1.000  N
  C65      1.0000 0.65450  0.78620  0.66290  Biso   1.000  C
  C66      1.0000 0.74320  0.69960  0.63800  Biso   1.000  C
  H81      1.0000 0.80590  0.69070  0.67570  Biso   1.000  H
  H82      1.0000 0.70460  0.62100  0.63110  Biso   1.000  H
  C67      1.0000 0.80060  0.74050  0.56500  Biso   1.000  C
  H83      1.0000 0.83530  0.82200  0.57150  Biso   1.000  H
  C68      1.0000 0.89990  0.65360  0.54080  Biso   1.000  C
  H84      1.0000 0.88370  0.57250  0.55970  Biso   1.000  H
  H85      1.0000 0.97820  0.68040  0.55970  Biso   1.000  H
  N18      1.0000 0.64790  0.91420  0.81820  Biso   1.000  N
  C69      1.0000 0.71610  0.84490  0.83640  Biso   1.000  C
  C70      1.0000 0.80270  0.75680  0.86190  Biso   1.000  C
  H86      1.0000 0.81250  0.69410  0.82430  Biso   1.000  H
  H87      1.0000 0.88090  0.79590  0.86930  Biso   1.000  H
  C71      1.0000 0.76090  0.69930  0.93470  Biso   1.000  C
  H88      1.0000 0.67910  0.66570  0.92810  Biso   1.000  H
  C72      1.0000 0.84700  0.59880  0.95870  Biso   1.000  C
  H89      1.0000 0.92790  0.61400  0.93980  Biso   1.000  H
  H90      1.0000 0.81880  0.52090  0.93980  Biso   1.000  H
  N19      1.0000 0.08580  0.35420  0.18200  Biso   1.000  N
  C73      1.0000 0.15450  0.28620  0.16290  Biso   1.000  C
  C74      1.0000 0.24320  0.19960  0.13800  Biso   1.000  C
  H91      1.0000 0.30590  0.19070  0.17570  Biso   1.000  H
  H92      1.0000 0.20460  0.12100  0.13110  Biso   1.000  H
  C75      1.0000 0.30060  0.24050  0.06500  Biso   1.000  C
  H93      1.0000 0.33530  0.32200  0.07150  Biso   1.000  H
  C76      1.0000 0.39990  0.15360  0.04080  Biso   1.000  C
  H94      1.0000 0.38370  0.07250  0.05970  Biso   1.000  H
  H95      1.0000 0.47820  0.18040  0.05970  Biso   1.000  H
  N20      1.0000 0.14790  0.41420  0.31820  Biso   1.000  N
  C77      1.0000 0.21610  0.34490  0.33640  Biso   1.000  C
  C78      1.0000 0.30270  0.25680  0.36190  Biso   1.000  C
  H96      1.0000 0.31250  0.19410  0.32430  Biso   1.000  H
  H97      1.0000 0.38090  0.29590  0.36930  Biso   1.000  H
  C79      1.0000 0.26090  0.19930  0.43470  Biso   1.000  C
  H98      1.0000 0.17910  0.16570  0.42810  Biso   1.000  H
  C80      1.0000 0.34700  0.09880  0.45870  Biso   1.000  C
  H99      1.0000 0.42790  0.11400  0.43980  Biso   1.000  H
  H100     1.0000 0.31880  0.02090  0.43980  Biso   1.000  H
  N21      1.0000 0.41420  0.14580  0.68200  Biso   1.000  N
  C81      1.0000 0.34550  0.21380  0.66290  Biso   1.000  C
  C82      1.0000 0.25680  0.30040  0.63800  Biso   1.000  C
  H101     1.0000 0.19410  0.30930  0.67570  Biso   1.000  H
  H102     1.0000 0.29540  0.37900  0.63110  Biso   1.000  H
  C83      1.0000 0.19940  0.25950  0.56500  Biso   1.000  C
  H103     1.0000 0.16470  0.17800  0.57150  Biso   1.000  H
  C84      1.0000 0.10010  0.34640  0.54080  Biso   1.000  C
  H104     1.0000 0.11630  0.42750  0.55970  Biso   1.000  H
  H105     1.0000 0.02180  0.31960  0.55970  Biso   1.000  H
  N22      1.0000 0.35210  0.08580  0.81820  Biso   1.000  N
  C85      1.0000 0.28390  0.15510  0.83640  Biso   1.000  C
  C86      1.0000 0.19730  0.24320  0.86190  Biso   1.000  C
  H106     1.0000 0.18750  0.30590  0.82430  Biso   1.000  H
  H107     1.0000 0.11910  0.20410  0.86930  Biso   1.000  H
  C87      1.0000 0.23910  0.30070  0.93470  Biso   1.000  C
  H108     1.0000 0.32090  0.33430  0.92810  Biso   1.000  H
  C88      1.0000 0.15300  0.40120  0.95870  Biso   1.000  C
  H109     1.0000 0.07210  0.38600  0.93980  Biso   1.000  H
  H110     1.0000 0.18120  0.47910  0.93980  Biso   1.000  H
  N23      1.0000 0.91420  0.64580  0.18200  Biso   1.000  N
  C89      1.0000 0.84550  0.71380  0.16290  Biso   1.000  C
  C90      1.0000 0.75680  0.80040  0.13800  Biso   1.000  C
  H111     1.0000 0.69410  0.80930  0.17570  Biso   1.000  H
  H112     1.0000 0.79540  0.87900  0.13110  Biso   1.000  H
  C91      1.0000 0.69940  0.75950  0.06500  Biso   1.000  C
  H113     1.0000 0.66470  0.67800  0.07150  Biso   1.000  H
  C92      1.0000 0.60010  0.84640  0.04080  Biso   1.000  C
  H114     1.0000 0.61630  0.92750  0.05970  Biso   1.000  H
  H115     1.0000 0.52180  0.81960  0.05970  Biso   1.000  H
  N24      1.0000 0.85210  0.58580  0.31820  Biso   1.000  N
  C93      1.0000 0.78390  0.65510  0.33640  Biso   1.000  C
  C94      1.0000 0.69730  0.74320  0.36190  Biso   1.000  C
  H116     1.0000 0.68750  0.80590  0.32430  Biso   1.000  H
  H117     1.0000 0.61910  0.70410  0.36930  Biso   1.000  H
  C95      1.0000 0.73910  0.80070  0.43470  Biso   1.000  C
  H118     1.0000 0.82090  0.83430  0.42810  Biso   1.000  H
  C96      1.0000 0.65300  0.90120  0.45870  Biso   1.000  C
  H119     1.0000 0.57210  0.88600  0.43980  Biso   1.000  H
  H120     1.0000 0.68120  0.97910  0.43980  Biso   1.000  H
  N25      1.0000 0.14580  0.58580  0.68200  Biso   1.000  N
  C97      1.0000 0.21380  0.65450  0.66290  Biso   1.000  C
  C98      1.0000 0.30040  0.74320  0.63800  Biso   1.000  C
  H121     1.0000 0.30930  0.80590  0.67570  Biso   1.000  H
  H122     1.0000 0.37900  0.70460  0.63110  Biso   1.000  H
  C99      1.0000 0.25950  0.80060  0.56500  Biso   1.000  C
  H123     1.0000 0.17800  0.83530  0.57150  Biso   1.000  H
  C100     1.0000 0.34640  0.89990  0.54080  Biso   1.000  C
  H124     1.0000 0.42750  0.88370  0.55970  Biso   1.000  H
  H125     1.0000 0.31960  0.97820  0.55970  Biso   1.000  H
  N26      1.0000 0.08580  0.64790  0.81820  Biso   1.000  N
  C101     1.0000 0.15510  0.71610  0.83640  Biso   1.000  C
  C102     1.0000 0.24320  0.80270  0.86190  Biso   1.000  C
  H126     1.0000 0.30590  0.81250  0.82430  Biso   1.000  H
  H127     1.0000 0.20410  0.88090  0.86930  Biso   1.000  H
  C103     1.0000 0.30070  0.76090  0.93470  Biso   1.000  C
  H128     1.0000 0.33430  0.67910  0.92810  Biso   1.000  H
  C104     1.0000 0.40120  0.84700  0.95870  Biso   1.000  C
  H129     1.0000 0.38600  0.92790  0.93980  Biso   1.000  H
  H130     1.0000 0.47910  0.81880  0.93980  Biso   1.000  H
  N27      1.0000 0.64580  0.08580  0.18200  Biso   1.000  N
  C105     1.0000 0.71380  0.15450  0.16290  Biso   1.000  C
  C106     1.0000 0.80040  0.24320  0.13800  Biso   1.000  C
  H131     1.0000 0.80930  0.30590  0.17570  Biso   1.000  H
  H132     1.0000 0.87900  0.20460  0.13110  Biso   1.000  H
  C107     1.0000 0.75950  0.30060  0.06500  Biso   1.000  C
  H133     1.0000 0.67800  0.33530  0.07150  Biso   1.000  H
  C108     1.0000 0.84640  0.39990  0.04080  Biso   1.000  C
  H134     1.0000 0.92750  0.38370  0.05970  Biso   1.000  H
  H135     1.0000 0.81960  0.47820  0.05970  Biso   1.000  H
  N28      1.0000 0.58580  0.14790  0.31820  Biso   1.000  N
  C109     1.0000 0.65510  0.21610  0.33640  Biso   1.000  C
  C110     1.0000 0.74320  0.30270  0.36190  Biso   1.000  C
  H136     1.0000 0.80590  0.31250  0.32430  Biso   1.000  H
  H137     1.0000 0.70410  0.38090  0.36930  Biso   1.000  H
  C111     1.0000 0.80070  0.26090  0.43470  Biso   1.000  C
  H138     1.0000 0.83430  0.17910  0.42810  Biso   1.000  H
  C112     1.0000 0.90120  0.34700  0.45870  Biso   1.000  C
  H139     1.0000 0.88600  0.42790  0.43980  Biso   1.000  H
  H140     1.0000 0.97910  0.31880  0.43980  Biso   1.000  H
  N29      1.0000 0.85420  0.41420  0.68200  Biso   1.000  N
  C113     1.0000 0.78620  0.34550  0.66290  Biso   1.000  C
  C114     1.0000 0.69960  0.25680  0.63800  Biso   1.000  C
  H141     1.0000 0.69070  0.19410  0.67570  Biso   1.000  H
  H142     1.0000 0.62100  0.29540  0.63110  Biso   1.000  H
  C115     1.0000 0.74050  0.19940  0.56500  Biso   1.000  C
  H143     1.0000 0.82200  0.16470  0.57150  Biso   1.000  H
  C116     1.0000 0.65360  0.10010  0.54080  Biso   1.000  C
  H144     1.0000 0.57250  0.11630  0.55970  Biso   1.000  H
  H145     1.0000 0.68040  0.02180  0.55970  Biso   1.000  H
  N30      1.0000 0.91420  0.35210  0.81820  Biso   1.000  N
  C117     1.0000 0.84490  0.28390  0.83640  Biso   1.000  C
  C118     1.0000 0.75680  0.19730  0.86190  Biso   1.000  C
  H146     1.0000 0.69410  0.18750  0.82430  Biso   1.000  H
  H147     1.0000 0.79590  0.11910  0.86930  Biso   1.000  H
  C119     1.0000 0.69930  0.23910  0.93470  Biso   1.000  C
  H148     1.0000 0.66570  0.32090  0.92810  Biso   1.000  H
  C120     1.0000 0.59880  0.15300  0.95870  Biso   1.000  C
  H149     1.0000 0.61400  0.07210  0.93980  Biso   1.000  H
  H150     1.0000 0.52090  0.18120  0.93980  Biso   1.000  H
  N31      1.0000 0.35420  0.91420  0.18200  Biso   1.000  N
  C121     1.0000 0.28620  0.84550  0.16290  Biso   1.000  C
  C122     1.0000 0.19960  0.75680  0.13800  Biso   1.000  C
  H151     1.0000 0.19070  0.69410  0.17570  Biso   1.000  H
  H152     1.0000 0.12100  0.79540  0.13110  Biso   1.000  H
  C123     1.0000 0.24050  0.69940  0.06500  Biso   1.000  C
  H153     1.0000 0.32200  0.66470  0.07150  Biso   1.000  H
  C124     1.0000 0.15360  0.60010  0.04080  Biso   1.000  C
  H154     1.0000 0.07250  0.61630  0.05970  Biso   1.000  H
  H155     1.0000 0.18040  0.52180  0.05970  Biso   1.000  H
  N32      1.0000 0.41420  0.85210  0.31820  Biso   1.000  N
  C125     1.0000 0.34490  0.78390  0.33640  Biso   1.000  C
  C126     1.0000 0.25680  0.69730  0.36190  Biso   1.000  C
  H156     1.0000 0.19410  0.68750  0.32430  Biso   1.000  H
  H157     1.0000 0.29590  0.61910  0.36930  Biso   1.000  H
  C127     1.0000 0.19930  0.73910  0.43470  Biso   1.000  C
  H158     1.0000 0.16570  0.82090  0.42810  Biso   1.000  H
  C128     1.0000 0.09880  0.65300  0.45870  Biso   1.000  C
  H159     1.0000 0.11400  0.57210  0.43980  Biso   1.000  H
  H160     1.0000 0.02090  0.68120  0.43980  Biso   1.000  H
  Ag1      1.0000 0.50000  0.00000  0.25000  Biso   1.000  Ag
  Ag2      1.0000 0.00000  0.50000  0.25000  Biso   1.000  Ag
  Ag3      1.0000 0.50000  0.00000  0.75000  Biso   1.000  Ag
  Ag4      1.0000 0.00000  0.50000  0.75000  Biso   1.000  Ag
  C129     1.0000 0.28400  0.25860  0.50000  Biso   1.000  C
  H161     1.0000 0.33440  0.18620  0.50000  Biso   1.000  H
  H162     1.0000 0.33580  0.33000  0.50000  Biso   1.000  H
  C130     1.0000 0.78400  0.75860  0.00000  Biso   1.000  C
  H163     1.0000 0.83440  0.68620  0.00000  Biso   1.000  H
  H164     1.0000 0.83580  0.83000  0.00000  Biso   1.000  H
  C131     1.0000 0.71600  0.74140  0.50000  Biso   1.000  C
  H165     1.0000 0.66560  0.81380  0.50000  Biso   1.000  H
  H166     1.0000 0.66420  0.67000  0.50000  Biso   1.000  H
  C132     1.0000 0.21600  0.24140  0.00000  Biso   1.000  C
  H167     1.0000 0.16560  0.31380  0.00000  Biso   1.000  H
  H168     1.0000 0.16420  0.17000  0.00000  Biso   1.000  H
  C133     1.0000 0.74140  0.28400  0.50000  Biso   1.000  C
  H169     1.0000 0.81380  0.33440  0.50000  Biso   1.000  H
  H170     1.0000 0.67000  0.33580  0.50000  Biso   1.000  H
  C134     1.0000 0.24140  0.78400  0.00000  Biso   1.000  C
  H171     1.0000 0.31380  0.83440  0.00000  Biso   1.000  H
  H172     1.0000 0.17000  0.83580  0.00000  Biso   1.000  H
  C135     1.0000 0.25860  0.71600  0.50000  Biso   1.000  C
  H173     1.0000 0.18620  0.66560  0.50000  Biso   1.000  H
  H174     1.0000 0.33000  0.66420  0.50000  Biso   1.000  H
  C136     1.0000 0.75860  0.21600  0.00000  Biso   1.000  C
  H175     1.0000 0.68620  0.16560  0.00000  Biso   1.000  H
  H176     1.0000 0.83000  0.16420  0.00000  Biso   1.000  H
  C137     1.0000 0.23900  0.21700  0.00000  Biso   1.000  C
  H177     1.0000 0.31080  0.16530  0.00000  Biso   1.000  H
  H178     1.0000 0.16700  0.16550  0.00000  Biso   1.000  H
  C138     1.0000 0.73900  0.71700  0.50000  Biso   1.000  C
  H179     1.0000 0.81080  0.66530  0.50000  Biso   1.000  H
  H180     1.0000 0.66700  0.66550  0.50000  Biso   1.000  H
  C139     1.0000 0.76100  0.78300  0.00000  Biso   1.000  C
  H181     1.0000 0.68920  0.83470  0.00000  Biso   1.000  H
  H182     1.0000 0.83300  0.83450  0.00000  Biso   1.000  H
  C140     1.0000 0.26100  0.28300  0.50000  Biso   1.000  C
  H183     1.0000 0.18920  0.33470  0.50000  Biso   1.000  H
  H184     1.0000 0.33300  0.33450  0.50000  Biso   1.000  H
  C141     1.0000 0.78300  0.23900  0.00000  Biso   1.000  C
  H185     1.0000 0.83470  0.31080  0.00000  Biso   1.000  H
  H186     1.0000 0.83450  0.16700  0.00000  Biso   1.000  H
  C142     1.0000 0.28300  0.73900  0.50000  Biso   1.000  C
  H187     1.0000 0.33470  0.81080  0.50000  Biso   1.000  H
  H188     1.0000 0.33450  0.66700  0.50000  Biso   1.000  H
  C143     1.0000 0.21700  0.76100  0.00000  Biso   1.000  C
  H189     1.0000 0.16530  0.68920  0.00000  Biso   1.000  H
  H190     1.0000 0.16550  0.83300  0.00000  Biso   1.000  H
  C144     1.0000 0.71700  0.26100  0.50000  Biso   1.000  C
  H191     1.0000 0.66530  0.18920  0.50000  Biso   1.000  H
  H192     1.0000 0.66550  0.33300  0.50000  Biso   1.000  H
