data_image0
_cell_length_a       24.574
_cell_length_b       26.507
_cell_length_c       15.152
_cell_angle_alpha    90
_cell_angle_beta     90
_cell_angle_gamma    90

_symmetry_space_group_name_H-M    "P 1"
_symmetry_int_tables_number       1

loop_
  _symmetry_equiv_pos_as_xyz
  'x, y, z'

loop_
  _atom_site_label
  _atom_site_occupancy
  _atom_site_fract_x
  _atom_site_fract_y
  _atom_site_fract_z
  _atom_site_thermal_displace_type
  _atom_site_B_iso_or_equiv
  _atom_site_type_symbol
  Cl1      1.0000 0.33100  0.31400  0.43100  Biso   1.000  Cl
  O1       1.0000 0.44100  0.42800  0.99400  Biso   1.000  O
  O2       1.0000 0.44100  0.48100  0.11300  Biso   1.000  O
  C1       1.0000 0.29900  0.35000  0.19500  Biso   1.000  C
  C2       1.0000 0.32200  0.33500  0.11100  Biso   1.000  C
  H1       1.0000 0.31000  0.30590  0.08320  Biso   1.000  H
  C3       1.0000 0.36300  0.36500  0.07100  Biso   1.000  C
  H2       1.0000 0.37760  0.35610  0.01730  Biso   1.000  H
  C4       1.0000 0.38100  0.41000  0.11300  Biso   1.000  C
  C5       1.0000 0.35900  0.42500  0.19600  Biso   1.000  C
  H3       1.0000 0.37140  0.45410  0.22320  Biso   1.000  H
  C6       1.0000 0.31800  0.39500  0.23800  Biso   1.000  C
  H4       1.0000 0.30380  0.40440  0.29210  Biso   1.000  H
  C7       1.0000 0.42500  0.44300  0.07100  Biso   1.000  C
  C8       1.0000 0.28600  0.27700  0.33400  Biso   1.000  C
  C9       1.0000 0.34500  0.27700  0.46600  Biso   1.000  C
  C10      1.0000 0.31600  0.30400  0.40000  Biso   1.000  C
  H5       1.0000 0.31570  0.33890  0.40010  Biso   1.000  H
  H6       1.0000 0.36410  0.29460  0.50960  Biso   1.000  H
  Cl2      1.0000 0.83100  0.81400  0.93100  Biso   1.000  Cl
  O3       1.0000 0.94100  0.92800  0.49400  Biso   1.000  O
  O4       1.0000 0.94100  0.98100  0.61300  Biso   1.000  O
  C11      1.0000 0.79900  0.85000  0.69500  Biso   1.000  C
  C12      1.0000 0.82200  0.83500  0.61100  Biso   1.000  C
  H7       1.0000 0.81000  0.80590  0.58320  Biso   1.000  H
  C13      1.0000 0.86300  0.86500  0.57100  Biso   1.000  C
  H8       1.0000 0.87760  0.85610  0.51730  Biso   1.000  H
  C14      1.0000 0.88100  0.91000  0.61300  Biso   1.000  C
  C15      1.0000 0.85900  0.92500  0.69600  Biso   1.000  C
  H9       1.0000 0.87140  0.95410  0.72320  Biso   1.000  H
  C16      1.0000 0.81800  0.89500  0.73800  Biso   1.000  C
  H10      1.0000 0.80380  0.90440  0.79210  Biso   1.000  H
  C17      1.0000 0.92500  0.94300  0.57100  Biso   1.000  C
  C18      1.0000 0.78600  0.77700  0.83400  Biso   1.000  C
  C19      1.0000 0.84500  0.77700  0.96600  Biso   1.000  C
  C20      1.0000 0.81600  0.80400  0.90000  Biso   1.000  C
  H11      1.0000 0.81570  0.83890  0.90010  Biso   1.000  H
  H12      1.0000 0.86410  0.79460  0.00960  Biso   1.000  H
  Cl3      1.0000 0.66900  0.18600  0.43100  Biso   1.000  Cl
  O5       1.0000 0.55900  0.07200  0.99400  Biso   1.000  O
  O6       1.0000 0.55900  0.01900  0.11300  Biso   1.000  O
  C21      1.0000 0.70100  0.15000  0.19500  Biso   1.000  C
  C22      1.0000 0.67800  0.16500  0.11100  Biso   1.000  C
  H13      1.0000 0.69000  0.19410  0.08320  Biso   1.000  H
  C23      1.0000 0.63700  0.13500  0.07100  Biso   1.000  C
  H14      1.0000 0.62240  0.14390  0.01730  Biso   1.000  H
  C24      1.0000 0.61900  0.09000  0.11300  Biso   1.000  C
  C25      1.0000 0.64100  0.07500  0.19600  Biso   1.000  C
  H15      1.0000 0.62860  0.04590  0.22320  Biso   1.000  H
  C26      1.0000 0.68200  0.10500  0.23800  Biso   1.000  C
  H16      1.0000 0.69620  0.09560  0.29210  Biso   1.000  H
  C27      1.0000 0.57500  0.05700  0.07100  Biso   1.000  C
  C28      1.0000 0.71400  0.22300  0.33400  Biso   1.000  C
  C29      1.0000 0.65500  0.22300  0.46600  Biso   1.000  C
  C30      1.0000 0.68400  0.19600  0.40000  Biso   1.000  C
  H17      1.0000 0.68430  0.16110  0.40010  Biso   1.000  H
  H18      1.0000 0.63590  0.20540  0.50960  Biso   1.000  H
  Cl4      1.0000 0.16900  0.68600  0.93100  Biso   1.000  Cl
  O7       1.0000 0.05900  0.57200  0.49400  Biso   1.000  O
  O8       1.0000 0.05900  0.51900  0.61300  Biso   1.000  O
  C31      1.0000 0.20100  0.65000  0.69500  Biso   1.000  C
  C32      1.0000 0.17800  0.66500  0.61100  Biso   1.000  C
  H19      1.0000 0.19000  0.69410  0.58320  Biso   1.000  H
  C33      1.0000 0.13700  0.63500  0.57100  Biso   1.000  C
  H20      1.0000 0.12240  0.64390  0.51730  Biso   1.000  H
  C34      1.0000 0.11900  0.59000  0.61300  Biso   1.000  C
  C35      1.0000 0.14100  0.57500  0.69600  Biso   1.000  C
  H21      1.0000 0.12860  0.54590  0.72320  Biso   1.000  H
  C36      1.0000 0.18200  0.60500  0.73800  Biso   1.000  C
  H22      1.0000 0.19620  0.59560  0.79210  Biso   1.000  H
  C37      1.0000 0.07500  0.55700  0.57100  Biso   1.000  C
  C38      1.0000 0.21400  0.72300  0.83400  Biso   1.000  C
  C39      1.0000 0.15500  0.72300  0.96600  Biso   1.000  C
  C40      1.0000 0.18400  0.69600  0.90000  Biso   1.000  C
  H23      1.0000 0.18430  0.66110  0.90010  Biso   1.000  H
  H24      1.0000 0.13590  0.70540  0.00960  Biso   1.000  H
  Cl5      1.0000 0.66900  0.81400  0.56900  Biso   1.000  Cl
  O9       1.0000 0.55900  0.92800  0.00600  Biso   1.000  O
  O10      1.0000 0.55900  0.98100  0.88700  Biso   1.000  O
  C41      1.0000 0.70100  0.85000  0.80500  Biso   1.000  C
  C42      1.0000 0.67800  0.83500  0.88900  Biso   1.000  C
  H25      1.0000 0.69000  0.80590  0.91680  Biso   1.000  H
  C43      1.0000 0.63700  0.86500  0.92900  Biso   1.000  C
  H26      1.0000 0.62240  0.85610  0.98270  Biso   1.000  H
  C44      1.0000 0.61900  0.91000  0.88700  Biso   1.000  C
  C45      1.0000 0.64100  0.92500  0.80400  Biso   1.000  C
  H27      1.0000 0.62860  0.95410  0.77680  Biso   1.000  H
  C46      1.0000 0.68200  0.89500  0.76200  Biso   1.000  C
  H28      1.0000 0.69620  0.90440  0.70790  Biso   1.000  H
  C47      1.0000 0.57500  0.94300  0.92900  Biso   1.000  C
  C48      1.0000 0.71400  0.77700  0.66600  Biso   1.000  C
  C49      1.0000 0.65500  0.77700  0.53400  Biso   1.000  C
  C50      1.0000 0.68400  0.80400  0.60000  Biso   1.000  C
  H29      1.0000 0.68430  0.83890  0.59990  Biso   1.000  H
  H30      1.0000 0.63590  0.79460  0.49040  Biso   1.000  H
  Cl6      1.0000 0.16900  0.31400  0.06900  Biso   1.000  Cl
  O11      1.0000 0.05900  0.42800  0.50600  Biso   1.000  O
  O12      1.0000 0.05900  0.48100  0.38700  Biso   1.000  O
  C51      1.0000 0.20100  0.35000  0.30500  Biso   1.000  C
  C52      1.0000 0.17800  0.33500  0.38900  Biso   1.000  C
  H31      1.0000 0.19000  0.30590  0.41680  Biso   1.000  H
  C53      1.0000 0.13700  0.36500  0.42900  Biso   1.000  C
  H32      1.0000 0.12240  0.35610  0.48270  Biso   1.000  H
  C54      1.0000 0.11900  0.41000  0.38700  Biso   1.000  C
  C55      1.0000 0.14100  0.42500  0.30400  Biso   1.000  C
  H33      1.0000 0.12860  0.45410  0.27680  Biso   1.000  H
  C56      1.0000 0.18200  0.39500  0.26200  Biso   1.000  C
  H34      1.0000 0.19620  0.40440  0.20790  Biso   1.000  H
  C57      1.0000 0.07500  0.44300  0.42900  Biso   1.000  C
  C58      1.0000 0.21400  0.27700  0.16600  Biso   1.000  C
  C59      1.0000 0.15500  0.27700  0.03400  Biso   1.000  C
  C60      1.0000 0.18400  0.30400  0.10000  Biso   1.000  C
  H35      1.0000 0.18430  0.33890  0.09990  Biso   1.000  H
  H36      1.0000 0.13590  0.29460  0.99040  Biso   1.000  H
  Cl7      1.0000 0.33100  0.68600  0.56900  Biso   1.000  Cl
  O13      1.0000 0.44100  0.57200  0.00600  Biso   1.000  O
  O14      1.0000 0.44100  0.51900  0.88700  Biso   1.000  O
  C61      1.0000 0.29900  0.65000  0.80500  Biso   1.000  C
  C62      1.0000 0.32200  0.66500  0.88900  Biso   1.000  C
  H37      1.0000 0.31000  0.69410  0.91680  Biso   1.000  H
  C63      1.0000 0.36300  0.63500  0.92900  Biso   1.000  C
  H38      1.0000 0.37760  0.64390  0.98270  Biso   1.000  H
  C64      1.0000 0.38100  0.59000  0.88700  Biso   1.000  C
  C65      1.0000 0.35900  0.57500  0.80400  Biso   1.000  C
  H39      1.0000 0.37140  0.54590  0.77680  Biso   1.000  H
  C66      1.0000 0.31800  0.60500  0.76200  Biso   1.000  C
  H40      1.0000 0.30380  0.59560  0.70790  Biso   1.000  H
  C67      1.0000 0.42500  0.55700  0.92900  Biso   1.000  C
  C68      1.0000 0.28600  0.72300  0.66600  Biso   1.000  C
  C69      1.0000 0.34500  0.72300  0.53400  Biso   1.000  C
  C70      1.0000 0.31600  0.69600  0.60000  Biso   1.000  C
  H41      1.0000 0.31570  0.66110  0.59990  Biso   1.000  H
  H42      1.0000 0.36410  0.70540  0.49040  Biso   1.000  H
  Cl8      1.0000 0.83100  0.18600  0.06900  Biso   1.000  Cl
  O15      1.0000 0.94100  0.07200  0.50600  Biso   1.000  O
  O16      1.0000 0.94100  0.01900  0.38700  Biso   1.000  O
  C71      1.0000 0.79900  0.15000  0.30500  Biso   1.000  C
  C72      1.0000 0.82200  0.16500  0.38900  Biso   1.000  C
  H43      1.0000 0.81000  0.19410  0.41680  Biso   1.000  H
  C73      1.0000 0.86300  0.13500  0.42900  Biso   1.000  C
  H44      1.0000 0.87760  0.14390  0.48270  Biso   1.000  H
  C74      1.0000 0.88100  0.09000  0.38700  Biso   1.000  C
  C75      1.0000 0.85900  0.07500  0.30400  Biso   1.000  C
  H45      1.0000 0.87140  0.04590  0.27680  Biso   1.000  H
  C76      1.0000 0.81800  0.10500  0.26200  Biso   1.000  C
  H46      1.0000 0.80380  0.09560  0.20790  Biso   1.000  H
  C77      1.0000 0.92500  0.05700  0.42900  Biso   1.000  C
  C78      1.0000 0.78600  0.22300  0.16600  Biso   1.000  C
  C79      1.0000 0.84500  0.22300  0.03400  Biso   1.000  C
  C80      1.0000 0.81600  0.19600  0.10000  Biso   1.000  C
  H47      1.0000 0.81570  0.16110  0.09990  Biso   1.000  H
  H48      1.0000 0.86410  0.20540  0.99040  Biso   1.000  H
  Cl9      1.0000 0.66900  0.68600  0.56900  Biso   1.000  Cl
  O17      1.0000 0.55900  0.57200  0.00600  Biso   1.000  O
  O18      1.0000 0.55900  0.51900  0.88700  Biso   1.000  O
  C81      1.0000 0.70100  0.65000  0.80500  Biso   1.000  C
  C82      1.0000 0.67800  0.66500  0.88900  Biso   1.000  C
  H49      1.0000 0.69000  0.69410  0.91680  Biso   1.000  H
  C83      1.0000 0.63700  0.63500  0.92900  Biso   1.000  C
  H50      1.0000 0.62240  0.64390  0.98270  Biso   1.000  H
  C84      1.0000 0.61900  0.59000  0.88700  Biso   1.000  C
  C85      1.0000 0.64100  0.57500  0.80400  Biso   1.000  C
  H51      1.0000 0.62860  0.54590  0.77680  Biso   1.000  H
  C86      1.0000 0.68200  0.60500  0.76200  Biso   1.000  C
  H52      1.0000 0.69620  0.59560  0.70790  Biso   1.000  H
  C87      1.0000 0.57500  0.55700  0.92900  Biso   1.000  C
  C88      1.0000 0.71400  0.72300  0.66600  Biso   1.000  C
  C89      1.0000 0.65500  0.72300  0.53400  Biso   1.000  C
  C90      1.0000 0.68400  0.69600  0.60000  Biso   1.000  C
  H53      1.0000 0.68430  0.66110  0.59990  Biso   1.000  H
  H54      1.0000 0.63590  0.70540  0.49040  Biso   1.000  H
  Cl10     1.0000 0.16900  0.18600  0.06900  Biso   1.000  Cl
  O19      1.0000 0.05900  0.07200  0.50600  Biso   1.000  O
  O20      1.0000 0.05900  0.01900  0.38700  Biso   1.000  O
  C91      1.0000 0.20100  0.15000  0.30500  Biso   1.000  C
  C92      1.0000 0.17800  0.16500  0.38900  Biso   1.000  C
  H55      1.0000 0.19000  0.19410  0.41680  Biso   1.000  H
  C93      1.0000 0.13700  0.13500  0.42900  Biso   1.000  C
  H56      1.0000 0.12240  0.14390  0.48270  Biso   1.000  H
  C94      1.0000 0.11900  0.09000  0.38700  Biso   1.000  C
  C95      1.0000 0.14100  0.07500  0.30400  Biso   1.000  C
  H57      1.0000 0.12860  0.04590  0.27680  Biso   1.000  H
  C96      1.0000 0.18200  0.10500  0.26200  Biso   1.000  C
  H58      1.0000 0.19620  0.09560  0.20790  Biso   1.000  H
  C97      1.0000 0.07500  0.05700  0.42900  Biso   1.000  C
  C98      1.0000 0.21400  0.22300  0.16600  Biso   1.000  C
  C99      1.0000 0.15500  0.22300  0.03400  Biso   1.000  C
  C100     1.0000 0.18400  0.19600  0.10000  Biso   1.000  C
  H59      1.0000 0.18430  0.16110  0.09990  Biso   1.000  H
  H60      1.0000 0.13590  0.20540  0.99040  Biso   1.000  H
  Cl11     1.0000 0.33100  0.81400  0.56900  Biso   1.000  Cl
  O21      1.0000 0.44100  0.92800  0.00600  Biso   1.000  O
  O22      1.0000 0.44100  0.98100  0.88700  Biso   1.000  O
  C101     1.0000 0.29900  0.85000  0.80500  Biso   1.000  C
  C102     1.0000 0.32200  0.83500  0.88900  Biso   1.000  C
  H61      1.0000 0.31000  0.80590  0.91680  Biso   1.000  H
  C103     1.0000 0.36300  0.86500  0.92900  Biso   1.000  C
  H62      1.0000 0.37760  0.85610  0.98270  Biso   1.000  H
  C104     1.0000 0.38100  0.91000  0.88700  Biso   1.000  C
  C105     1.0000 0.35900  0.92500  0.80400  Biso   1.000  C
  H63      1.0000 0.37140  0.95410  0.77680  Biso   1.000  H
  C106     1.0000 0.31800  0.89500  0.76200  Biso   1.000  C
  H64      1.0000 0.30380  0.90440  0.70790  Biso   1.000  H
  C107     1.0000 0.42500  0.94300  0.92900  Biso   1.000  C
  C108     1.0000 0.28600  0.77700  0.66600  Biso   1.000  C
  C109     1.0000 0.34500  0.77700  0.53400  Biso   1.000  C
  C110     1.0000 0.31600  0.80400  0.60000  Biso   1.000  C
  H65      1.0000 0.31570  0.83890  0.59990  Biso   1.000  H
  H66      1.0000 0.36410  0.79460  0.49040  Biso   1.000  H
  Cl12     1.0000 0.83100  0.31400  0.06900  Biso   1.000  Cl
  O23      1.0000 0.94100  0.42800  0.50600  Biso   1.000  O
  O24      1.0000 0.94100  0.48100  0.38700  Biso   1.000  O
  C111     1.0000 0.79900  0.35000  0.30500  Biso   1.000  C
  C112     1.0000 0.82200  0.33500  0.38900  Biso   1.000  C
  H67      1.0000 0.81000  0.30590  0.41680  Biso   1.000  H
  C113     1.0000 0.86300  0.36500  0.42900  Biso   1.000  C
  H68      1.0000 0.87760  0.35610  0.48270  Biso   1.000  H
  C114     1.0000 0.88100  0.41000  0.38700  Biso   1.000  C
  C115     1.0000 0.85900  0.42500  0.30400  Biso   1.000  C
  H69      1.0000 0.87140  0.45410  0.27680  Biso   1.000  H
  C116     1.0000 0.81800  0.39500  0.26200  Biso   1.000  C
  H70      1.0000 0.80380  0.40440  0.20790  Biso   1.000  H
  C117     1.0000 0.92500  0.44300  0.42900  Biso   1.000  C
  C118     1.0000 0.78600  0.27700  0.16600  Biso   1.000  C
  C119     1.0000 0.84500  0.27700  0.03400  Biso   1.000  C
  C120     1.0000 0.81600  0.30400  0.10000  Biso   1.000  C
  H71      1.0000 0.81570  0.33890  0.09990  Biso   1.000  H
  H72      1.0000 0.86410  0.29460  0.99040  Biso   1.000  H
  Cl13     1.0000 0.33100  0.18600  0.43100  Biso   1.000  Cl
  O25      1.0000 0.44100  0.07200  0.99400  Biso   1.000  O
  O26      1.0000 0.44100  0.01900  0.11300  Biso   1.000  O
  C121     1.0000 0.29900  0.15000  0.19500  Biso   1.000  C
  C122     1.0000 0.32200  0.16500  0.11100  Biso   1.000  C
  H73      1.0000 0.31000  0.19410  0.08320  Biso   1.000  H
  C123     1.0000 0.36300  0.13500  0.07100  Biso   1.000  C
  H74      1.0000 0.37760  0.14390  0.01730  Biso   1.000  H
  C124     1.0000 0.38100  0.09000  0.11300  Biso   1.000  C
  C125     1.0000 0.35900  0.07500  0.19600  Biso   1.000  C
  H75      1.0000 0.37140  0.04590  0.22320  Biso   1.000  H
  C126     1.0000 0.31800  0.10500  0.23800  Biso   1.000  C
  H76      1.0000 0.30380  0.09560  0.29210  Biso   1.000  H
  C127     1.0000 0.42500  0.05700  0.07100  Biso   1.000  C
  C128     1.0000 0.28600  0.22300  0.33400  Biso   1.000  C
  C129     1.0000 0.34500  0.22300  0.46600  Biso   1.000  C
  C130     1.0000 0.31600  0.19600  0.40000  Biso   1.000  C
  H77      1.0000 0.31570  0.16110  0.40010  Biso   1.000  H
  H78      1.0000 0.36410  0.20540  0.50960  Biso   1.000  H
  Cl14     1.0000 0.83100  0.68600  0.93100  Biso   1.000  Cl
  O27      1.0000 0.94100  0.57200  0.49400  Biso   1.000  O
  O28      1.0000 0.94100  0.51900  0.61300  Biso   1.000  O
  C131     1.0000 0.79900  0.65000  0.69500  Biso   1.000  C
  C132     1.0000 0.82200  0.66500  0.61100  Biso   1.000  C
  H79      1.0000 0.81000  0.69410  0.58320  Biso   1.000  H
  C133     1.0000 0.86300  0.63500  0.57100  Biso   1.000  C
  H80      1.0000 0.87760  0.64390  0.51730  Biso   1.000  H
  C134     1.0000 0.88100  0.59000  0.61300  Biso   1.000  C
  C135     1.0000 0.85900  0.57500  0.69600  Biso   1.000  C
  H81      1.0000 0.87140  0.54590  0.72320  Biso   1.000  H
  C136     1.0000 0.81800  0.60500  0.73800  Biso   1.000  C
  H82      1.0000 0.80380  0.59560  0.79210  Biso   1.000  H
  C137     1.0000 0.92500  0.55700  0.57100  Biso   1.000  C
  C138     1.0000 0.78600  0.72300  0.83400  Biso   1.000  C
  C139     1.0000 0.84500  0.72300  0.96600  Biso   1.000  C
  C140     1.0000 0.81600  0.69600  0.90000  Biso   1.000  C
  H83      1.0000 0.81570  0.66110  0.90010  Biso   1.000  H
  H84      1.0000 0.86410  0.70540  0.00960  Biso   1.000  H
  Cl15     1.0000 0.66900  0.31400  0.43100  Biso   1.000  Cl
  O29      1.0000 0.55900  0.42800  0.99400  Biso   1.000  O
  O30      1.0000 0.55900  0.48100  0.11300  Biso   1.000  O
  C141     1.0000 0.70100  0.35000  0.19500  Biso   1.000  C
  C142     1.0000 0.67800  0.33500  0.11100  Biso   1.000  C
  H85      1.0000 0.69000  0.30590  0.08320  Biso   1.000  H
  C143     1.0000 0.63700  0.36500  0.07100  Biso   1.000  C
  H86      1.0000 0.62240  0.35610  0.01730  Biso   1.000  H
  C144     1.0000 0.61900  0.41000  0.11300  Biso   1.000  C
  C145     1.0000 0.64100  0.42500  0.19600  Biso   1.000  C
  H87      1.0000 0.62860  0.45410  0.22320  Biso   1.000  H
  C146     1.0000 0.68200  0.39500  0.23800  Biso   1.000  C
  H88      1.0000 0.69620  0.40440  0.29210  Biso   1.000  H
  C147     1.0000 0.57500  0.44300  0.07100  Biso   1.000  C
  C148     1.0000 0.71400  0.27700  0.33400  Biso   1.000  C
  C149     1.0000 0.65500  0.27700  0.46600  Biso   1.000  C
  C150     1.0000 0.68400  0.30400  0.40000  Biso   1.000  C
  H89      1.0000 0.68430  0.33890  0.40010  Biso   1.000  H
  H90      1.0000 0.63590  0.29460  0.50960  Biso   1.000  H
  Cl16     1.0000 0.16900  0.81400  0.93100  Biso   1.000  Cl
  O31      1.0000 0.05900  0.92800  0.49400  Biso   1.000  O
  O32      1.0000 0.05900  0.98100  0.61300  Biso   1.000  O
  C151     1.0000 0.20100  0.85000  0.69500  Biso   1.000  C
  C152     1.0000 0.17800  0.83500  0.61100  Biso   1.000  C
  H91      1.0000 0.19000  0.80590  0.58320  Biso   1.000  H
  C153     1.0000 0.13700  0.86500  0.57100  Biso   1.000  C
  H92      1.0000 0.12240  0.85610  0.51730  Biso   1.000  H
  C154     1.0000 0.11900  0.91000  0.61300  Biso   1.000  C
  C155     1.0000 0.14100  0.92500  0.69600  Biso   1.000  C
  H93      1.0000 0.12860  0.95410  0.72320  Biso   1.000  H
  C156     1.0000 0.18200  0.89500  0.73800  Biso   1.000  C
  H94      1.0000 0.19620  0.90440  0.79210  Biso   1.000  H
  C157     1.0000 0.07500  0.94300  0.57100  Biso   1.000  C
  C158     1.0000 0.21400  0.77700  0.83400  Biso   1.000  C
  C159     1.0000 0.15500  0.77700  0.96600  Biso   1.000  C
  C160     1.0000 0.18400  0.80400  0.90000  Biso   1.000  C
  H95      1.0000 0.18430  0.83890  0.90010  Biso   1.000  H
  H96      1.0000 0.13590  0.79460  0.00960  Biso   1.000  H
  Pt1      1.0000 0.20940  0.25000  0.15950  Biso   1.000  Pt
  Pt2      1.0000 0.70940  0.75000  0.65950  Biso   1.000  Pt
  Pt3      1.0000 0.79060  0.25000  0.15950  Biso   1.000  Pt
  Pt4      1.0000 0.29060  0.75000  0.65950  Biso   1.000  Pt
  Pt5      1.0000 0.79060  0.75000  0.84050  Biso   1.000  Pt
  Pt6      1.0000 0.29060  0.25000  0.34050  Biso   1.000  Pt
  Pt7      1.0000 0.20940  0.75000  0.84050  Biso   1.000  Pt
  Pt8      1.0000 0.70940  0.25000  0.34050  Biso   1.000  Pt
  Zn1      1.0000 0.50000  0.46510  0.91880  Biso   1.000  Zn
  Zn2      1.0000 0.00000  0.96510  0.41880  Biso   1.000  Zn
  Zn3      1.0000 0.50000  0.03490  0.91880  Biso   1.000  Zn
  Zn4      1.0000 0.00000  0.53490  0.41880  Biso   1.000  Zn
  Zn5      1.0000 0.50000  0.96510  0.08120  Biso   1.000  Zn
  Zn6      1.0000 0.00000  0.46510  0.58120  Biso   1.000  Zn
  Zn7      1.0000 0.50000  0.53490  0.08120  Biso   1.000  Zn
  Zn8      1.0000 0.00000  0.03490  0.58120  Biso   1.000  Zn
  P1       1.0000 0.25000  0.30860  0.25000  Biso   1.000  P
  P2       1.0000 0.75000  0.19140  0.25000  Biso   1.000  P
  P3       1.0000 0.75000  0.80860  0.75000  Biso   1.000  P
  P4       1.0000 0.25000  0.69140  0.75000  Biso   1.000  P
  P5       1.0000 0.75000  0.69140  0.75000  Biso   1.000  P
  P6       1.0000 0.25000  0.19140  0.25000  Biso   1.000  P
  P7       1.0000 0.25000  0.80860  0.75000  Biso   1.000  P
  P8       1.0000 0.75000  0.30860  0.25000  Biso   1.000  P
