data_image0
_cell_length_a       23.9532
_cell_length_b       25.725
_cell_length_c       14.8141
_cell_angle_alpha    90
_cell_angle_beta     90
_cell_angle_gamma    90

_symmetry_space_group_name_H-M    "P 1"
_symmetry_int_tables_number       1

loop_
  _symmetry_equiv_pos_as_xyz
  'x, y, z'

loop_
  _atom_site_label
  _atom_site_occupancy
  _atom_site_fract_x
  _atom_site_fract_y
  _atom_site_fract_z
  _atom_site_thermal_displace_type
  _atom_site_B_iso_or_equiv
  _atom_site_type_symbol
  Cl1      1.0000 0.33050  0.31590  0.92870  Biso   1.000  Cl
  O1       1.0000 0.05870  0.48240  0.88790  Biso   1.000  O
  O2       1.0000 0.05810  0.42860  0.00530  Biso   1.000  O
  C1       1.0000 0.19910  0.35060  0.80610  Biso   1.000  C
  C2       1.0000 0.18150  0.39470  0.76520  Biso   1.000  C
  H1       1.0000 0.19700  0.40500  0.71050  Biso   1.000  H
  C3       1.0000 0.14050  0.42410  0.80560  Biso   1.000  C
  H2       1.0000 0.12750  0.45400  0.77710  Biso   1.000  H
  C4       1.0000 0.11890  0.41010  0.88620  Biso   1.000  C
  C5       1.0000 0.13720  0.36450  0.92730  Biso   1.000  C
  H3       1.0000 0.12200  0.35410  0.98220  Biso   1.000  H
  C6       1.0000 0.17720  0.33550  0.88720  Biso   1.000  C
  H4       1.0000 0.18980  0.30520  0.91480  Biso   1.000  H
  C7       1.0000 0.07450  0.44230  0.92970  Biso   1.000  C
  C8       1.0000 0.28790  0.27600  0.83980  Biso   1.000  C
  C9       1.0000 0.31880  0.30340  0.90140  Biso   1.000  C
  H5       1.0000 0.32070  0.33950  0.89870  Biso   1.000  H
  C10      1.0000 0.34690  0.27640  0.96700  Biso   1.000  C
  H6       1.0000 0.36600  0.29440  0.01180  Biso   1.000  H
  Cl2      1.0000 0.83050  0.81590  0.42870  Biso   1.000  Cl
  O3       1.0000 0.55870  0.98240  0.38790  Biso   1.000  O
  O4       1.0000 0.55810  0.92860  0.50530  Biso   1.000  O
  C11      1.0000 0.69910  0.85060  0.30610  Biso   1.000  C
  C12      1.0000 0.68150  0.89470  0.26520  Biso   1.000  C
  H7       1.0000 0.69700  0.90500  0.21050  Biso   1.000  H
  C13      1.0000 0.64050  0.92410  0.30560  Biso   1.000  C
  H8       1.0000 0.62750  0.95400  0.27710  Biso   1.000  H
  C14      1.0000 0.61890  0.91010  0.38620  Biso   1.000  C
  C15      1.0000 0.63720  0.86450  0.42730  Biso   1.000  C
  H9       1.0000 0.62200  0.85410  0.48220  Biso   1.000  H
  C16      1.0000 0.67720  0.83550  0.38720  Biso   1.000  C
  H10      1.0000 0.68980  0.80520  0.41480  Biso   1.000  H
  C17      1.0000 0.57450  0.94230  0.42970  Biso   1.000  C
  C18      1.0000 0.78790  0.77600  0.33980  Biso   1.000  C
  C19      1.0000 0.81880  0.80340  0.40140  Biso   1.000  C
  H11      1.0000 0.82070  0.83950  0.39870  Biso   1.000  H
  C20      1.0000 0.84690  0.77640  0.46700  Biso   1.000  C
  H12      1.0000 0.86600  0.79440  0.51180  Biso   1.000  H
  Cl3      1.0000 0.66950  0.18410  0.92870  Biso   1.000  Cl
  O5       1.0000 0.94130  0.01760  0.88790  Biso   1.000  O
  O6       1.0000 0.94190  0.07140  0.00530  Biso   1.000  O
  C21      1.0000 0.80090  0.14940  0.80610  Biso   1.000  C
  C22      1.0000 0.81850  0.10530  0.76520  Biso   1.000  C
  H13      1.0000 0.80300  0.09500  0.71050  Biso   1.000  H
  C23      1.0000 0.85950  0.07590  0.80560  Biso   1.000  C
  H14      1.0000 0.87250  0.04600  0.77710  Biso   1.000  H
  C24      1.0000 0.88110  0.08990  0.88620  Biso   1.000  C
  C25      1.0000 0.86280  0.13550  0.92730  Biso   1.000  C
  H15      1.0000 0.87800  0.14590  0.98220  Biso   1.000  H
  C26      1.0000 0.82280  0.16450  0.88720  Biso   1.000  C
  H16      1.0000 0.81020  0.19480  0.91480  Biso   1.000  H
  C27      1.0000 0.92550  0.05770  0.92970  Biso   1.000  C
  C28      1.0000 0.71210  0.22400  0.83980  Biso   1.000  C
  C29      1.0000 0.68120  0.19660  0.90140  Biso   1.000  C
  H17      1.0000 0.67930  0.16050  0.89870  Biso   1.000  H
  C30      1.0000 0.65310  0.22360  0.96700  Biso   1.000  C
  H18      1.0000 0.63400  0.20560  0.01180  Biso   1.000  H
  Cl4      1.0000 0.16950  0.68410  0.42870  Biso   1.000  Cl
  O7       1.0000 0.44130  0.51760  0.38790  Biso   1.000  O
  O8       1.0000 0.44190  0.57140  0.50530  Biso   1.000  O
  C31      1.0000 0.30090  0.64940  0.30610  Biso   1.000  C
  C32      1.0000 0.31850  0.60530  0.26520  Biso   1.000  C
  H19      1.0000 0.30300  0.59500  0.21050  Biso   1.000  H
  C33      1.0000 0.35950  0.57590  0.30560  Biso   1.000  C
  H20      1.0000 0.37250  0.54600  0.27710  Biso   1.000  H
  C34      1.0000 0.38110  0.58990  0.38620  Biso   1.000  C
  C35      1.0000 0.36280  0.63550  0.42730  Biso   1.000  C
  H21      1.0000 0.37800  0.64590  0.48220  Biso   1.000  H
  C36      1.0000 0.32280  0.66450  0.38720  Biso   1.000  C
  H22      1.0000 0.31020  0.69480  0.41480  Biso   1.000  H
  C37      1.0000 0.42550  0.55770  0.42970  Biso   1.000  C
  C38      1.0000 0.21210  0.72400  0.33980  Biso   1.000  C
  C39      1.0000 0.18120  0.69660  0.40140  Biso   1.000  C
  H23      1.0000 0.17930  0.66050  0.39870  Biso   1.000  H
  C40      1.0000 0.15310  0.72360  0.46700  Biso   1.000  C
  H24      1.0000 0.13400  0.70560  0.51180  Biso   1.000  H
  Cl5      1.0000 0.66950  0.81590  0.07130  Biso   1.000  Cl
  O9       1.0000 0.94130  0.98240  0.11210  Biso   1.000  O
  O10      1.0000 0.94190  0.92860  0.99470  Biso   1.000  O
  C41      1.0000 0.80090  0.85060  0.19390  Biso   1.000  C
  C42      1.0000 0.81850  0.89470  0.23480  Biso   1.000  C
  H25      1.0000 0.80300  0.90500  0.28950  Biso   1.000  H
  C43      1.0000 0.85950  0.92410  0.19440  Biso   1.000  C
  H26      1.0000 0.87250  0.95400  0.22290  Biso   1.000  H
  C44      1.0000 0.88110  0.91010  0.11380  Biso   1.000  C
  C45      1.0000 0.86280  0.86450  0.07270  Biso   1.000  C
  H27      1.0000 0.87800  0.85410  0.01780  Biso   1.000  H
  C46      1.0000 0.82280  0.83550  0.11280  Biso   1.000  C
  H28      1.0000 0.81020  0.80520  0.08520  Biso   1.000  H
  C47      1.0000 0.92550  0.94230  0.07030  Biso   1.000  C
  C48      1.0000 0.71210  0.77600  0.16020  Biso   1.000  C
  C49      1.0000 0.68120  0.80340  0.09860  Biso   1.000  C
  H29      1.0000 0.67930  0.83950  0.10130  Biso   1.000  H
  C50      1.0000 0.65310  0.77640  0.03300  Biso   1.000  C
  H30      1.0000 0.63400  0.79440  0.98820  Biso   1.000  H
  Cl6      1.0000 0.16950  0.31590  0.57130  Biso   1.000  Cl
  O11      1.0000 0.44130  0.48240  0.61210  Biso   1.000  O
  O12      1.0000 0.44190  0.42860  0.49470  Biso   1.000  O
  C51      1.0000 0.30090  0.35060  0.69390  Biso   1.000  C
  C52      1.0000 0.31850  0.39470  0.73480  Biso   1.000  C
  H31      1.0000 0.30300  0.40500  0.78950  Biso   1.000  H
  C53      1.0000 0.35950  0.42410  0.69440  Biso   1.000  C
  H32      1.0000 0.37250  0.45400  0.72290  Biso   1.000  H
  C54      1.0000 0.38110  0.41010  0.61380  Biso   1.000  C
  C55      1.0000 0.36280  0.36450  0.57270  Biso   1.000  C
  H33      1.0000 0.37800  0.35410  0.51780  Biso   1.000  H
  C56      1.0000 0.32280  0.33550  0.61280  Biso   1.000  C
  H34      1.0000 0.31020  0.30520  0.58520  Biso   1.000  H
  C57      1.0000 0.42550  0.44230  0.57030  Biso   1.000  C
  C58      1.0000 0.21210  0.27600  0.66020  Biso   1.000  C
  C59      1.0000 0.18120  0.30340  0.59860  Biso   1.000  C
  H35      1.0000 0.17930  0.33950  0.60130  Biso   1.000  H
  C60      1.0000 0.15310  0.27640  0.53300  Biso   1.000  C
  H36      1.0000 0.13400  0.29440  0.48820  Biso   1.000  H
  Cl7      1.0000 0.33050  0.68410  0.07130  Biso   1.000  Cl
  O13      1.0000 0.05870  0.51760  0.11210  Biso   1.000  O
  O14      1.0000 0.05810  0.57140  0.99470  Biso   1.000  O
  C61      1.0000 0.19910  0.64940  0.19390  Biso   1.000  C
  C62      1.0000 0.18150  0.60530  0.23480  Biso   1.000  C
  H37      1.0000 0.19700  0.59500  0.28950  Biso   1.000  H
  C63      1.0000 0.14050  0.57590  0.19440  Biso   1.000  C
  H38      1.0000 0.12750  0.54600  0.22290  Biso   1.000  H
  C64      1.0000 0.11890  0.58990  0.11380  Biso   1.000  C
  C65      1.0000 0.13720  0.63550  0.07270  Biso   1.000  C
  H39      1.0000 0.12200  0.64590  0.01780  Biso   1.000  H
  C66      1.0000 0.17720  0.66450  0.11280  Biso   1.000  C
  H40      1.0000 0.18980  0.69480  0.08520  Biso   1.000  H
  C67      1.0000 0.07450  0.55770  0.07030  Biso   1.000  C
  C68      1.0000 0.28790  0.72400  0.16020  Biso   1.000  C
  C69      1.0000 0.31880  0.69660  0.09860  Biso   1.000  C
  H41      1.0000 0.32070  0.66050  0.10130  Biso   1.000  H
  C70      1.0000 0.34690  0.72360  0.03300  Biso   1.000  C
  H42      1.0000 0.36600  0.70560  0.98820  Biso   1.000  H
  Cl8      1.0000 0.83050  0.18410  0.57130  Biso   1.000  Cl
  O15      1.0000 0.55870  0.01760  0.61210  Biso   1.000  O
  O16      1.0000 0.55810  0.07140  0.49470  Biso   1.000  O
  C71      1.0000 0.69910  0.14940  0.69390  Biso   1.000  C
  C72      1.0000 0.68150  0.10530  0.73480  Biso   1.000  C
  H43      1.0000 0.69700  0.09500  0.78950  Biso   1.000  H
  C73      1.0000 0.64050  0.07590  0.69440  Biso   1.000  C
  H44      1.0000 0.62750  0.04600  0.72290  Biso   1.000  H
  C74      1.0000 0.61890  0.08990  0.61380  Biso   1.000  C
  C75      1.0000 0.63720  0.13550  0.57270  Biso   1.000  C
  H45      1.0000 0.62200  0.14590  0.51780  Biso   1.000  H
  C76      1.0000 0.67720  0.16450  0.61280  Biso   1.000  C
  H46      1.0000 0.68980  0.19480  0.58520  Biso   1.000  H
  C77      1.0000 0.57450  0.05770  0.57030  Biso   1.000  C
  C78      1.0000 0.78790  0.22400  0.66020  Biso   1.000  C
  C79      1.0000 0.81880  0.19660  0.59860  Biso   1.000  C
  H47      1.0000 0.82070  0.16050  0.60130  Biso   1.000  H
  C80      1.0000 0.84690  0.22360  0.53300  Biso   1.000  C
  H48      1.0000 0.86600  0.20560  0.48820  Biso   1.000  H
  Cl9      1.0000 0.66950  0.68410  0.07130  Biso   1.000  Cl
  O17      1.0000 0.94130  0.51760  0.11210  Biso   1.000  O
  O18      1.0000 0.94190  0.57140  0.99470  Biso   1.000  O
  C81      1.0000 0.80090  0.64940  0.19390  Biso   1.000  C
  C82      1.0000 0.81850  0.60530  0.23480  Biso   1.000  C
  H49      1.0000 0.80300  0.59500  0.28950  Biso   1.000  H
  C83      1.0000 0.85950  0.57590  0.19440  Biso   1.000  C
  H50      1.0000 0.87250  0.54600  0.22290  Biso   1.000  H
  C84      1.0000 0.88110  0.58990  0.11380  Biso   1.000  C
  C85      1.0000 0.86280  0.63550  0.07270  Biso   1.000  C
  H51      1.0000 0.87800  0.64590  0.01780  Biso   1.000  H
  C86      1.0000 0.82280  0.66450  0.11280  Biso   1.000  C
  H52      1.0000 0.81020  0.69480  0.08520  Biso   1.000  H
  C87      1.0000 0.92550  0.55770  0.07030  Biso   1.000  C
  C88      1.0000 0.71210  0.72400  0.16020  Biso   1.000  C
  C89      1.0000 0.68120  0.69660  0.09860  Biso   1.000  C
  H53      1.0000 0.67930  0.66050  0.10130  Biso   1.000  H
  C90      1.0000 0.65310  0.72360  0.03300  Biso   1.000  C
  H54      1.0000 0.63400  0.70560  0.98820  Biso   1.000  H
  Cl10     1.0000 0.16950  0.18410  0.57130  Biso   1.000  Cl
  O19      1.0000 0.44130  0.01760  0.61210  Biso   1.000  O
  O20      1.0000 0.44190  0.07140  0.49470  Biso   1.000  O
  C91      1.0000 0.30090  0.14940  0.69390  Biso   1.000  C
  C92      1.0000 0.31850  0.10530  0.73480  Biso   1.000  C
  H55      1.0000 0.30300  0.09500  0.78950  Biso   1.000  H
  C93      1.0000 0.35950  0.07590  0.69440  Biso   1.000  C
  H56      1.0000 0.37250  0.04600  0.72290  Biso   1.000  H
  C94      1.0000 0.38110  0.08990  0.61380  Biso   1.000  C
  C95      1.0000 0.36280  0.13550  0.57270  Biso   1.000  C
  H57      1.0000 0.37800  0.14590  0.51780  Biso   1.000  H
  C96      1.0000 0.32280  0.16450  0.61280  Biso   1.000  C
  H58      1.0000 0.31020  0.19480  0.58520  Biso   1.000  H
  C97      1.0000 0.42550  0.05770  0.57030  Biso   1.000  C
  C98      1.0000 0.21210  0.22400  0.66020  Biso   1.000  C
  C99      1.0000 0.18120  0.19660  0.59860  Biso   1.000  C
  H59      1.0000 0.17930  0.16050  0.60130  Biso   1.000  H
  C100     1.0000 0.15310  0.22360  0.53300  Biso   1.000  C
  H60      1.0000 0.13400  0.20560  0.48820  Biso   1.000  H
  Cl11     1.0000 0.33050  0.81590  0.07130  Biso   1.000  Cl
  O21      1.0000 0.05870  0.98240  0.11210  Biso   1.000  O
  O22      1.0000 0.05810  0.92860  0.99470  Biso   1.000  O
  C101     1.0000 0.19910  0.85060  0.19390  Biso   1.000  C
  C102     1.0000 0.18150  0.89470  0.23480  Biso   1.000  C
  H61      1.0000 0.19700  0.90500  0.28950  Biso   1.000  H
  C103     1.0000 0.14050  0.92410  0.19440  Biso   1.000  C
  H62      1.0000 0.12750  0.95400  0.22290  Biso   1.000  H
  C104     1.0000 0.11890  0.91010  0.11380  Biso   1.000  C
  C105     1.0000 0.13720  0.86450  0.07270  Biso   1.000  C
  H63      1.0000 0.12200  0.85410  0.01780  Biso   1.000  H
  C106     1.0000 0.17720  0.83550  0.11280  Biso   1.000  C
  H64      1.0000 0.18980  0.80520  0.08520  Biso   1.000  H
  C107     1.0000 0.07450  0.94230  0.07030  Biso   1.000  C
  C108     1.0000 0.28790  0.77600  0.16020  Biso   1.000  C
  C109     1.0000 0.31880  0.80340  0.09860  Biso   1.000  C
  H65      1.0000 0.32070  0.83950  0.10130  Biso   1.000  H
  C110     1.0000 0.34690  0.77640  0.03300  Biso   1.000  C
  H66      1.0000 0.36600  0.79440  0.98820  Biso   1.000  H
  Cl12     1.0000 0.83050  0.31590  0.57130  Biso   1.000  Cl
  O23      1.0000 0.55870  0.48240  0.61210  Biso   1.000  O
  O24      1.0000 0.55810  0.42860  0.49470  Biso   1.000  O
  C111     1.0000 0.69910  0.35060  0.69390  Biso   1.000  C
  C112     1.0000 0.68150  0.39470  0.73480  Biso   1.000  C
  H67      1.0000 0.69700  0.40500  0.78950  Biso   1.000  H
  C113     1.0000 0.64050  0.42410  0.69440  Biso   1.000  C
  H68      1.0000 0.62750  0.45400  0.72290  Biso   1.000  H
  C114     1.0000 0.61890  0.41010  0.61380  Biso   1.000  C
  C115     1.0000 0.63720  0.36450  0.57270  Biso   1.000  C
  H69      1.0000 0.62200  0.35410  0.51780  Biso   1.000  H
  C116     1.0000 0.67720  0.33550  0.61280  Biso   1.000  C
  H70      1.0000 0.68980  0.30520  0.58520  Biso   1.000  H
  C117     1.0000 0.57450  0.44230  0.57030  Biso   1.000  C
  C118     1.0000 0.78790  0.27600  0.66020  Biso   1.000  C
  C119     1.0000 0.81880  0.30340  0.59860  Biso   1.000  C
  H71      1.0000 0.82070  0.33950  0.60130  Biso   1.000  H
  C120     1.0000 0.84690  0.27640  0.53300  Biso   1.000  C
  H72      1.0000 0.86600  0.29440  0.48820  Biso   1.000  H
  Cl13     1.0000 0.33050  0.18410  0.92870  Biso   1.000  Cl
  O25      1.0000 0.05870  0.01760  0.88790  Biso   1.000  O
  O26      1.0000 0.05810  0.07140  0.00530  Biso   1.000  O
  C121     1.0000 0.19910  0.14940  0.80610  Biso   1.000  C
  C122     1.0000 0.18150  0.10530  0.76520  Biso   1.000  C
  H73      1.0000 0.19700  0.09500  0.71050  Biso   1.000  H
  C123     1.0000 0.14050  0.07590  0.80560  Biso   1.000  C
  H74      1.0000 0.12750  0.04600  0.77710  Biso   1.000  H
  C124     1.0000 0.11890  0.08990  0.88620  Biso   1.000  C
  C125     1.0000 0.13720  0.13550  0.92730  Biso   1.000  C
  H75      1.0000 0.12200  0.14590  0.98220  Biso   1.000  H
  C126     1.0000 0.17720  0.16450  0.88720  Biso   1.000  C
  H76      1.0000 0.18980  0.19480  0.91480  Biso   1.000  H
  C127     1.0000 0.07450  0.05770  0.92970  Biso   1.000  C
  C128     1.0000 0.28790  0.22400  0.83980  Biso   1.000  C
  C129     1.0000 0.31880  0.19660  0.90140  Biso   1.000  C
  H77      1.0000 0.32070  0.16050  0.89870  Biso   1.000  H
  C130     1.0000 0.34690  0.22360  0.96700  Biso   1.000  C
  H78      1.0000 0.36600  0.20560  0.01180  Biso   1.000  H
  Cl14     1.0000 0.83050  0.68410  0.42870  Biso   1.000  Cl
  O27      1.0000 0.55870  0.51760  0.38790  Biso   1.000  O
  O28      1.0000 0.55810  0.57140  0.50530  Biso   1.000  O
  C131     1.0000 0.69910  0.64940  0.30610  Biso   1.000  C
  C132     1.0000 0.68150  0.60530  0.26520  Biso   1.000  C
  H79      1.0000 0.69700  0.59500  0.21050  Biso   1.000  H
  C133     1.0000 0.64050  0.57590  0.30560  Biso   1.000  C
  H80      1.0000 0.62750  0.54600  0.27710  Biso   1.000  H
  C134     1.0000 0.61890  0.58990  0.38620  Biso   1.000  C
  C135     1.0000 0.63720  0.63550  0.42730  Biso   1.000  C
  H81      1.0000 0.62200  0.64590  0.48220  Biso   1.000  H
  C136     1.0000 0.67720  0.66450  0.38720  Biso   1.000  C
  H82      1.0000 0.68980  0.69480  0.41480  Biso   1.000  H
  C137     1.0000 0.57450  0.55770  0.42970  Biso   1.000  C
  C138     1.0000 0.78790  0.72400  0.33980  Biso   1.000  C
  C139     1.0000 0.81880  0.69660  0.40140  Biso   1.000  C
  H83      1.0000 0.82070  0.66050  0.39870  Biso   1.000  H
  C140     1.0000 0.84690  0.72360  0.46700  Biso   1.000  C
  H84      1.0000 0.86600  0.70560  0.51180  Biso   1.000  H
  Cl15     1.0000 0.66950  0.31590  0.92870  Biso   1.000  Cl
  O29      1.0000 0.94130  0.48240  0.88790  Biso   1.000  O
  O30      1.0000 0.94190  0.42860  0.00530  Biso   1.000  O
  C141     1.0000 0.80090  0.35060  0.80610  Biso   1.000  C
  C142     1.0000 0.81850  0.39470  0.76520  Biso   1.000  C
  H85      1.0000 0.80300  0.40500  0.71050  Biso   1.000  H
  C143     1.0000 0.85950  0.42410  0.80560  Biso   1.000  C
  H86      1.0000 0.87250  0.45400  0.77710  Biso   1.000  H
  C144     1.0000 0.88110  0.41010  0.88620  Biso   1.000  C
  C145     1.0000 0.86280  0.36450  0.92730  Biso   1.000  C
  H87      1.0000 0.87800  0.35410  0.98220  Biso   1.000  H
  C146     1.0000 0.82280  0.33550  0.88720  Biso   1.000  C
  H88      1.0000 0.81020  0.30520  0.91480  Biso   1.000  H
  C147     1.0000 0.92550  0.44230  0.92970  Biso   1.000  C
  C148     1.0000 0.71210  0.27600  0.83980  Biso   1.000  C
  C149     1.0000 0.68120  0.30340  0.90140  Biso   1.000  C
  H89      1.0000 0.67930  0.33950  0.89870  Biso   1.000  H
  C150     1.0000 0.65310  0.27640  0.96700  Biso   1.000  C
  H90      1.0000 0.63400  0.29440  0.01180  Biso   1.000  H
  Cl16     1.0000 0.16950  0.81590  0.42870  Biso   1.000  Cl
  O31      1.0000 0.44130  0.98240  0.38790  Biso   1.000  O
  O32      1.0000 0.44190  0.92860  0.50530  Biso   1.000  O
  C151     1.0000 0.30090  0.85060  0.30610  Biso   1.000  C
  C152     1.0000 0.31850  0.89470  0.26520  Biso   1.000  C
  H91      1.0000 0.30300  0.90500  0.21050  Biso   1.000  H
  C153     1.0000 0.35950  0.92410  0.30560  Biso   1.000  C
  H92      1.0000 0.37250  0.95400  0.27710  Biso   1.000  H
  C154     1.0000 0.38110  0.91010  0.38620  Biso   1.000  C
  C155     1.0000 0.36280  0.86450  0.42730  Biso   1.000  C
  H93      1.0000 0.37800  0.85410  0.48220  Biso   1.000  H
  C156     1.0000 0.32280  0.83550  0.38720  Biso   1.000  C
  H94      1.0000 0.31020  0.80520  0.41480  Biso   1.000  H
  C157     1.0000 0.42550  0.94230  0.42970  Biso   1.000  C
  C158     1.0000 0.21210  0.77600  0.33980  Biso   1.000  C
  C159     1.0000 0.18120  0.80340  0.40140  Biso   1.000  C
  H95      1.0000 0.17930  0.83950  0.39870  Biso   1.000  H
  C160     1.0000 0.15310  0.77640  0.46700  Biso   1.000  C
  H96      1.0000 0.13400  0.79440  0.51180  Biso   1.000  H
  Pd1      1.0000 0.20980  0.25000  0.65958  Biso   1.000  Pd
  Pd2      1.0000 0.70980  0.75000  0.15958  Biso   1.000  Pd
  Pd3      1.0000 0.79020  0.25000  0.65958  Biso   1.000  Pd
  Pd4      1.0000 0.29020  0.75000  0.15958  Biso   1.000  Pd
  Pd5      1.0000 0.79020  0.75000  0.34042  Biso   1.000  Pd
  Pd6      1.0000 0.29020  0.25000  0.84042  Biso   1.000  Pd
  Pd7      1.0000 0.20980  0.75000  0.34042  Biso   1.000  Pd
  Pd8      1.0000 0.70980  0.25000  0.84042  Biso   1.000  Pd
  P1       1.0000 0.25000  0.30839  0.75000  Biso   1.000  P
  P2       1.0000 0.75000  0.19161  0.75000  Biso   1.000  P
  P3       1.0000 0.75000  0.80839  0.25000  Biso   1.000  P
  P4       1.0000 0.25000  0.69161  0.25000  Biso   1.000  P
  P5       1.0000 0.75000  0.69161  0.25000  Biso   1.000  P
  P6       1.0000 0.25000  0.80839  0.25000  Biso   1.000  P
  P7       1.0000 0.25000  0.19161  0.75000  Biso   1.000  P
  P8       1.0000 0.75000  0.30839  0.75000  Biso   1.000  P
  Zn1      1.0000 0.00000  0.53522  0.91921  Biso   1.000  Zn
  Zn2      1.0000 0.50000  0.03522  0.41921  Biso   1.000  Zn
  Zn3      1.0000 0.00000  0.96478  0.91921  Biso   1.000  Zn
  Zn4      1.0000 0.50000  0.46478  0.41921  Biso   1.000  Zn
  Zn5      1.0000 0.00000  0.03522  0.08079  Biso   1.000  Zn
  Zn6      1.0000 0.50000  0.53522  0.58079  Biso   1.000  Zn
  Zn7      1.0000 0.00000  0.46478  0.08079  Biso   1.000  Zn
  Zn8      1.0000 0.50000  0.96478  0.58079  Biso   1.000  Zn
