data_image0
_cell_length_a       18.7063
_cell_length_b       22.983
_cell_length_c       17.7139
_cell_angle_alpha    90
_cell_angle_beta     105.866
_cell_angle_gamma    90

_symmetry_space_group_name_H-M    "P 1"
_symmetry_int_tables_number       1

loop_
  _symmetry_equiv_pos_as_xyz
  'x, y, z'

loop_
  _atom_site_label
  _atom_site_occupancy
  _atom_site_fract_x
  _atom_site_fract_y
  _atom_site_fract_z
  _atom_site_thermal_displace_type
  _atom_site_B_iso_or_equiv
  _atom_site_type_symbol
  N1       1.0000 0.19760  0.18120  0.47930  Biso   1.000  N
  N2       1.0000 0.04650  0.24510  0.66060  Biso   1.000  N
  N3       1.0000 0.41140  0.05310  0.47270  Biso   1.000  N
  O1       1.0000 0.04880  0.44690  0.08270  Biso   1.000  O
  O2       1.0000 0.08380  0.38320  0.00830  Biso   1.000  O
  O3       1.0000 0.09640  0.25090  0.82750  Biso   1.000  O
  O4       1.0000 0.16190  0.32450  0.80000  Biso   1.000  O
  C1       1.0000 0.07490  0.40030  0.07200  Biso   1.000  C
  C2       1.0000 0.09780  0.35840  0.14080  Biso   1.000  C
  C3       1.0000 0.08450  0.37390  0.20850  Biso   1.000  C
  H1       1.0000 0.06330  0.41000  0.21210  Biso   1.000  H
  C4       1.0000 0.10140  0.33770  0.27340  Biso   1.000  C
  H2       1.0000 0.09030  0.34940  0.31920  Biso   1.000  H
  C5       1.0000 0.13410  0.28500  0.27090  Biso   1.000  C
  C6       1.0000 0.14820  0.27020  0.20130  Biso   1.000  C
  H3       1.0000 0.17020  0.23450  0.19710  Biso   1.000  H
  C7       1.0000 0.13040  0.30750  0.13680  Biso   1.000  C
  H4       1.0000 0.14140  0.29670  0.09060  Biso   1.000  H
  C8       1.0000 0.02010  0.27310  0.59380  Biso   1.000  C
  H5       1.0000 0.98090  0.29890  0.58980  Biso   1.000  H
  C9       1.0000 0.04780  0.26600  0.52900  Biso   1.000  C
  H6       1.0000 0.02690  0.28630  0.48280  Biso   1.000  H
  C10      1.0000 0.10700  0.22820  0.53410  Biso   1.000  C
  C11      1.0000 0.13480  0.20030  0.60420  Biso   1.000  C
  H7       1.0000 0.17460  0.17480  0.61110  Biso   1.000  H
  C12      1.0000 0.10310  0.21040  0.66470  Biso   1.000  C
  H8       1.0000 0.12330  0.19110  0.71190  Biso   1.000  H
  C13      1.0000 0.38190  0.07260  0.40130  Biso   1.000  C
  H9       1.0000 0.40150  0.05980  0.36130  Biso   1.000  H
  C14      1.0000 0.32410  0.11050  0.38300  Biso   1.000  C
  H10      1.0000 0.30570  0.12280  0.33130  Biso   1.000  H
  C15      1.0000 0.29280  0.13080  0.43750  Biso   1.000  C
  C16      1.0000 0.32170  0.10900  0.51340  Biso   1.000  C
  H11      1.0000 0.30050  0.11930  0.55320  Biso   1.000  H
  C17      1.0000 0.38130  0.07240  0.52830  Biso   1.000  C
  H12      1.0000 0.40200  0.06030  0.57980  Biso   1.000  H
  C18      1.0000 0.14180  0.22070  0.46830  Biso   1.000  C
  C19      1.0000 0.11890  0.25270  0.40050  Biso   1.000  C
  H13      1.0000 0.07960  0.27870  0.39420  Biso   1.000  H
  C20      1.0000 0.15370  0.24670  0.34150  Biso   1.000  C
  C21      1.0000 0.21150  0.20590  0.35330  Biso   1.000  C
  H14      1.0000 0.23710  0.20080  0.31550  Biso   1.000  H
  C22      1.0000 0.23010  0.17360  0.42160  Biso   1.000  C
  C23      1.0000 0.15020  0.28340  0.84330  Biso   1.000  C
  C24      1.0000 0.20200  0.26600  0.92400  Biso   1.000  C
  C25      1.0000 0.25900  0.30200  0.96300  Biso   1.000  C
  H15      1.0000 0.26880  0.33590  0.94020  Biso   1.000  H
  C26      1.0000 0.19800  0.21400  0.96200  Biso   1.000  C
  H16      1.0000 0.16350  0.18720  0.93500  Biso   1.000  H
  O5       1.0000 0.09260  0.16680  0.85140  Biso   1.000  O
  C27      1.0000 0.12250  0.21280  0.87400  Biso   1.000  C
  C28      1.0000 0.18700  0.23100  0.94100  Biso   1.000  C
  C29      1.0000 0.21500  0.19600  0.00500  Biso   1.000  C
  H17      1.0000 0.19310  0.16040  0.01110  Biso   1.000  H
  C30      1.0000 0.22100  0.28400  0.94000  Biso   1.000  C
  H18      1.0000 0.19930  0.30950  0.89910  Biso   1.000  H
  N4       1.0000 0.69760  0.68120  0.47930  Biso   1.000  N
  N5       1.0000 0.54650  0.74510  0.66060  Biso   1.000  N
  N6       1.0000 0.91140  0.55310  0.47270  Biso   1.000  N
  O6       1.0000 0.54880  0.94690  0.08270  Biso   1.000  O
  O7       1.0000 0.58380  0.88320  0.00830  Biso   1.000  O
  O8       1.0000 0.59640  0.75090  0.82750  Biso   1.000  O
  O9       1.0000 0.66190  0.82450  0.80000  Biso   1.000  O
  C31      1.0000 0.57490  0.90030  0.07200  Biso   1.000  C
  C32      1.0000 0.59780  0.85840  0.14080  Biso   1.000  C
  C33      1.0000 0.58450  0.87390  0.20850  Biso   1.000  C
  H19      1.0000 0.56330  0.91000  0.21210  Biso   1.000  H
  C34      1.0000 0.60140  0.83770  0.27340  Biso   1.000  C
  H20      1.0000 0.59030  0.84940  0.31920  Biso   1.000  H
  C35      1.0000 0.63410  0.78500  0.27090  Biso   1.000  C
  C36      1.0000 0.64820  0.77020  0.20130  Biso   1.000  C
  H21      1.0000 0.67020  0.73450  0.19710  Biso   1.000  H
  C37      1.0000 0.63040  0.80750  0.13680  Biso   1.000  C
  H22      1.0000 0.64140  0.79670  0.09060  Biso   1.000  H
  C38      1.0000 0.52010  0.77310  0.59380  Biso   1.000  C
  H23      1.0000 0.48090  0.79890  0.58980  Biso   1.000  H
  C39      1.0000 0.54780  0.76600  0.52900  Biso   1.000  C
  H24      1.0000 0.52690  0.78630  0.48280  Biso   1.000  H
  C40      1.0000 0.60700  0.72820  0.53410  Biso   1.000  C
  C41      1.0000 0.63480  0.70030  0.60420  Biso   1.000  C
  H25      1.0000 0.67460  0.67480  0.61110  Biso   1.000  H
  C42      1.0000 0.60310  0.71040  0.66470  Biso   1.000  C
  H26      1.0000 0.62330  0.69110  0.71190  Biso   1.000  H
  C43      1.0000 0.88190  0.57260  0.40130  Biso   1.000  C
  H27      1.0000 0.90150  0.55980  0.36130  Biso   1.000  H
  C44      1.0000 0.82410  0.61050  0.38300  Biso   1.000  C
  H28      1.0000 0.80570  0.62280  0.33130  Biso   1.000  H
  C45      1.0000 0.79280  0.63080  0.43750  Biso   1.000  C
  C46      1.0000 0.82170  0.60900  0.51340  Biso   1.000  C
  H29      1.0000 0.80050  0.61930  0.55320  Biso   1.000  H
  C47      1.0000 0.88130  0.57240  0.52830  Biso   1.000  C
  H30      1.0000 0.90200  0.56030  0.57980  Biso   1.000  H
  C48      1.0000 0.64180  0.72070  0.46830  Biso   1.000  C
  C49      1.0000 0.61890  0.75270  0.40050  Biso   1.000  C
  H31      1.0000 0.57960  0.77870  0.39420  Biso   1.000  H
  C50      1.0000 0.65370  0.74670  0.34150  Biso   1.000  C
  C51      1.0000 0.71150  0.70590  0.35330  Biso   1.000  C
  H32      1.0000 0.73710  0.70080  0.31550  Biso   1.000  H
  C52      1.0000 0.73010  0.67360  0.42160  Biso   1.000  C
  C53      1.0000 0.65020  0.78340  0.84330  Biso   1.000  C
  C54      1.0000 0.70200  0.76600  0.92400  Biso   1.000  C
  C55      1.0000 0.75900  0.80200  0.96300  Biso   1.000  C
  H33      1.0000 0.76880  0.83590  0.94020  Biso   1.000  H
  C56      1.0000 0.69800  0.71400  0.96200  Biso   1.000  C
  H34      1.0000 0.66350  0.68720  0.93500  Biso   1.000  H
  O10      1.0000 0.59260  0.66680  0.85140  Biso   1.000  O
  C57      1.0000 0.62250  0.71280  0.87400  Biso   1.000  C
  C58      1.0000 0.68700  0.73100  0.94100  Biso   1.000  C
  C59      1.0000 0.71500  0.69600  0.00500  Biso   1.000  C
  H35      1.0000 0.69310  0.66040  0.01110  Biso   1.000  H
  C60      1.0000 0.72100  0.78400  0.94000  Biso   1.000  C
  H36      1.0000 0.69930  0.80950  0.89910  Biso   1.000  H
  N7       1.0000 0.80240  0.18120  0.02070  Biso   1.000  N
  N8       1.0000 0.95350  0.24510  0.83940  Biso   1.000  N
  N9       1.0000 0.58860  0.05310  0.02730  Biso   1.000  N
  O11      1.0000 0.95120  0.44690  0.41730  Biso   1.000  O
  O12      1.0000 0.91620  0.38320  0.49170  Biso   1.000  O
  O13      1.0000 0.90360  0.25090  0.67250  Biso   1.000  O
  O14      1.0000 0.83810  0.32450  0.70000  Biso   1.000  O
  C61      1.0000 0.92510  0.40030  0.42800  Biso   1.000  C
  C62      1.0000 0.90220  0.35840  0.35920  Biso   1.000  C
  C63      1.0000 0.91550  0.37390  0.29150  Biso   1.000  C
  H37      1.0000 0.93670  0.41000  0.28790  Biso   1.000  H
  C64      1.0000 0.89860  0.33770  0.22660  Biso   1.000  C
  H38      1.0000 0.90970  0.34940  0.18080  Biso   1.000  H
  C65      1.0000 0.86590  0.28500  0.22910  Biso   1.000  C
  C66      1.0000 0.85180  0.27020  0.29870  Biso   1.000  C
  H39      1.0000 0.82980  0.23450  0.30290  Biso   1.000  H
  C67      1.0000 0.86960  0.30750  0.36320  Biso   1.000  C
  H40      1.0000 0.85860  0.29670  0.40940  Biso   1.000  H
  C68      1.0000 0.97990  0.27310  0.90620  Biso   1.000  C
  H41      1.0000 0.01910  0.29890  0.91020  Biso   1.000  H
  C69      1.0000 0.95220  0.26600  0.97100  Biso   1.000  C
  H42      1.0000 0.97310  0.28630  0.01720  Biso   1.000  H
  C70      1.0000 0.89300  0.22820  0.96590  Biso   1.000  C
  C71      1.0000 0.86520  0.20030  0.89580  Biso   1.000  C
  H43      1.0000 0.82540  0.17480  0.88890  Biso   1.000  H
  C72      1.0000 0.89690  0.21040  0.83530  Biso   1.000  C
  H44      1.0000 0.87670  0.19110  0.78810  Biso   1.000  H
  C73      1.0000 0.61810  0.07260  0.09870  Biso   1.000  C
  H45      1.0000 0.59850  0.05980  0.13870  Biso   1.000  H
  C74      1.0000 0.67590  0.11050  0.11700  Biso   1.000  C
  H46      1.0000 0.69430  0.12280  0.16870  Biso   1.000  H
  C75      1.0000 0.70720  0.13080  0.06250  Biso   1.000  C
  C76      1.0000 0.67830  0.10900  0.98660  Biso   1.000  C
  H47      1.0000 0.69950  0.11930  0.94680  Biso   1.000  H
  C77      1.0000 0.61870  0.07240  0.97170  Biso   1.000  C
  H48      1.0000 0.59800  0.06030  0.92020  Biso   1.000  H
  C78      1.0000 0.85820  0.22070  0.03170  Biso   1.000  C
  C79      1.0000 0.88110  0.25270  0.09950  Biso   1.000  C
  H49      1.0000 0.92040  0.27870  0.10580  Biso   1.000  H
  C80      1.0000 0.84630  0.24670  0.15850  Biso   1.000  C
  C81      1.0000 0.78850  0.20590  0.14670  Biso   1.000  C
  H50      1.0000 0.76290  0.20080  0.18450  Biso   1.000  H
  C82      1.0000 0.76990  0.17360  0.07840  Biso   1.000  C
  C83      1.0000 0.84980  0.28340  0.65670  Biso   1.000  C
  C84      1.0000 0.79800  0.26600  0.57600  Biso   1.000  C
  C85      1.0000 0.74100  0.30200  0.53700  Biso   1.000  C
  H51      1.0000 0.73120  0.33590  0.55980  Biso   1.000  H
  C86      1.0000 0.80200  0.21400  0.53800  Biso   1.000  C
  H52      1.0000 0.83650  0.18720  0.56500  Biso   1.000  H
  O15      1.0000 0.90740  0.16680  0.64860  Biso   1.000  O
  C87      1.0000 0.87750  0.21280  0.62600  Biso   1.000  C
  C88      1.0000 0.81300  0.23100  0.55900  Biso   1.000  C
  C89      1.0000 0.78500  0.19600  0.49500  Biso   1.000  C
  H53      1.0000 0.80690  0.16040  0.48890  Biso   1.000  H
  C90      1.0000 0.77900  0.28400  0.56000  Biso   1.000  C
  H54      1.0000 0.80070  0.30950  0.60090  Biso   1.000  H
  N10      1.0000 0.30240  0.68120  0.02070  Biso   1.000  N
  N11      1.0000 0.45350  0.74510  0.83940  Biso   1.000  N
  N12      1.0000 0.08860  0.55310  0.02730  Biso   1.000  N
  O16      1.0000 0.45120  0.94690  0.41730  Biso   1.000  O
  O17      1.0000 0.41620  0.88320  0.49170  Biso   1.000  O
  O18      1.0000 0.40360  0.75090  0.67250  Biso   1.000  O
  O19      1.0000 0.33810  0.82450  0.70000  Biso   1.000  O
  C91      1.0000 0.42510  0.90030  0.42800  Biso   1.000  C
  C92      1.0000 0.40220  0.85840  0.35920  Biso   1.000  C
  C93      1.0000 0.41550  0.87390  0.29150  Biso   1.000  C
  H55      1.0000 0.43670  0.91000  0.28790  Biso   1.000  H
  C94      1.0000 0.39860  0.83770  0.22660  Biso   1.000  C
  H56      1.0000 0.40970  0.84940  0.18080  Biso   1.000  H
  C95      1.0000 0.36590  0.78500  0.22910  Biso   1.000  C
  C96      1.0000 0.35180  0.77020  0.29870  Biso   1.000  C
  H57      1.0000 0.32980  0.73450  0.30290  Biso   1.000  H
  C97      1.0000 0.36960  0.80750  0.36320  Biso   1.000  C
  H58      1.0000 0.35860  0.79670  0.40940  Biso   1.000  H
  C98      1.0000 0.47990  0.77310  0.90620  Biso   1.000  C
  H59      1.0000 0.51910  0.79890  0.91020  Biso   1.000  H
  C99      1.0000 0.45220  0.76600  0.97100  Biso   1.000  C
  H60      1.0000 0.47310  0.78630  0.01720  Biso   1.000  H
  C100     1.0000 0.39300  0.72820  0.96590  Biso   1.000  C
  C101     1.0000 0.36520  0.70030  0.89580  Biso   1.000  C
  H61      1.0000 0.32540  0.67480  0.88890  Biso   1.000  H
  C102     1.0000 0.39690  0.71040  0.83530  Biso   1.000  C
  H62      1.0000 0.37670  0.69110  0.78810  Biso   1.000  H
  C103     1.0000 0.11810  0.57260  0.09870  Biso   1.000  C
  H63      1.0000 0.09850  0.55980  0.13870  Biso   1.000  H
  C104     1.0000 0.17590  0.61050  0.11700  Biso   1.000  C
  H64      1.0000 0.19430  0.62280  0.16870  Biso   1.000  H
  C105     1.0000 0.20720  0.63080  0.06250  Biso   1.000  C
  C106     1.0000 0.17830  0.60900  0.98660  Biso   1.000  C
  H65      1.0000 0.19950  0.61930  0.94680  Biso   1.000  H
  C107     1.0000 0.11870  0.57240  0.97170  Biso   1.000  C
  H66      1.0000 0.09800  0.56030  0.92020  Biso   1.000  H
  C108     1.0000 0.35820  0.72070  0.03170  Biso   1.000  C
  C109     1.0000 0.38110  0.75270  0.09950  Biso   1.000  C
  H67      1.0000 0.42040  0.77870  0.10580  Biso   1.000  H
  C110     1.0000 0.34630  0.74670  0.15850  Biso   1.000  C
  C111     1.0000 0.28850  0.70590  0.14670  Biso   1.000  C
  H68      1.0000 0.26290  0.70080  0.18450  Biso   1.000  H
  C112     1.0000 0.26990  0.67360  0.07840  Biso   1.000  C
  C113     1.0000 0.34980  0.78340  0.65670  Biso   1.000  C
  C114     1.0000 0.29800  0.76600  0.57600  Biso   1.000  C
  C115     1.0000 0.24100  0.80200  0.53700  Biso   1.000  C
  H69      1.0000 0.23120  0.83590  0.55980  Biso   1.000  H
  C116     1.0000 0.30200  0.71400  0.53800  Biso   1.000  C
  H70      1.0000 0.33650  0.68720  0.56500  Biso   1.000  H
  O20      1.0000 0.40740  0.66680  0.64860  Biso   1.000  O
  C117     1.0000 0.37750  0.71280  0.62600  Biso   1.000  C
  C118     1.0000 0.31300  0.73100  0.55900  Biso   1.000  C
  C119     1.0000 0.28500  0.69600  0.49500  Biso   1.000  C
  H71      1.0000 0.30690  0.66040  0.48890  Biso   1.000  H
  C120     1.0000 0.27900  0.78400  0.56000  Biso   1.000  C
  H72      1.0000 0.30070  0.80950  0.60090  Biso   1.000  H
  N13      1.0000 0.80240  0.81880  0.52070  Biso   1.000  N
  N14      1.0000 0.95350  0.75490  0.33940  Biso   1.000  N
  N15      1.0000 0.58860  0.94690  0.52730  Biso   1.000  N
  O21      1.0000 0.95120  0.55310  0.91730  Biso   1.000  O
  O22      1.0000 0.91620  0.61680  0.99170  Biso   1.000  O
  O23      1.0000 0.90360  0.74910  0.17250  Biso   1.000  O
  O24      1.0000 0.83810  0.67550  0.20000  Biso   1.000  O
  C121     1.0000 0.92510  0.59970  0.92800  Biso   1.000  C
  C122     1.0000 0.90220  0.64160  0.85920  Biso   1.000  C
  C123     1.0000 0.91550  0.62610  0.79150  Biso   1.000  C
  H73      1.0000 0.93670  0.59000  0.78790  Biso   1.000  H
  C124     1.0000 0.89860  0.66230  0.72660  Biso   1.000  C
  H74      1.0000 0.90970  0.65060  0.68080  Biso   1.000  H
  C125     1.0000 0.86590  0.71500  0.72910  Biso   1.000  C
  C126     1.0000 0.85180  0.72980  0.79870  Biso   1.000  C
  H75      1.0000 0.82980  0.76550  0.80290  Biso   1.000  H
  C127     1.0000 0.86960  0.69250  0.86320  Biso   1.000  C
  H76      1.0000 0.85860  0.70330  0.90940  Biso   1.000  H
  C128     1.0000 0.97990  0.72690  0.40620  Biso   1.000  C
  H77      1.0000 0.01910  0.70110  0.41020  Biso   1.000  H
  C129     1.0000 0.95220  0.73400  0.47100  Biso   1.000  C
  H78      1.0000 0.97310  0.71370  0.51720  Biso   1.000  H
  C130     1.0000 0.89300  0.77180  0.46590  Biso   1.000  C
  C131     1.0000 0.86520  0.79970  0.39580  Biso   1.000  C
  H79      1.0000 0.82540  0.82520  0.38890  Biso   1.000  H
  C132     1.0000 0.89690  0.78960  0.33530  Biso   1.000  C
  H80      1.0000 0.87670  0.80890  0.28810  Biso   1.000  H
  C133     1.0000 0.61810  0.92740  0.59870  Biso   1.000  C
  H81      1.0000 0.59850  0.94020  0.63870  Biso   1.000  H
  C134     1.0000 0.67590  0.88950  0.61700  Biso   1.000  C
  H82      1.0000 0.69430  0.87720  0.66870  Biso   1.000  H
  C135     1.0000 0.70720  0.86920  0.56250  Biso   1.000  C
  C136     1.0000 0.67830  0.89100  0.48660  Biso   1.000  C
  H83      1.0000 0.69950  0.88070  0.44680  Biso   1.000  H
  C137     1.0000 0.61870  0.92760  0.47170  Biso   1.000  C
  H84      1.0000 0.59800  0.93970  0.42020  Biso   1.000  H
  C138     1.0000 0.85820  0.77930  0.53170  Biso   1.000  C
  C139     1.0000 0.88110  0.74730  0.59950  Biso   1.000  C
  H85      1.0000 0.92040  0.72130  0.60580  Biso   1.000  H
  C140     1.0000 0.84630  0.75330  0.65850  Biso   1.000  C
  C141     1.0000 0.78850  0.79410  0.64670  Biso   1.000  C
  H86      1.0000 0.76290  0.79920  0.68450  Biso   1.000  H
  C142     1.0000 0.76990  0.82640  0.57840  Biso   1.000  C
  C143     1.0000 0.84980  0.71660  0.15670  Biso   1.000  C
  C144     1.0000 0.79800  0.73400  0.07600  Biso   1.000  C
  C145     1.0000 0.74100  0.69800  0.03700  Biso   1.000  C
  H87      1.0000 0.73120  0.66410  0.05980  Biso   1.000  H
  C146     1.0000 0.80200  0.78600  0.03800  Biso   1.000  C
  H88      1.0000 0.83650  0.81280  0.06500  Biso   1.000  H
  O25      1.0000 0.90740  0.83320  0.14860  Biso   1.000  O
  C147     1.0000 0.87750  0.78720  0.12600  Biso   1.000  C
  C148     1.0000 0.81300  0.76900  0.05900  Biso   1.000  C
  C149     1.0000 0.78500  0.80400  0.99500  Biso   1.000  C
  H89      1.0000 0.80690  0.83960  0.98890  Biso   1.000  H
  C150     1.0000 0.77900  0.71600  0.06000  Biso   1.000  C
  H90      1.0000 0.80070  0.69050  0.10090  Biso   1.000  H
  N16      1.0000 0.30240  0.31880  0.52070  Biso   1.000  N
  N17      1.0000 0.45350  0.25490  0.33940  Biso   1.000  N
  N18      1.0000 0.08860  0.44690  0.52730  Biso   1.000  N
  O26      1.0000 0.45120  0.05310  0.91730  Biso   1.000  O
  O27      1.0000 0.41620  0.11680  0.99170  Biso   1.000  O
  O28      1.0000 0.40360  0.24910  0.17250  Biso   1.000  O
  O29      1.0000 0.33810  0.17550  0.20000  Biso   1.000  O
  C151     1.0000 0.42510  0.09970  0.92800  Biso   1.000  C
  C152     1.0000 0.40220  0.14160  0.85920  Biso   1.000  C
  C153     1.0000 0.41550  0.12610  0.79150  Biso   1.000  C
  H91      1.0000 0.43670  0.09000  0.78790  Biso   1.000  H
  C154     1.0000 0.39860  0.16230  0.72660  Biso   1.000  C
  H92      1.0000 0.40970  0.15060  0.68080  Biso   1.000  H
  C155     1.0000 0.36590  0.21500  0.72910  Biso   1.000  C
  C156     1.0000 0.35180  0.22980  0.79870  Biso   1.000  C
  H93      1.0000 0.32980  0.26550  0.80290  Biso   1.000  H
  C157     1.0000 0.36960  0.19250  0.86320  Biso   1.000  C
  H94      1.0000 0.35860  0.20330  0.90940  Biso   1.000  H
  C158     1.0000 0.47990  0.22690  0.40620  Biso   1.000  C
  H95      1.0000 0.51910  0.20110  0.41020  Biso   1.000  H
  C159     1.0000 0.45220  0.23400  0.47100  Biso   1.000  C
  H96      1.0000 0.47310  0.21370  0.51720  Biso   1.000  H
  C160     1.0000 0.39300  0.27180  0.46590  Biso   1.000  C
  C161     1.0000 0.36520  0.29970  0.39580  Biso   1.000  C
  H97      1.0000 0.32540  0.32520  0.38890  Biso   1.000  H
  C162     1.0000 0.39690  0.28960  0.33530  Biso   1.000  C
  H98      1.0000 0.37670  0.30890  0.28810  Biso   1.000  H
  C163     1.0000 0.11810  0.42740  0.59870  Biso   1.000  C
  H99      1.0000 0.09850  0.44020  0.63870  Biso   1.000  H
  C164     1.0000 0.17590  0.38950  0.61700  Biso   1.000  C
  H100     1.0000 0.19430  0.37720  0.66870  Biso   1.000  H
  C165     1.0000 0.20720  0.36920  0.56250  Biso   1.000  C
  C166     1.0000 0.17830  0.39100  0.48660  Biso   1.000  C
  H101     1.0000 0.19950  0.38070  0.44680  Biso   1.000  H
  C167     1.0000 0.11870  0.42760  0.47170  Biso   1.000  C
  H102     1.0000 0.09800  0.43970  0.42020  Biso   1.000  H
  C168     1.0000 0.35820  0.27930  0.53170  Biso   1.000  C
  C169     1.0000 0.38110  0.24730  0.59950  Biso   1.000  C
  H103     1.0000 0.42040  0.22130  0.60580  Biso   1.000  H
  C170     1.0000 0.34630  0.25330  0.65850  Biso   1.000  C
  C171     1.0000 0.28850  0.29410  0.64670  Biso   1.000  C
  H104     1.0000 0.26290  0.29920  0.68450  Biso   1.000  H
  C172     1.0000 0.26990  0.32640  0.57840  Biso   1.000  C
  C173     1.0000 0.34980  0.21660  0.15670  Biso   1.000  C
  C174     1.0000 0.29800  0.23400  0.07600  Biso   1.000  C
  C175     1.0000 0.24100  0.19800  0.03700  Biso   1.000  C
  H105     1.0000 0.23120  0.16410  0.05980  Biso   1.000  H
  C176     1.0000 0.30200  0.28600  0.03800  Biso   1.000  C
  H106     1.0000 0.33650  0.31280  0.06500  Biso   1.000  H
  O30      1.0000 0.40740  0.33320  0.14860  Biso   1.000  O
  C177     1.0000 0.37750  0.28720  0.12600  Biso   1.000  C
  C178     1.0000 0.31300  0.26900  0.05900  Biso   1.000  C
  C179     1.0000 0.28500  0.30400  0.99500  Biso   1.000  C
  H107     1.0000 0.30690  0.33960  0.98890  Biso   1.000  H
  C180     1.0000 0.27900  0.21600  0.06000  Biso   1.000  C
  H108     1.0000 0.30070  0.19050  0.10090  Biso   1.000  H
  N19      1.0000 0.19760  0.81880  0.97930  Biso   1.000  N
  N20      1.0000 0.04650  0.75490  0.16060  Biso   1.000  N
  N21      1.0000 0.41140  0.94690  0.97270  Biso   1.000  N
  O31      1.0000 0.04880  0.55310  0.58270  Biso   1.000  O
  O32      1.0000 0.08380  0.61680  0.50830  Biso   1.000  O
  O33      1.0000 0.09640  0.74910  0.32750  Biso   1.000  O
  O34      1.0000 0.16190  0.67550  0.30000  Biso   1.000  O
  C181     1.0000 0.07490  0.59970  0.57200  Biso   1.000  C
  C182     1.0000 0.09780  0.64160  0.64080  Biso   1.000  C
  C183     1.0000 0.08450  0.62610  0.70850  Biso   1.000  C
  H109     1.0000 0.06330  0.59000  0.71210  Biso   1.000  H
  C184     1.0000 0.10140  0.66230  0.77340  Biso   1.000  C
  H110     1.0000 0.09030  0.65060  0.81920  Biso   1.000  H
  C185     1.0000 0.13410  0.71500  0.77090  Biso   1.000  C
  C186     1.0000 0.14820  0.72980  0.70130  Biso   1.000  C
  H111     1.0000 0.17020  0.76550  0.69710  Biso   1.000  H
  C187     1.0000 0.13040  0.69250  0.63680  Biso   1.000  C
  H112     1.0000 0.14140  0.70330  0.59060  Biso   1.000  H
  C188     1.0000 0.02010  0.72690  0.09380  Biso   1.000  C
  H113     1.0000 0.98090  0.70110  0.08980  Biso   1.000  H
  C189     1.0000 0.04780  0.73400  0.02900  Biso   1.000  C
  H114     1.0000 0.02690  0.71370  0.98280  Biso   1.000  H
  C190     1.0000 0.10700  0.77180  0.03410  Biso   1.000  C
  C191     1.0000 0.13480  0.79970  0.10420  Biso   1.000  C
  H115     1.0000 0.17460  0.82520  0.11110  Biso   1.000  H
  C192     1.0000 0.10310  0.78960  0.16470  Biso   1.000  C
  H116     1.0000 0.12330  0.80890  0.21190  Biso   1.000  H
  C193     1.0000 0.38190  0.92740  0.90130  Biso   1.000  C
  H117     1.0000 0.40150  0.94020  0.86130  Biso   1.000  H
  C194     1.0000 0.32410  0.88950  0.88300  Biso   1.000  C
  H118     1.0000 0.30570  0.87720  0.83130  Biso   1.000  H
  C195     1.0000 0.29280  0.86920  0.93750  Biso   1.000  C
  C196     1.0000 0.32170  0.89100  0.01340  Biso   1.000  C
  H119     1.0000 0.30050  0.88070  0.05320  Biso   1.000  H
  C197     1.0000 0.38130  0.92760  0.02830  Biso   1.000  C
  H120     1.0000 0.40200  0.93970  0.07980  Biso   1.000  H
  C198     1.0000 0.14180  0.77930  0.96830  Biso   1.000  C
  C199     1.0000 0.11890  0.74730  0.90050  Biso   1.000  C
  H121     1.0000 0.07960  0.72130  0.89420  Biso   1.000  H
  C200     1.0000 0.15370  0.75330  0.84150  Biso   1.000  C
  C201     1.0000 0.21150  0.79410  0.85330  Biso   1.000  C
  H122     1.0000 0.23710  0.79920  0.81550  Biso   1.000  H
  C202     1.0000 0.23010  0.82640  0.92160  Biso   1.000  C
  C203     1.0000 0.15020  0.71660  0.34330  Biso   1.000  C
  C204     1.0000 0.20200  0.73400  0.42400  Biso   1.000  C
  C205     1.0000 0.25900  0.69800  0.46300  Biso   1.000  C
  H123     1.0000 0.26880  0.66410  0.44020  Biso   1.000  H
  C206     1.0000 0.19800  0.78600  0.46200  Biso   1.000  C
  H124     1.0000 0.16350  0.81280  0.43500  Biso   1.000  H
  O35      1.0000 0.09260  0.83320  0.35140  Biso   1.000  O
  C207     1.0000 0.12250  0.78720  0.37400  Biso   1.000  C
  C208     1.0000 0.18700  0.76900  0.44100  Biso   1.000  C
  C209     1.0000 0.21500  0.80400  0.50500  Biso   1.000  C
  H125     1.0000 0.19310  0.83960  0.51110  Biso   1.000  H
  C210     1.0000 0.22100  0.71600  0.44000  Biso   1.000  C
  H126     1.0000 0.19930  0.69050  0.39910  Biso   1.000  H
  N22      1.0000 0.69760  0.31880  0.97930  Biso   1.000  N
  N23      1.0000 0.54650  0.25490  0.16060  Biso   1.000  N
  N24      1.0000 0.91140  0.44690  0.97270  Biso   1.000  N
  O36      1.0000 0.54880  0.05310  0.58270  Biso   1.000  O
  O37      1.0000 0.58380  0.11680  0.50830  Biso   1.000  O
  O38      1.0000 0.59640  0.24910  0.32750  Biso   1.000  O
  O39      1.0000 0.66190  0.17550  0.30000  Biso   1.000  O
  C211     1.0000 0.57490  0.09970  0.57200  Biso   1.000  C
  C212     1.0000 0.59780  0.14160  0.64080  Biso   1.000  C
  C213     1.0000 0.58450  0.12610  0.70850  Biso   1.000  C
  H127     1.0000 0.56330  0.09000  0.71210  Biso   1.000  H
  C214     1.0000 0.60140  0.16230  0.77340  Biso   1.000  C
  H128     1.0000 0.59030  0.15060  0.81920  Biso   1.000  H
  C215     1.0000 0.63410  0.21500  0.77090  Biso   1.000  C
  C216     1.0000 0.64820  0.22980  0.70130  Biso   1.000  C
  H129     1.0000 0.67020  0.26550  0.69710  Biso   1.000  H
  C217     1.0000 0.63040  0.19250  0.63680  Biso   1.000  C
  H130     1.0000 0.64140  0.20330  0.59060  Biso   1.000  H
  C218     1.0000 0.52010  0.22690  0.09380  Biso   1.000  C
  H131     1.0000 0.48090  0.20110  0.08980  Biso   1.000  H
  C219     1.0000 0.54780  0.23400  0.02900  Biso   1.000  C
  H132     1.0000 0.52690  0.21370  0.98280  Biso   1.000  H
  C220     1.0000 0.60700  0.27180  0.03410  Biso   1.000  C
  C221     1.0000 0.63480  0.29970  0.10420  Biso   1.000  C
  H133     1.0000 0.67460  0.32520  0.11110  Biso   1.000  H
  C222     1.0000 0.60310  0.28960  0.16470  Biso   1.000  C
  H134     1.0000 0.62330  0.30890  0.21190  Biso   1.000  H
  C223     1.0000 0.88190  0.42740  0.90130  Biso   1.000  C
  H135     1.0000 0.90150  0.44020  0.86130  Biso   1.000  H
  C224     1.0000 0.82410  0.38950  0.88300  Biso   1.000  C
  H136     1.0000 0.80570  0.37720  0.83130  Biso   1.000  H
  C225     1.0000 0.79280  0.36920  0.93750  Biso   1.000  C
  C226     1.0000 0.82170  0.39100  0.01340  Biso   1.000  C
  H137     1.0000 0.80050  0.38070  0.05320  Biso   1.000  H
  C227     1.0000 0.88130  0.42760  0.02830  Biso   1.000  C
  H138     1.0000 0.90200  0.43970  0.07980  Biso   1.000  H
  C228     1.0000 0.64180  0.27930  0.96830  Biso   1.000  C
  C229     1.0000 0.61890  0.24730  0.90050  Biso   1.000  C
  H139     1.0000 0.57960  0.22130  0.89420  Biso   1.000  H
  C230     1.0000 0.65370  0.25330  0.84150  Biso   1.000  C
  C231     1.0000 0.71150  0.29410  0.85330  Biso   1.000  C
  H140     1.0000 0.73710  0.29920  0.81550  Biso   1.000  H
  C232     1.0000 0.73010  0.32640  0.92160  Biso   1.000  C
  C233     1.0000 0.65020  0.21660  0.34330  Biso   1.000  C
  C234     1.0000 0.70200  0.23400  0.42400  Biso   1.000  C
  C235     1.0000 0.75900  0.19800  0.46300  Biso   1.000  C
  H141     1.0000 0.76880  0.16410  0.44020  Biso   1.000  H
  C236     1.0000 0.69800  0.28600  0.46200  Biso   1.000  C
  H142     1.0000 0.66350  0.31280  0.43500  Biso   1.000  H
  O40      1.0000 0.59260  0.33320  0.35140  Biso   1.000  O
  C237     1.0000 0.62250  0.28720  0.37400  Biso   1.000  C
  C238     1.0000 0.68700  0.26900  0.44100  Biso   1.000  C
  C239     1.0000 0.71500  0.30400  0.50500  Biso   1.000  C
  H143     1.0000 0.69310  0.33960  0.51110  Biso   1.000  H
  C240     1.0000 0.72100  0.21600  0.44000  Biso   1.000  C
  H144     1.0000 0.69930  0.19050  0.39910  Biso   1.000  H
  Cu1      1.0000 0.00000  0.25499  0.75000  Biso   1.000  Cu
  Cu2      1.0000 0.50000  0.75499  0.75000  Biso   1.000  Cu
  Cu3      1.0000 0.00000  0.74501  0.25000  Biso   1.000  Cu
  Cu4      1.0000 0.50000  0.24501  0.25000  Biso   1.000  Cu
  Cu5      1.0000 0.00000  0.50000  0.00000  Biso   1.000  Cu
  Cu6      1.0000 0.50000  0.00000  0.00000  Biso   1.000  Cu
  Cu7      1.0000 0.00000  0.50000  0.50000  Biso   1.000  Cu
  Cu8      1.0000 0.50000  0.00000  0.50000  Biso   1.000  Cu
