data_image0
_cell_length_a       11.318
_cell_length_b       9.601
_cell_length_c       13.965
_cell_angle_alpha    90
_cell_angle_beta     92.063
_cell_angle_gamma    90

_symmetry_space_group_name_H-M    "P 1"
_symmetry_int_tables_number       1

loop_
  _symmetry_equiv_pos_as_xyz
  'x, y, z'

loop_
  _atom_site_label
  _atom_site_occupancy
  _atom_site_fract_x
  _atom_site_fract_y
  _atom_site_fract_z
  _atom_site_thermal_displace_type
  _atom_site_B_iso_or_equiv
  _atom_site_type_symbol
  Zn1      1.0000 0.25444  0.26543  0.34577  Biso   1.000  Zn
  S1       1.0000 0.21130  0.58173  0.32689  Biso   1.000  S
  O1       1.0000 0.26210  0.45250  0.28190  Biso   1.000  O
  O2       1.0000 0.23570  0.58350  0.42690  Biso   1.000  O
  O3       1.0000 0.08760  0.58050  0.30050  Biso   1.000  O
  O4       1.0000 0.27740  0.70010  0.27940  Biso   1.000  O
  N1       1.0000 0.13740  0.22180  0.44510  Biso   1.000  N
  N2       1.0000 0.04100  0.25560  0.57880  Biso   1.000  N
  H1       1.0000 0.01590  0.29760  0.63030  Biso   1.000  H
  N3       1.0000 0.41230  0.23050  0.40580  Biso   1.000  N
  N4       1.0000 0.57560  0.26930  0.49130  Biso   1.000  N
  H2       1.0000 0.63630  0.31440  0.51740  Biso   1.000  H
  C1       1.0000 0.39280  0.97390  0.44170  Biso   1.000  C
  H3       1.0000 0.32340  0.95640  0.40320  Biso   1.000  H
  C2       1.0000 0.44550  0.10520  0.44800  Biso   1.000  C
  C3       1.0000 0.55090  0.12860  0.50430  Biso   1.000  C
  C4       1.0000 0.49280  0.32430  0.43350  Biso   1.000  C
  H4       1.0000 0.49120  0.41920  0.41410  Biso   1.000  H
  C5       1.0000 0.07250  0.10040  0.46310  Biso   1.000  C
  C6       1.0000 0.01000  0.12170  0.54880  Biso   1.000  C
  C7       1.0000 0.11500  0.30960  0.51640  Biso   1.000  C
  H5       1.0000 0.14810  0.40030  0.52210  Biso   1.000  H
  C8       1.0000 0.93680  0.02390  0.58830  Biso   1.000  C
  H6       1.0000 0.89620  0.03990  0.64560  Biso   1.000  H
  O5       1.0000 0.26690  0.46430  0.38770  Biso   1.000  O
  O6       1.0000 0.21870  0.70550  0.39610  Biso   1.000  O
  O7       1.0000 0.28140  0.60420  0.24850  Biso   1.000  O
  Zn2      1.0000 0.24556  0.76543  0.15423  Biso   1.000  Zn
  S2       1.0000 0.28870  0.08173  0.17311  Biso   1.000  S
  O8       1.0000 0.23790  0.95250  0.21810  Biso   1.000  O
  O9       1.0000 0.26430  0.08350  0.07310  Biso   1.000  O
  O10      1.0000 0.41240  0.08050  0.19950  Biso   1.000  O
  O11      1.0000 0.22260  0.20010  0.22060  Biso   1.000  O
  N5       1.0000 0.36260  0.72180  0.05490  Biso   1.000  N
  N6       1.0000 0.45900  0.75560  0.92120  Biso   1.000  N
  H7       1.0000 0.48410  0.79760  0.86970  Biso   1.000  H
  N7       1.0000 0.08770  0.73050  0.09420  Biso   1.000  N
  N8       1.0000 0.92440  0.76930  0.00870  Biso   1.000  N
  H8       1.0000 0.86370  0.81440  0.98260  Biso   1.000  H
  C9       1.0000 0.10720  0.47390  0.05830  Biso   1.000  C
  H9       1.0000 0.17660  0.45640  0.09680  Biso   1.000  H
  C10      1.0000 0.05450  0.60520  0.05200  Biso   1.000  C
  C11      1.0000 0.94910  0.62860  0.99570  Biso   1.000  C
  C12      1.0000 0.00720  0.82430  0.06650  Biso   1.000  C
  H10      1.0000 0.00880  0.91920  0.08590  Biso   1.000  H
  C13      1.0000 0.42750  0.60040  0.03690  Biso   1.000  C
  C14      1.0000 0.49000  0.62170  0.95120  Biso   1.000  C
  C15      1.0000 0.38500  0.80960  0.98360  Biso   1.000  C
  H11      1.0000 0.35190  0.90030  0.97790  Biso   1.000  H
  C16      1.0000 0.56320  0.52390  0.91170  Biso   1.000  C
  H12      1.0000 0.60380  0.53990  0.85440  Biso   1.000  H
  O12      1.0000 0.23310  0.96430  0.11230  Biso   1.000  O
  O13      1.0000 0.28130  0.20550  0.10390  Biso   1.000  O
  O14      1.0000 0.21860  0.10420  0.25150  Biso   1.000  O
  Zn3      1.0000 0.74556  0.73457  0.65423  Biso   1.000  Zn
  S3       1.0000 0.78870  0.41827  0.67311  Biso   1.000  S
  O15      1.0000 0.73790  0.54750  0.71810  Biso   1.000  O
  O16      1.0000 0.76430  0.41650  0.57310  Biso   1.000  O
  O17      1.0000 0.91240  0.41950  0.69950  Biso   1.000  O
  O18      1.0000 0.72260  0.29990  0.72060  Biso   1.000  O
  N9       1.0000 0.86260  0.77820  0.55490  Biso   1.000  N
  N10      1.0000 0.95900  0.74440  0.42120  Biso   1.000  N
  H13      1.0000 0.98410  0.70240  0.36970  Biso   1.000  H
  N11      1.0000 0.58770  0.76950  0.59420  Biso   1.000  N
  N12      1.0000 0.42440  0.73070  0.50870  Biso   1.000  N
  H14      1.0000 0.36370  0.68560  0.48260  Biso   1.000  H
  C17      1.0000 0.60720  0.02610  0.55830  Biso   1.000  C
  H15      1.0000 0.67660  0.04360  0.59680  Biso   1.000  H
  C18      1.0000 0.55450  0.89480  0.55200  Biso   1.000  C
  C19      1.0000 0.44910  0.87140  0.49570  Biso   1.000  C
  C20      1.0000 0.50720  0.67570  0.56650  Biso   1.000  C
  H16      1.0000 0.50880  0.58080  0.58590  Biso   1.000  H
  C21      1.0000 0.92750  0.89960  0.53690  Biso   1.000  C
  C22      1.0000 0.99000  0.87830  0.45120  Biso   1.000  C
  C23      1.0000 0.88500  0.69040  0.48360  Biso   1.000  C
  H17      1.0000 0.85190  0.59970  0.47790  Biso   1.000  H
  C24      1.0000 0.06320  0.97610  0.41170  Biso   1.000  C
  H18      1.0000 0.10380  0.96010  0.35440  Biso   1.000  H
  O19      1.0000 0.73310  0.53570  0.61230  Biso   1.000  O
  O20      1.0000 0.78130  0.29450  0.60390  Biso   1.000  O
  O21      1.0000 0.71860  0.39580  0.75150  Biso   1.000  O
  Zn4      1.0000 0.75444  0.23457  0.84577  Biso   1.000  Zn
  S4       1.0000 0.71130  0.91827  0.82689  Biso   1.000  S
  O22      1.0000 0.76210  0.04750  0.78190  Biso   1.000  O
  O23      1.0000 0.73570  0.91650  0.92690  Biso   1.000  O
  O24      1.0000 0.58760  0.91950  0.80050  Biso   1.000  O
  O25      1.0000 0.77740  0.79990  0.77940  Biso   1.000  O
  N13      1.0000 0.63740  0.27820  0.94510  Biso   1.000  N
  N14      1.0000 0.54100  0.24440  0.07880  Biso   1.000  N
  H19      1.0000 0.51590  0.20240  0.13030  Biso   1.000  H
  N15      1.0000 0.91230  0.26950  0.90580  Biso   1.000  N
  N16      1.0000 0.07560  0.23070  0.99130  Biso   1.000  N
  H20      1.0000 0.13630  0.18560  0.01740  Biso   1.000  H
  C25      1.0000 0.89280  0.52610  0.94170  Biso   1.000  C
  H21      1.0000 0.82340  0.54360  0.90320  Biso   1.000  H
  C26      1.0000 0.94550  0.39480  0.94800  Biso   1.000  C
  C27      1.0000 0.05090  0.37140  0.00430  Biso   1.000  C
  C28      1.0000 0.99280  0.17570  0.93350  Biso   1.000  C
  H22      1.0000 0.99120  0.08080  0.91410  Biso   1.000  H
  C29      1.0000 0.57250  0.39960  0.96310  Biso   1.000  C
  C30      1.0000 0.51000  0.37830  0.04880  Biso   1.000  C
  C31      1.0000 0.61500  0.19040  0.01640  Biso   1.000  C
  H23      1.0000 0.64810  0.09970  0.02210  Biso   1.000  H
  C32      1.0000 0.43680  0.47610  0.08830  Biso   1.000  C
  H24      1.0000 0.39620  0.46010  0.14560  Biso   1.000  H
  O26      1.0000 0.76690  0.03570  0.88770  Biso   1.000  O
  O27      1.0000 0.71870  0.79450  0.89610  Biso   1.000  O
  O28      1.0000 0.78140  0.89580  0.74850  Biso   1.000  O
