data_image0
_cell_length_a       19.4561
_cell_length_b       12.511
_cell_length_c       21.4202
_cell_angle_alpha    90
_cell_angle_beta     90
_cell_angle_gamma    90

_symmetry_space_group_name_H-M    "P 1"
_symmetry_int_tables_number       1

loop_
  _symmetry_equiv_pos_as_xyz
  'x, y, z'

loop_
  _atom_site_label
  _atom_site_occupancy
  _atom_site_fract_x
  _atom_site_fract_y
  _atom_site_fract_z
  _atom_site_thermal_displace_type
  _atom_site_B_iso_or_equiv
  _atom_site_type_symbol
  Cu1      1.0000 0.23873  0.33517  0.26001  Biso   1.000  Cu
  Cu2      1.0000 0.43934  0.17062  0.38824  Biso   1.000  Cu
  C1       1.0000 0.41939  0.24901  0.16899  Biso   1.000  C
  C2       1.0000 0.47938  0.25018  0.20519  Biso   1.000  C
  C3       1.0000 0.54367  0.25424  0.17639  Biso   1.000  C
  C4       1.0000 0.54840  0.25814  0.11115  Biso   1.000  C
  C5       1.0000 0.48868  0.25701  0.07488  Biso   1.000  C
  C6       1.0000 0.42403  0.25140  0.10377  Biso   1.000  C
  C7       1.0000 0.34900  0.24510  0.19954  Biso   1.000  C
  C8       1.0000 0.47582  0.24484  0.27561  Biso   1.000  C
  C9       1.0000 0.60978  0.25512  0.21391  Biso   1.000  C
  C10      1.0000 0.61925  0.26035  0.08160  Biso   1.000  C
  C11      1.0000 0.49395  0.26088  0.00457  Biso   1.000  C
  C12      1.0000 0.35985  0.23994  0.06440  Biso   1.000  C
  O1       1.0000 0.31256  0.16490  0.19218  Biso   1.000  O
  O2       1.0000 0.33302  0.32963  0.23021  Biso   1.000  O
  O3       1.0000 0.43257  0.17749  0.29747  Biso   1.000  O
  O4       1.0000 0.51442  0.30073  0.30761  Biso   1.000  O
  O5       1.0000 0.62741  0.17709  0.24546  Biso   1.000  O
  O6       1.0000 0.64444  0.34134  0.20812  Biso   1.000  O
  O7       1.0000 0.65717  0.18022  0.09399  Biso   1.000  O
  O8       1.0000 0.63667  0.33959  0.04997  Biso   1.000  O
  O9       1.0000 0.53417  0.20122  0.97696  Biso   1.000  O
  O10      1.0000 0.45442  0.33025  0.97829  Biso   1.000  O
  O11      1.0000 0.36078  0.16475  0.02441  Biso   1.000  O
  O12      1.0000 0.31039  0.30153  0.07456  Biso   1.000  O
  O13      1.0000 0.20642  0.38505  0.17669  Biso   1.000  O
  H1       1.0000 0.19650  0.34100  0.15210  Biso   1.000  H
  H2       1.0000 0.23650  0.41600  0.16280  Biso   1.000  H
  O14      1.0000 0.13338  0.23938  0.11239  Biso   1.000  O
  H3       1.0000 0.11500  0.22300  0.14320  Biso   1.000  H
  H4       1.0000 0.10440  0.25400  0.08920  Biso   1.000  H
  O15      1.0000 0.24926  0.92073  0.98381  Biso   1.000  O
  H5       1.0000 0.23730  0.87770  0.00820  Biso   1.000  H
  H6       1.0000 0.27800  0.89000  0.96460  Biso   1.000  H
  O16      1.0000 0.20000  0.03410  0.15654  Biso   1.000  O
  H7       1.0000 0.17000  0.01600  0.18000  Biso   1.000  H
  H8       1.0000 0.21200  0.09000  0.17200  Biso   1.000  H
  O17      1.0000 0.09302  0.01354  0.03367  Biso   1.000  O
  H9       1.0000 0.09300  0.05560  0.00600  Biso   1.000  H
  H10      1.0000 0.08150  0.96000  0.01700  Biso   1.000  H
  K1       1.0000 0.22480  0.11322  0.04310  Biso   1.000  K
  K2       1.0000 0.58295  0.49514  0.28884  Biso   1.000  K
  O18      1.0000 0.18630  0.98370  0.13280  Biso   1.000  O
  K3       1.0000 0.22960  0.10040  0.05990  Biso   1.000  K
  Cu3      1.0000 0.26127  0.66483  0.76001  Biso   1.000  Cu
  Cu4      1.0000 0.06066  0.82938  0.88824  Biso   1.000  Cu
  C13      1.0000 0.08061  0.75099  0.66899  Biso   1.000  C
  C14      1.0000 0.02062  0.74982  0.70519  Biso   1.000  C
  C15      1.0000 0.95633  0.74576  0.67639  Biso   1.000  C
  C16      1.0000 0.95160  0.74186  0.61115  Biso   1.000  C
  C17      1.0000 0.01132  0.74299  0.57488  Biso   1.000  C
  C18      1.0000 0.07597  0.74860  0.60377  Biso   1.000  C
  C19      1.0000 0.15100  0.75490  0.69954  Biso   1.000  C
  C20      1.0000 0.02418  0.75516  0.77561  Biso   1.000  C
  C21      1.0000 0.89022  0.74488  0.71391  Biso   1.000  C
  C22      1.0000 0.88075  0.73965  0.58160  Biso   1.000  C
  C23      1.0000 0.00605  0.73912  0.50457  Biso   1.000  C
  C24      1.0000 0.14015  0.76006  0.56440  Biso   1.000  C
  O19      1.0000 0.18744  0.83510  0.69218  Biso   1.000  O
  O20      1.0000 0.16698  0.67037  0.73021  Biso   1.000  O
  O21      1.0000 0.06743  0.82251  0.79747  Biso   1.000  O
  O22      1.0000 0.98558  0.69927  0.80761  Biso   1.000  O
  O23      1.0000 0.87259  0.82291  0.74546  Biso   1.000  O
  O24      1.0000 0.85556  0.65866  0.70812  Biso   1.000  O
  O25      1.0000 0.84283  0.81978  0.59399  Biso   1.000  O
  O26      1.0000 0.86333  0.66041  0.54997  Biso   1.000  O
  O27      1.0000 0.96583  0.79878  0.47696  Biso   1.000  O
  O28      1.0000 0.04558  0.66975  0.47829  Biso   1.000  O
  O29      1.0000 0.13922  0.83525  0.52441  Biso   1.000  O
  O30      1.0000 0.18961  0.69847  0.57456  Biso   1.000  O
  O31      1.0000 0.29358  0.61495  0.67669  Biso   1.000  O
  H11      1.0000 0.30350  0.65900  0.65210  Biso   1.000  H
  H12      1.0000 0.26350  0.58400  0.66280  Biso   1.000  H
  O32      1.0000 0.36662  0.76062  0.61239  Biso   1.000  O
  H13      1.0000 0.38500  0.77700  0.64320  Biso   1.000  H
  H14      1.0000 0.39560  0.74600  0.58920  Biso   1.000  H
  O33      1.0000 0.25074  0.07927  0.48381  Biso   1.000  O
  H15      1.0000 0.26270  0.12230  0.50820  Biso   1.000  H
  H16      1.0000 0.22200  0.11000  0.46460  Biso   1.000  H
  O34      1.0000 0.30000  0.96590  0.65654  Biso   1.000  O
  H17      1.0000 0.33000  0.98400  0.68000  Biso   1.000  H
  H18      1.0000 0.28800  0.91000  0.67200  Biso   1.000  H
  O35      1.0000 0.40698  0.98646  0.53367  Biso   1.000  O
  H19      1.0000 0.40700  0.94440  0.50600  Biso   1.000  H
  H20      1.0000 0.41850  0.04000  0.51700  Biso   1.000  H
  K4       1.0000 0.27520  0.88678  0.54310  Biso   1.000  K
  K5       1.0000 0.91705  0.50486  0.78884  Biso   1.000  K
  O36      1.0000 0.31370  0.01630  0.63280  Biso   1.000  O
  K6       1.0000 0.27040  0.89960  0.55990  Biso   1.000  K
  Cu5      1.0000 0.76127  0.83517  0.23999  Biso   1.000  Cu
  Cu6      1.0000 0.56066  0.67062  0.11176  Biso   1.000  Cu
  C25      1.0000 0.58061  0.74901  0.33101  Biso   1.000  C
  C26      1.0000 0.52062  0.75018  0.29481  Biso   1.000  C
  C27      1.0000 0.45633  0.75424  0.32361  Biso   1.000  C
  C28      1.0000 0.45160  0.75814  0.38885  Biso   1.000  C
  C29      1.0000 0.51132  0.75701  0.42512  Biso   1.000  C
  C30      1.0000 0.57597  0.75140  0.39623  Biso   1.000  C
  C31      1.0000 0.65100  0.74510  0.30046  Biso   1.000  C
  C32      1.0000 0.52418  0.74484  0.22439  Biso   1.000  C
  C33      1.0000 0.39022  0.75512  0.28609  Biso   1.000  C
  C34      1.0000 0.38075  0.76035  0.41840  Biso   1.000  C
  C35      1.0000 0.50605  0.76088  0.49543  Biso   1.000  C
  C36      1.0000 0.64015  0.73994  0.43560  Biso   1.000  C
  O37      1.0000 0.68744  0.66490  0.30782  Biso   1.000  O
  O38      1.0000 0.66698  0.82963  0.26979  Biso   1.000  O
  O39      1.0000 0.56743  0.67749  0.20253  Biso   1.000  O
  O40      1.0000 0.48558  0.80073  0.19239  Biso   1.000  O
  O41      1.0000 0.37259  0.67709  0.25454  Biso   1.000  O
  O42      1.0000 0.35556  0.84134  0.29188  Biso   1.000  O
  O43      1.0000 0.34283  0.68022  0.40601  Biso   1.000  O
  O44      1.0000 0.36333  0.83959  0.45003  Biso   1.000  O
  O45      1.0000 0.46583  0.70122  0.52304  Biso   1.000  O
  O46      1.0000 0.54558  0.83025  0.52171  Biso   1.000  O
  O47      1.0000 0.63922  0.66475  0.47559  Biso   1.000  O
  O48      1.0000 0.68961  0.80153  0.42544  Biso   1.000  O
  O49      1.0000 0.79358  0.88505  0.32331  Biso   1.000  O
  H21      1.0000 0.80350  0.84100  0.34790  Biso   1.000  H
  H22      1.0000 0.76350  0.91600  0.33720  Biso   1.000  H
  O50      1.0000 0.86662  0.73938  0.38761  Biso   1.000  O
  H23      1.0000 0.88500  0.72300  0.35680  Biso   1.000  H
  H24      1.0000 0.89560  0.75400  0.41080  Biso   1.000  H
  O51      1.0000 0.75074  0.42073  0.51619  Biso   1.000  O
  H25      1.0000 0.76270  0.37770  0.49180  Biso   1.000  H
  H26      1.0000 0.72200  0.39000  0.53540  Biso   1.000  H
  O52      1.0000 0.80000  0.53410  0.34346  Biso   1.000  O
  H27      1.0000 0.83000  0.51600  0.32000  Biso   1.000  H
  H28      1.0000 0.78800  0.59000  0.32800  Biso   1.000  H
  O53      1.0000 0.90698  0.51354  0.46633  Biso   1.000  O
  H29      1.0000 0.90700  0.55560  0.49400  Biso   1.000  H
  H30      1.0000 0.91850  0.46000  0.48300  Biso   1.000  H
  K7       1.0000 0.77520  0.61322  0.45690  Biso   1.000  K
  K8       1.0000 0.41705  0.99514  0.21116  Biso   1.000  K
  O54      1.0000 0.81370  0.48370  0.36720  Biso   1.000  O
  K9       1.0000 0.77040  0.60040  0.44010  Biso   1.000  K
  Cu7      1.0000 0.73873  0.16483  0.73999  Biso   1.000  Cu
  Cu8      1.0000 0.93934  0.32938  0.61176  Biso   1.000  Cu
  C37      1.0000 0.91939  0.25099  0.83101  Biso   1.000  C
  C38      1.0000 0.97938  0.24982  0.79481  Biso   1.000  C
  C39      1.0000 0.04367  0.24576  0.82361  Biso   1.000  C
  C40      1.0000 0.04840  0.24186  0.88885  Biso   1.000  C
  C41      1.0000 0.98868  0.24299  0.92512  Biso   1.000  C
  C42      1.0000 0.92403  0.24860  0.89623  Biso   1.000  C
  C43      1.0000 0.84900  0.25490  0.80046  Biso   1.000  C
  C44      1.0000 0.97582  0.25516  0.72439  Biso   1.000  C
  C45      1.0000 0.10978  0.24488  0.78609  Biso   1.000  C
  C46      1.0000 0.11925  0.23965  0.91840  Biso   1.000  C
  C47      1.0000 0.99395  0.23912  0.99543  Biso   1.000  C
  C48      1.0000 0.85985  0.26006  0.93560  Biso   1.000  C
  O55      1.0000 0.81256  0.33510  0.80782  Biso   1.000  O
  O56      1.0000 0.83302  0.17037  0.76979  Biso   1.000  O
  O57      1.0000 0.93257  0.32251  0.70253  Biso   1.000  O
  O58      1.0000 0.01442  0.19927  0.69239  Biso   1.000  O
  O59      1.0000 0.12741  0.32291  0.75454  Biso   1.000  O
  O60      1.0000 0.14444  0.15866  0.79188  Biso   1.000  O
  O61      1.0000 0.15717  0.31978  0.90601  Biso   1.000  O
  O62      1.0000 0.13667  0.16041  0.95003  Biso   1.000  O
  O63      1.0000 0.03417  0.29878  0.02304  Biso   1.000  O
  O64      1.0000 0.95442  0.16975  0.02171  Biso   1.000  O
  O65      1.0000 0.86078  0.33525  0.97559  Biso   1.000  O
  O66      1.0000 0.81039  0.19847  0.92544  Biso   1.000  O
  O67      1.0000 0.70642  0.11495  0.82331  Biso   1.000  O
  H31      1.0000 0.69650  0.15900  0.84790  Biso   1.000  H
  H32      1.0000 0.73650  0.08400  0.83720  Biso   1.000  H
  O68      1.0000 0.63338  0.26062  0.88761  Biso   1.000  O
  H33      1.0000 0.61500  0.27700  0.85680  Biso   1.000  H
  H34      1.0000 0.60440  0.24600  0.91080  Biso   1.000  H
  O69      1.0000 0.74926  0.57927  0.01619  Biso   1.000  O
  H35      1.0000 0.73730  0.62230  0.99180  Biso   1.000  H
  H36      1.0000 0.77800  0.61000  0.03540  Biso   1.000  H
  O70      1.0000 0.70000  0.46590  0.84346  Biso   1.000  O
  H37      1.0000 0.67000  0.48400  0.82000  Biso   1.000  H
  H38      1.0000 0.71200  0.41000  0.82800  Biso   1.000  H
  O71      1.0000 0.59302  0.48646  0.96633  Biso   1.000  O
  H39      1.0000 0.59300  0.44440  0.99400  Biso   1.000  H
  H40      1.0000 0.58150  0.54000  0.98300  Biso   1.000  H
  K10      1.0000 0.72480  0.38678  0.95690  Biso   1.000  K
  K11      1.0000 0.08295  0.00486  0.71116  Biso   1.000  K
  O72      1.0000 0.68630  0.51630  0.86720  Biso   1.000  O
  K12      1.0000 0.72960  0.39960  0.94010  Biso   1.000  K
  Cu9      1.0000 0.76127  0.66483  0.73999  Biso   1.000  Cu
  Cu10     1.0000 0.56066  0.82938  0.61176  Biso   1.000  Cu
  C49      1.0000 0.58061  0.75099  0.83101  Biso   1.000  C
  C50      1.0000 0.52062  0.74982  0.79481  Biso   1.000  C
  C51      1.0000 0.45633  0.74576  0.82361  Biso   1.000  C
  C52      1.0000 0.45160  0.74186  0.88885  Biso   1.000  C
  C53      1.0000 0.51132  0.74299  0.92512  Biso   1.000  C
  C54      1.0000 0.57597  0.74860  0.89623  Biso   1.000  C
  C55      1.0000 0.65100  0.75490  0.80046  Biso   1.000  C
  C56      1.0000 0.52418  0.75516  0.72439  Biso   1.000  C
  C57      1.0000 0.39022  0.74488  0.78609  Biso   1.000  C
  C58      1.0000 0.38075  0.73965  0.91840  Biso   1.000  C
  C59      1.0000 0.50605  0.73912  0.99543  Biso   1.000  C
  C60      1.0000 0.64015  0.76006  0.93560  Biso   1.000  C
  O73      1.0000 0.68744  0.83510  0.80782  Biso   1.000  O
  O74      1.0000 0.66698  0.67037  0.76979  Biso   1.000  O
  O75      1.0000 0.56743  0.82251  0.70253  Biso   1.000  O
  O76      1.0000 0.48558  0.69927  0.69239  Biso   1.000  O
  O77      1.0000 0.37259  0.82291  0.75454  Biso   1.000  O
  O78      1.0000 0.35556  0.65866  0.79188  Biso   1.000  O
  O79      1.0000 0.34283  0.81978  0.90601  Biso   1.000  O
  O80      1.0000 0.36333  0.66041  0.95003  Biso   1.000  O
  O81      1.0000 0.46583  0.79878  0.02304  Biso   1.000  O
  O82      1.0000 0.54558  0.66975  0.02171  Biso   1.000  O
  O83      1.0000 0.63922  0.83525  0.97559  Biso   1.000  O
  O84      1.0000 0.68961  0.69847  0.92544  Biso   1.000  O
  O85      1.0000 0.79358  0.61495  0.82331  Biso   1.000  O
  H41      1.0000 0.80350  0.65900  0.84790  Biso   1.000  H
  H42      1.0000 0.76350  0.58400  0.83720  Biso   1.000  H
  O86      1.0000 0.86662  0.76062  0.88761  Biso   1.000  O
  H43      1.0000 0.88500  0.77700  0.85680  Biso   1.000  H
  H44      1.0000 0.89560  0.74600  0.91080  Biso   1.000  H
  O87      1.0000 0.75074  0.07927  0.01619  Biso   1.000  O
  H45      1.0000 0.76270  0.12230  0.99180  Biso   1.000  H
  H46      1.0000 0.72200  0.11000  0.03540  Biso   1.000  H
  O88      1.0000 0.80000  0.96590  0.84346  Biso   1.000  O
  H47      1.0000 0.83000  0.98400  0.82000  Biso   1.000  H
  H48      1.0000 0.78800  0.91000  0.82800  Biso   1.000  H
  O89      1.0000 0.90698  0.98646  0.96633  Biso   1.000  O
  H49      1.0000 0.90700  0.94440  0.99400  Biso   1.000  H
  H50      1.0000 0.91850  0.04000  0.98300  Biso   1.000  H
  K13      1.0000 0.77520  0.88678  0.95690  Biso   1.000  K
  K14      1.0000 0.41705  0.50486  0.71116  Biso   1.000  K
  O90      1.0000 0.81370  0.01630  0.86720  Biso   1.000  O
  K15      1.0000 0.77040  0.89960  0.94010  Biso   1.000  K
  Cu11     1.0000 0.73873  0.33517  0.23999  Biso   1.000  Cu
  Cu12     1.0000 0.93934  0.17062  0.11176  Biso   1.000  Cu
  C61      1.0000 0.91939  0.24901  0.33101  Biso   1.000  C
  C62      1.0000 0.97938  0.25018  0.29481  Biso   1.000  C
  C63      1.0000 0.04367  0.25424  0.32361  Biso   1.000  C
  C64      1.0000 0.04840  0.25814  0.38885  Biso   1.000  C
  C65      1.0000 0.98868  0.25701  0.42512  Biso   1.000  C
  C66      1.0000 0.92403  0.25140  0.39623  Biso   1.000  C
  C67      1.0000 0.84900  0.24510  0.30046  Biso   1.000  C
  C68      1.0000 0.97582  0.24484  0.22439  Biso   1.000  C
  C69      1.0000 0.10978  0.25512  0.28609  Biso   1.000  C
  C70      1.0000 0.11925  0.26035  0.41840  Biso   1.000  C
  C71      1.0000 0.99395  0.26088  0.49543  Biso   1.000  C
  C72      1.0000 0.85985  0.23994  0.43560  Biso   1.000  C
  O91      1.0000 0.81256  0.16490  0.30782  Biso   1.000  O
  O92      1.0000 0.83302  0.32963  0.26979  Biso   1.000  O
  O93      1.0000 0.93257  0.17749  0.20253  Biso   1.000  O
  O94      1.0000 0.01442  0.30073  0.19239  Biso   1.000  O
  O95      1.0000 0.12741  0.17709  0.25454  Biso   1.000  O
  O96      1.0000 0.14444  0.34134  0.29188  Biso   1.000  O
  O97      1.0000 0.15717  0.18022  0.40601  Biso   1.000  O
  O98      1.0000 0.13667  0.33959  0.45003  Biso   1.000  O
  O99      1.0000 0.03417  0.20122  0.52304  Biso   1.000  O
  O100     1.0000 0.95442  0.33025  0.52171  Biso   1.000  O
  O101     1.0000 0.86078  0.16475  0.47559  Biso   1.000  O
  O102     1.0000 0.81039  0.30153  0.42544  Biso   1.000  O
  O103     1.0000 0.70642  0.38505  0.32331  Biso   1.000  O
  H51      1.0000 0.69650  0.34100  0.34790  Biso   1.000  H
  H52      1.0000 0.73650  0.41600  0.33720  Biso   1.000  H
  O104     1.0000 0.63338  0.23938  0.38761  Biso   1.000  O
  H53      1.0000 0.61500  0.22300  0.35680  Biso   1.000  H
  H54      1.0000 0.60440  0.25400  0.41080  Biso   1.000  H
  O105     1.0000 0.74926  0.92073  0.51619  Biso   1.000  O
  H55      1.0000 0.73730  0.87770  0.49180  Biso   1.000  H
  H56      1.0000 0.77800  0.89000  0.53540  Biso   1.000  H
  O106     1.0000 0.70000  0.03410  0.34346  Biso   1.000  O
  H57      1.0000 0.67000  0.01600  0.32000  Biso   1.000  H
  H58      1.0000 0.71200  0.09000  0.32800  Biso   1.000  H
  O107     1.0000 0.59302  0.01354  0.46633  Biso   1.000  O
  H59      1.0000 0.59300  0.05560  0.49400  Biso   1.000  H
  H60      1.0000 0.58150  0.96000  0.48300  Biso   1.000  H
  K16      1.0000 0.72480  0.11322  0.45690  Biso   1.000  K
  K17      1.0000 0.08295  0.49514  0.21116  Biso   1.000  K
  O108     1.0000 0.68630  0.98370  0.36720  Biso   1.000  O
  K18      1.0000 0.72960  0.10040  0.44010  Biso   1.000  K
  Cu13     1.0000 0.23873  0.16483  0.76001  Biso   1.000  Cu
  Cu14     1.0000 0.43934  0.32938  0.88824  Biso   1.000  Cu
  C73      1.0000 0.41939  0.25099  0.66899  Biso   1.000  C
  C74      1.0000 0.47938  0.24982  0.70519  Biso   1.000  C
  C75      1.0000 0.54367  0.24576  0.67639  Biso   1.000  C
  C76      1.0000 0.54840  0.24186  0.61115  Biso   1.000  C
  C77      1.0000 0.48868  0.24299  0.57488  Biso   1.000  C
  C78      1.0000 0.42403  0.24860  0.60377  Biso   1.000  C
  C79      1.0000 0.34900  0.25490  0.69954  Biso   1.000  C
  C80      1.0000 0.47582  0.25516  0.77561  Biso   1.000  C
  C81      1.0000 0.60978  0.24488  0.71391  Biso   1.000  C
  C82      1.0000 0.61925  0.23965  0.58160  Biso   1.000  C
  C83      1.0000 0.49395  0.23912  0.50457  Biso   1.000  C
  C84      1.0000 0.35985  0.26006  0.56440  Biso   1.000  C
  O109     1.0000 0.31256  0.33510  0.69218  Biso   1.000  O
  O110     1.0000 0.33302  0.17037  0.73021  Biso   1.000  O
  O111     1.0000 0.43257  0.32251  0.79747  Biso   1.000  O
  O112     1.0000 0.51442  0.19927  0.80761  Biso   1.000  O
  O113     1.0000 0.62741  0.32291  0.74546  Biso   1.000  O
  O114     1.0000 0.64444  0.15866  0.70812  Biso   1.000  O
  O115     1.0000 0.65717  0.31978  0.59399  Biso   1.000  O
  O116     1.0000 0.63667  0.16041  0.54997  Biso   1.000  O
  O117     1.0000 0.53417  0.29878  0.47696  Biso   1.000  O
  O118     1.0000 0.45442  0.16975  0.47829  Biso   1.000  O
  O119     1.0000 0.36078  0.33525  0.52441  Biso   1.000  O
  O120     1.0000 0.31039  0.19847  0.57456  Biso   1.000  O
  O121     1.0000 0.20642  0.11495  0.67669  Biso   1.000  O
  H61      1.0000 0.19650  0.15900  0.65210  Biso   1.000  H
  H62      1.0000 0.23650  0.08400  0.66280  Biso   1.000  H
  O122     1.0000 0.13338  0.26062  0.61239  Biso   1.000  O
  H63      1.0000 0.11500  0.27700  0.64320  Biso   1.000  H
  H64      1.0000 0.10440  0.24600  0.58920  Biso   1.000  H
  O123     1.0000 0.24926  0.57927  0.48381  Biso   1.000  O
  H65      1.0000 0.23730  0.62230  0.50820  Biso   1.000  H
  H66      1.0000 0.27800  0.61000  0.46460  Biso   1.000  H
  O124     1.0000 0.20000  0.46590  0.65654  Biso   1.000  O
  H67      1.0000 0.17000  0.48400  0.68000  Biso   1.000  H
  H68      1.0000 0.21200  0.41000  0.67200  Biso   1.000  H
  O125     1.0000 0.09302  0.48646  0.53367  Biso   1.000  O
  H69      1.0000 0.09300  0.44440  0.50600  Biso   1.000  H
  H70      1.0000 0.08150  0.54000  0.51700  Biso   1.000  H
  K19      1.0000 0.22480  0.38678  0.54310  Biso   1.000  K
  K20      1.0000 0.58295  0.00486  0.78884  Biso   1.000  K
  O126     1.0000 0.18630  0.51630  0.63280  Biso   1.000  O
  K21      1.0000 0.22960  0.39960  0.55990  Biso   1.000  K
  Cu15     1.0000 0.26127  0.83517  0.26001  Biso   1.000  Cu
  Cu16     1.0000 0.06066  0.67062  0.38824  Biso   1.000  Cu
  C85      1.0000 0.08061  0.74901  0.16899  Biso   1.000  C
  C86      1.0000 0.02062  0.75018  0.20519  Biso   1.000  C
  C87      1.0000 0.95633  0.75424  0.17639  Biso   1.000  C
  C88      1.0000 0.95160  0.75814  0.11115  Biso   1.000  C
  C89      1.0000 0.01132  0.75701  0.07488  Biso   1.000  C
  C90      1.0000 0.07597  0.75140  0.10377  Biso   1.000  C
  C91      1.0000 0.15100  0.74510  0.19954  Biso   1.000  C
  C92      1.0000 0.02418  0.74484  0.27561  Biso   1.000  C
  C93      1.0000 0.89022  0.75512  0.21391  Biso   1.000  C
  C94      1.0000 0.88075  0.76035  0.08160  Biso   1.000  C
  C95      1.0000 0.00605  0.76088  0.00457  Biso   1.000  C
  C96      1.0000 0.14015  0.73994  0.06440  Biso   1.000  C
  O127     1.0000 0.18744  0.66490  0.19218  Biso   1.000  O
  O128     1.0000 0.16698  0.82963  0.23021  Biso   1.000  O
  O129     1.0000 0.06743  0.67749  0.29747  Biso   1.000  O
  O130     1.0000 0.98558  0.80073  0.30761  Biso   1.000  O
  O131     1.0000 0.87259  0.67709  0.24546  Biso   1.000  O
  O132     1.0000 0.85556  0.84134  0.20812  Biso   1.000  O
  O133     1.0000 0.84283  0.68022  0.09399  Biso   1.000  O
  O134     1.0000 0.86333  0.83959  0.04997  Biso   1.000  O
  O135     1.0000 0.96583  0.70122  0.97696  Biso   1.000  O
  O136     1.0000 0.04558  0.83025  0.97829  Biso   1.000  O
  O137     1.0000 0.13922  0.66475  0.02441  Biso   1.000  O
  O138     1.0000 0.18961  0.80153  0.07456  Biso   1.000  O
  O139     1.0000 0.29358  0.88505  0.17669  Biso   1.000  O
  H71      1.0000 0.30350  0.84100  0.15210  Biso   1.000  H
  H72      1.0000 0.26350  0.91600  0.16280  Biso   1.000  H
  O140     1.0000 0.36662  0.73938  0.11239  Biso   1.000  O
  H73      1.0000 0.38500  0.72300  0.14320  Biso   1.000  H
  H74      1.0000 0.39560  0.75400  0.08920  Biso   1.000  H
  O141     1.0000 0.25074  0.42073  0.98381  Biso   1.000  O
  H75      1.0000 0.26270  0.37770  0.00820  Biso   1.000  H
  H76      1.0000 0.22200  0.39000  0.96460  Biso   1.000  H
  O142     1.0000 0.30000  0.53410  0.15654  Biso   1.000  O
  H77      1.0000 0.33000  0.51600  0.18000  Biso   1.000  H
  H78      1.0000 0.28800  0.59000  0.17200  Biso   1.000  H
  O143     1.0000 0.40698  0.51354  0.03367  Biso   1.000  O
  H79      1.0000 0.40700  0.55560  0.00600  Biso   1.000  H
  H80      1.0000 0.41850  0.46000  0.01700  Biso   1.000  H
  K22      1.0000 0.27520  0.61322  0.04310  Biso   1.000  K
  K23      1.0000 0.91705  0.99514  0.28884  Biso   1.000  K
  O144     1.0000 0.31370  0.48370  0.13280  Biso   1.000  O
  K24      1.0000 0.27040  0.60040  0.05990  Biso   1.000  K
