data_image0
_cell_length_a       10.1591
_cell_length_b       17.6487
_cell_length_c       22.6853
_cell_angle_alpha    90
_cell_angle_beta     99.592
_cell_angle_gamma    90

_symmetry_space_group_name_H-M    "P 1"
_symmetry_int_tables_number       1

loop_
  _symmetry_equiv_pos_as_xyz
  'x, y, z'

loop_
  _atom_site_label
  _atom_site_occupancy
  _atom_site_fract_x
  _atom_site_fract_y
  _atom_site_fract_z
  _atom_site_thermal_displace_type
  _atom_site_B_iso_or_equiv
  _atom_site_type_symbol
  Zn1      1.0000 0.49309  0.80775  0.83316  Biso   1.000  Zn
  Zn2      1.0000 0.67370  0.72506  0.72779  Biso   1.000  Zn
  O1       1.0000 0.51180  0.69960  0.84742  Biso   1.000  O
  O2       1.0000 0.52540  0.37580  0.73484  Biso   1.000  O
  O3       1.0000 0.57440  0.65210  0.76595  Biso   1.000  O
  O4       1.0000 0.44770  0.30630  0.80261  Biso   1.000  O
  O5       1.0000 0.67300  0.84140  0.87182  Biso   1.000  O
  O6       1.0000 0.76210  0.78340  0.80180  Biso   1.000  O
  O7       1.0000 0.25600  0.79000  0.81397  Biso   1.000  O
  O8       1.0000 0.37710  0.85310  0.88675  Biso   1.000  O
  O9       1.0000 0.66260  0.69240  0.64460  Biso   1.000  O
  N1       1.0000 0.49380  0.47160  0.98352  Biso   1.000  N
  N2       1.0000 0.05280  0.98740  0.99340  Biso   1.000  N
  N3       1.0000 0.61370  0.64580  0.55340  Biso   1.000  N
  C1       1.0000 0.53950  0.64550  0.81620  Biso   1.000  C
  C2       1.0000 0.52720  0.56830  0.84010  Biso   1.000  C
  C3       1.0000 0.51790  0.55970  0.90020  Biso   1.000  C
  H1       1.0000 0.52040  0.60170  0.92510  Biso   1.000  H
  C4       1.0000 0.50460  0.48630  0.92270  Biso   1.000  C
  C5       1.0000 0.49480  0.42520  0.88500  Biso   1.000  C
  H2       1.0000 0.47970  0.37730  0.89970  Biso   1.000  H
  C6       1.0000 0.50690  0.43330  0.82590  Biso   1.000  C
  C7       1.0000 0.52330  0.50540  0.80460  Biso   1.000  C
  H3       1.0000 0.53210  0.51150  0.76470  Biso   1.000  H
  C8       1.0000 0.49350  0.36700  0.78440  Biso   1.000  C
  C9       1.0000 0.76820  0.82370  0.84760  Biso   1.000  C
  C10      1.0000 0.90320  0.85270  0.87500  Biso   1.000  C
  C11      1.0000 0.91210  0.90440  0.92120  Biso   1.000  C
  H4       1.0000 0.83510  0.92100  0.93430  Biso   1.000  H
  C12      1.0000 0.26380  0.83100  0.85820  Biso   1.000  C
  C13      1.0000 0.14230  0.85640  0.88090  Biso   1.000  C
  C14      1.0000 0.15080  0.90790  0.92700  Biso   1.000  C
  H5       1.0000 0.23360  0.92710  0.94420  Biso   1.000  H
  C15      1.0000 0.03590  0.93170  0.94810  Biso   1.000  C
  C16      1.0000 0.01720  0.83050  0.85340  Biso   1.000  C
  H6       1.0000 0.01030  0.79820  0.82060  Biso   1.000  H
  C17      1.0000 0.62500  0.63990  0.61040  Biso   1.000  C
  C18      1.0000 0.64360  0.56180  0.63870  Biso   1.000  C
  H7       1.0000 0.64800  0.56610  0.68110  Biso   1.000  H
  H8       1.0000 0.72490  0.53980  0.63030  Biso   1.000  H
  H9       1.0000 0.56950  0.53010  0.62240  Biso   1.000  H
  C19      1.0000 0.59550  0.57960  0.51060  Biso   1.000  C
  H10      1.0000 0.68130  0.56150  0.50440  Biso   1.000  H
  H11      1.0000 0.54470  0.59540  0.47310  Biso   1.000  H
  H12      1.0000 0.54880  0.53960  0.52710  Biso   1.000  H
  C20      1.0000 0.60150  0.71920  0.53070  Biso   1.000  C
  H13      1.0000 0.66980  0.75060  0.55270  Biso   1.000  H
  H14      1.0000 0.51530  0.73910  0.53440  Biso   1.000  H
  H15      1.0000 0.61100  0.71860  0.48930  Biso   1.000  H
  O10      1.0000 0.59270  0.66930  0.64650  Biso   1.000  O
  Zn3      1.0000 0.50691  0.30775  0.66684  Biso   1.000  Zn
  Zn4      1.0000 0.32630  0.22506  0.77221  Biso   1.000  Zn
  O11      1.0000 0.48820  0.19960  0.65258  Biso   1.000  O
  O12      1.0000 0.47460  0.87580  0.76516  Biso   1.000  O
  O13      1.0000 0.42560  0.15210  0.73405  Biso   1.000  O
  O14      1.0000 0.55230  0.80630  0.69739  Biso   1.000  O
  O15      1.0000 0.32700  0.34140  0.62818  Biso   1.000  O
  O16      1.0000 0.23790  0.28340  0.69820  Biso   1.000  O
  O17      1.0000 0.74400  0.29000  0.68603  Biso   1.000  O
  O18      1.0000 0.62290  0.35310  0.61325  Biso   1.000  O
  O19      1.0000 0.33740  0.19240  0.85540  Biso   1.000  O
  N4       1.0000 0.50620  0.97160  0.51648  Biso   1.000  N
  N5       1.0000 0.94720  0.48740  0.50660  Biso   1.000  N
  N6       1.0000 0.38630  0.14580  0.94660  Biso   1.000  N
  C21      1.0000 0.46050  0.14550  0.68380  Biso   1.000  C
  C22      1.0000 0.47280  0.06830  0.65990  Biso   1.000  C
  C23      1.0000 0.48210  0.05970  0.59980  Biso   1.000  C
  H16      1.0000 0.47960  0.10170  0.57490  Biso   1.000  H
  C24      1.0000 0.49540  0.98630  0.57730  Biso   1.000  C
  C25      1.0000 0.50520  0.92520  0.61500  Biso   1.000  C
  H17      1.0000 0.52030  0.87730  0.60030  Biso   1.000  H
  C26      1.0000 0.49310  0.93330  0.67410  Biso   1.000  C
  C27      1.0000 0.47670  0.00540  0.69540  Biso   1.000  C
  H18      1.0000 0.46790  0.01150  0.73530  Biso   1.000  H
  C28      1.0000 0.50650  0.86700  0.71560  Biso   1.000  C
  C29      1.0000 0.23180  0.32370  0.65240  Biso   1.000  C
  C30      1.0000 0.09680  0.35270  0.62500  Biso   1.000  C
  C31      1.0000 0.08790  0.40440  0.57880  Biso   1.000  C
  H19      1.0000 0.16490  0.42100  0.56570  Biso   1.000  H
  C32      1.0000 0.73620  0.33100  0.64180  Biso   1.000  C
  C33      1.0000 0.85770  0.35640  0.61910  Biso   1.000  C
  C34      1.0000 0.84920  0.40790  0.57300  Biso   1.000  C
  H20      1.0000 0.76640  0.42710  0.55580  Biso   1.000  H
  C35      1.0000 0.96410  0.43170  0.55190  Biso   1.000  C
  C36      1.0000 0.98280  0.33050  0.64660  Biso   1.000  C
  H21      1.0000 0.98970  0.29820  0.67940  Biso   1.000  H
  C37      1.0000 0.37500  0.13990  0.88960  Biso   1.000  C
  C38      1.0000 0.35640  0.06180  0.86130  Biso   1.000  C
  H22      1.0000 0.35200  0.06610  0.81890  Biso   1.000  H
  H23      1.0000 0.27510  0.03980  0.86970  Biso   1.000  H
  H24      1.0000 0.43050  0.03010  0.87760  Biso   1.000  H
  C39      1.0000 0.40450  0.07960  0.98940  Biso   1.000  C
  H25      1.0000 0.31870  0.06150  0.99560  Biso   1.000  H
  H26      1.0000 0.45530  0.09540  0.02690  Biso   1.000  H
  H27      1.0000 0.45120  0.03960  0.97290  Biso   1.000  H
  C40      1.0000 0.39850  0.21920  0.96930  Biso   1.000  C
  H28      1.0000 0.33020  0.25060  0.94730  Biso   1.000  H
  H29      1.0000 0.48470  0.23910  0.96560  Biso   1.000  H
  H30      1.0000 0.38900  0.21860  0.01070  Biso   1.000  H
  O20      1.0000 0.40730  0.16930  0.85350  Biso   1.000  O
  Zn5      1.0000 0.50691  0.19225  0.16684  Biso   1.000  Zn
  Zn6      1.0000 0.32630  0.27494  0.27221  Biso   1.000  Zn
  O21      1.0000 0.48820  0.30040  0.15258  Biso   1.000  O
  O22      1.0000 0.47460  0.62420  0.26516  Biso   1.000  O
  O23      1.0000 0.42560  0.34790  0.23405  Biso   1.000  O
  O24      1.0000 0.55230  0.69370  0.19739  Biso   1.000  O
  O25      1.0000 0.32700  0.15860  0.12818  Biso   1.000  O
  O26      1.0000 0.23790  0.21660  0.19820  Biso   1.000  O
  O27      1.0000 0.74400  0.21000  0.18603  Biso   1.000  O
  O28      1.0000 0.62290  0.14690  0.11325  Biso   1.000  O
  O29      1.0000 0.33740  0.30760  0.35540  Biso   1.000  O
  N7       1.0000 0.50620  0.52840  0.01648  Biso   1.000  N
  N8       1.0000 0.94720  0.01260  0.00660  Biso   1.000  N
  N9       1.0000 0.38630  0.35420  0.44660  Biso   1.000  N
  C41      1.0000 0.46050  0.35450  0.18380  Biso   1.000  C
  C42      1.0000 0.47280  0.43170  0.15990  Biso   1.000  C
  C43      1.0000 0.48210  0.44030  0.09980  Biso   1.000  C
  H31      1.0000 0.47960  0.39830  0.07490  Biso   1.000  H
  C44      1.0000 0.49540  0.51370  0.07730  Biso   1.000  C
  C45      1.0000 0.50520  0.57480  0.11500  Biso   1.000  C
  H32      1.0000 0.52030  0.62270  0.10030  Biso   1.000  H
  C46      1.0000 0.49310  0.56670  0.17410  Biso   1.000  C
  C47      1.0000 0.47670  0.49460  0.19540  Biso   1.000  C
  H33      1.0000 0.46790  0.48850  0.23530  Biso   1.000  H
  C48      1.0000 0.50650  0.63300  0.21560  Biso   1.000  C
  C49      1.0000 0.23180  0.17630  0.15240  Biso   1.000  C
  C50      1.0000 0.09680  0.14730  0.12500  Biso   1.000  C
  C51      1.0000 0.08790  0.09560  0.07880  Biso   1.000  C
  H34      1.0000 0.16490  0.07900  0.06570  Biso   1.000  H
  C52      1.0000 0.73620  0.16900  0.14180  Biso   1.000  C
  C53      1.0000 0.85770  0.14360  0.11910  Biso   1.000  C
  C54      1.0000 0.84920  0.09210  0.07300  Biso   1.000  C
  H35      1.0000 0.76640  0.07290  0.05580  Biso   1.000  H
  C55      1.0000 0.96410  0.06830  0.05190  Biso   1.000  C
  C56      1.0000 0.98280  0.16950  0.14660  Biso   1.000  C
  H36      1.0000 0.98970  0.20180  0.17940  Biso   1.000  H
  C57      1.0000 0.37500  0.36010  0.38960  Biso   1.000  C
  C58      1.0000 0.35640  0.43820  0.36130  Biso   1.000  C
  H37      1.0000 0.35200  0.43390  0.31890  Biso   1.000  H
  H38      1.0000 0.27510  0.46020  0.36970  Biso   1.000  H
  H39      1.0000 0.43050  0.46990  0.37760  Biso   1.000  H
  C59      1.0000 0.40450  0.42040  0.48940  Biso   1.000  C
  H40      1.0000 0.31870  0.43850  0.49560  Biso   1.000  H
  H41      1.0000 0.45530  0.40460  0.52690  Biso   1.000  H
  H42      1.0000 0.45120  0.46040  0.47290  Biso   1.000  H
  C60      1.0000 0.39850  0.28080  0.46930  Biso   1.000  C
  H43      1.0000 0.33020  0.24940  0.44730  Biso   1.000  H
  H44      1.0000 0.48470  0.26090  0.46560  Biso   1.000  H
  H45      1.0000 0.38900  0.28140  0.51070  Biso   1.000  H
  O30      1.0000 0.40730  0.33070  0.35350  Biso   1.000  O
  Zn7      1.0000 0.49309  0.69225  0.33316  Biso   1.000  Zn
  Zn8      1.0000 0.67370  0.77494  0.22779  Biso   1.000  Zn
  O31      1.0000 0.51180  0.80040  0.34742  Biso   1.000  O
  O32      1.0000 0.52540  0.12420  0.23484  Biso   1.000  O
  O33      1.0000 0.57440  0.84790  0.26595  Biso   1.000  O
  O34      1.0000 0.44770  0.19370  0.30261  Biso   1.000  O
  O35      1.0000 0.67300  0.65860  0.37182  Biso   1.000  O
  O36      1.0000 0.76210  0.71660  0.30180  Biso   1.000  O
  O37      1.0000 0.25600  0.71000  0.31397  Biso   1.000  O
  O38      1.0000 0.37710  0.64690  0.38675  Biso   1.000  O
  O39      1.0000 0.66260  0.80760  0.14460  Biso   1.000  O
  N10      1.0000 0.49380  0.02840  0.48352  Biso   1.000  N
  N11      1.0000 0.05280  0.51260  0.49340  Biso   1.000  N
  N12      1.0000 0.61370  0.85420  0.05340  Biso   1.000  N
  C61      1.0000 0.53950  0.85450  0.31620  Biso   1.000  C
  C62      1.0000 0.52720  0.93170  0.34010  Biso   1.000  C
  C63      1.0000 0.51790  0.94030  0.40020  Biso   1.000  C
  H46      1.0000 0.52040  0.89830  0.42510  Biso   1.000  H
  C64      1.0000 0.50460  0.01370  0.42270  Biso   1.000  C
  C65      1.0000 0.49480  0.07480  0.38500  Biso   1.000  C
  H47      1.0000 0.47970  0.12270  0.39970  Biso   1.000  H
  C66      1.0000 0.50690  0.06670  0.32590  Biso   1.000  C
  C67      1.0000 0.52330  0.99460  0.30460  Biso   1.000  C
  H48      1.0000 0.53210  0.98850  0.26470  Biso   1.000  H
  C68      1.0000 0.49350  0.13300  0.28440  Biso   1.000  C
  C69      1.0000 0.76820  0.67630  0.34760  Biso   1.000  C
  C70      1.0000 0.90320  0.64730  0.37500  Biso   1.000  C
  C71      1.0000 0.91210  0.59560  0.42120  Biso   1.000  C
  H49      1.0000 0.83510  0.57900  0.43430  Biso   1.000  H
  C72      1.0000 0.26380  0.66900  0.35820  Biso   1.000  C
  C73      1.0000 0.14230  0.64360  0.38090  Biso   1.000  C
  C74      1.0000 0.15080  0.59210  0.42700  Biso   1.000  C
  H50      1.0000 0.23360  0.57290  0.44420  Biso   1.000  H
  C75      1.0000 0.03590  0.56830  0.44810  Biso   1.000  C
  C76      1.0000 0.01720  0.66950  0.35340  Biso   1.000  C
  H51      1.0000 0.01030  0.70180  0.32060  Biso   1.000  H
  C77      1.0000 0.62500  0.86010  0.11040  Biso   1.000  C
  C78      1.0000 0.64360  0.93820  0.13870  Biso   1.000  C
  H52      1.0000 0.64800  0.93390  0.18110  Biso   1.000  H
  H53      1.0000 0.72490  0.96020  0.13030  Biso   1.000  H
  H54      1.0000 0.56950  0.96990  0.12240  Biso   1.000  H
  C79      1.0000 0.59550  0.92040  0.01060  Biso   1.000  C
  H55      1.0000 0.68130  0.93850  0.00440  Biso   1.000  H
  H56      1.0000 0.54470  0.90460  0.97310  Biso   1.000  H
  H57      1.0000 0.54880  0.96040  0.02710  Biso   1.000  H
  C80      1.0000 0.60150  0.78080  0.03070  Biso   1.000  C
  H58      1.0000 0.66980  0.74940  0.05270  Biso   1.000  H
  H59      1.0000 0.51530  0.76090  0.03440  Biso   1.000  H
  H60      1.0000 0.61100  0.78140  0.98930  Biso   1.000  H
  O40      1.0000 0.59270  0.83070  0.14650  Biso   1.000  O
