data_image0
_cell_length_a       16.1952
_cell_length_b       14.8673
_cell_length_c       7.8938
_cell_angle_alpha    90
_cell_angle_beta     91.783
_cell_angle_gamma    90

_symmetry_space_group_name_H-M    "P 1"
_symmetry_int_tables_number       1

loop_
  _symmetry_equiv_pos_as_xyz
  'x, y, z'

loop_
  _atom_site_label
  _atom_site_occupancy
  _atom_site_fract_x
  _atom_site_fract_y
  _atom_site_fract_z
  _atom_site_thermal_displace_type
  _atom_site_B_iso_or_equiv
  _atom_site_type_symbol
  Er1      1.0000 0.95531  0.88379  0.05025  Biso   1.000  Er
  Ag1      1.0000 0.47352  0.75944  0.60055  Biso   1.000  Ag
  N1       1.0000 0.35730  0.80310  0.69730  Biso   1.000  N
  N2       1.0000 0.59530  0.75190  0.49930  Biso   1.000  N
  C1       1.0000 0.13210  0.91980  0.86290  Biso   1.000  C
  C2       1.0000 0.21080  0.87710  0.80480  Biso   1.000  C
  C3       1.0000 0.28100  0.92820  0.79680  Biso   1.000  C
  H1       1.0000 0.28000  0.98860  0.82710  Biso   1.000  H
  C4       1.0000 0.35270  0.88950  0.74360  Biso   1.000  C
  H2       1.0000 0.40000  0.92470  0.73970  Biso   1.000  H
  C5       1.0000 0.28900  0.75340  0.70660  Biso   1.000  C
  H3       1.0000 0.29140  0.69300  0.67670  Biso   1.000  H
  C6       1.0000 0.21470  0.78790  0.75890  Biso   1.000  C
  H4       1.0000 0.16810  0.75150  0.76300  Biso   1.000  H
  C7       1.0000 0.63420  0.82840  0.46050  Biso   1.000  C
  H5       1.0000 0.60760  0.88290  0.47790  Biso   1.000  H
  C8       1.0000 0.71220  0.82910  0.39590  Biso   1.000  C
  H6       1.0000 0.73720  0.88330  0.36850  Biso   1.000  H
  C9       1.0000 0.75310  0.74880  0.37190  Biso   1.000  C
  C10      1.0000 0.83870  0.74890  0.30280  Biso   1.000  C
  C11      1.0000 0.71360  0.67010  0.41290  Biso   1.000  C
  H7       1.0000 0.73940  0.61490  0.39820  Biso   1.000  H
  C12      1.0000 0.63490  0.67420  0.47630  Biso   1.000  C
  H8       1.0000 0.60850  0.62080  0.50400  Biso   1.000  H
  O1       1.0000 0.07530  0.86720  0.90740  Biso   1.000  O
  O2       1.0000 0.12980  0.00370  0.86180  Biso   1.000  O
  O3       1.0000 0.85978  0.81580  0.21940  Biso   1.000  O
  O4       1.0000 0.88366  0.68130  0.33160  Biso   1.000  O
  O5       1.0000 0.03460  0.88470  0.31300  Biso   1.000  O
  O6       1.0000 0.04760  0.00340  0.15670  Biso   1.000  O
  C13      1.0000 0.06870  0.95910  0.28750  Biso   1.000  C
  C14      1.0000 0.14310  0.98630  0.39500  Biso   1.000  C
  H9       1.0000 0.17280  0.03270  0.33850  Biso   1.000  H
  H10      1.0000 0.17850  0.93510  0.41290  Biso   1.000  H
  H11      1.0000 0.12550  0.00820  0.50240  Biso   1.000  H
  C15      1.0000 0.12640  0.00280  0.41700  Biso   1.000  C
  H12      1.0000 0.11420  0.06590  0.42300  Biso   1.000  H
  H13      1.0000 0.18240  0.99470  0.38360  Biso   1.000  H
  H14      1.0000 0.11910  0.97560  0.52550  Biso   1.000  H
  Er2      1.0000 0.04469  0.38379  0.44975  Biso   1.000  Er
  Ag2      1.0000 0.52648  0.25944  0.89945  Biso   1.000  Ag
  N3       1.0000 0.64270  0.30310  0.80270  Biso   1.000  N
  N4       1.0000 0.40470  0.25190  0.00070  Biso   1.000  N
  C16      1.0000 0.86790  0.41980  0.63710  Biso   1.000  C
  C17      1.0000 0.78920  0.37710  0.69520  Biso   1.000  C
  C18      1.0000 0.71900  0.42820  0.70320  Biso   1.000  C
  H15      1.0000 0.72000  0.48860  0.67290  Biso   1.000  H
  C19      1.0000 0.64730  0.38950  0.75640  Biso   1.000  C
  H16      1.0000 0.60000  0.42470  0.76030  Biso   1.000  H
  C20      1.0000 0.71100  0.25340  0.79340  Biso   1.000  C
  H17      1.0000 0.70860  0.19300  0.82330  Biso   1.000  H
  C21      1.0000 0.78530  0.28790  0.74110  Biso   1.000  C
  H18      1.0000 0.83190  0.25150  0.73700  Biso   1.000  H
  C22      1.0000 0.36580  0.32840  0.03950  Biso   1.000  C
  H19      1.0000 0.39240  0.38290  0.02210  Biso   1.000  H
  C23      1.0000 0.28780  0.32910  0.10410  Biso   1.000  C
  H20      1.0000 0.26280  0.38330  0.13150  Biso   1.000  H
  C24      1.0000 0.24690  0.24880  0.12810  Biso   1.000  C
  C25      1.0000 0.16130  0.24890  0.19720  Biso   1.000  C
  C26      1.0000 0.28640  0.17010  0.08710  Biso   1.000  C
  H21      1.0000 0.26060  0.11490  0.10180  Biso   1.000  H
  C27      1.0000 0.36510  0.17420  0.02370  Biso   1.000  C
  H22      1.0000 0.39150  0.12080  0.99600  Biso   1.000  H
  O7       1.0000 0.92470  0.36720  0.59260  Biso   1.000  O
  O8       1.0000 0.87020  0.50370  0.63820  Biso   1.000  O
  O9       1.0000 0.14022  0.31580  0.28060  Biso   1.000  O
  O10      1.0000 0.11634  0.18130  0.16840  Biso   1.000  O
  O11      1.0000 0.96540  0.38470  0.18700  Biso   1.000  O
  O12      1.0000 0.95240  0.50340  0.34330  Biso   1.000  O
  C28      1.0000 0.93130  0.45910  0.21250  Biso   1.000  C
  C29      1.0000 0.85690  0.48630  0.10500  Biso   1.000  C
  H23      1.0000 0.82720  0.53270  0.16150  Biso   1.000  H
  H24      1.0000 0.82150  0.43510  0.08710  Biso   1.000  H
  H25      1.0000 0.87450  0.50820  0.99760  Biso   1.000  H
  C30      1.0000 0.87360  0.50280  0.08300  Biso   1.000  C
  H26      1.0000 0.88580  0.56590  0.07700  Biso   1.000  H
  H27      1.0000 0.81760  0.49470  0.11640  Biso   1.000  H
  H28      1.0000 0.88090  0.47560  0.97450  Biso   1.000  H
  Er3      1.0000 0.04469  0.11621  0.94975  Biso   1.000  Er
  Ag3      1.0000 0.52648  0.24056  0.39945  Biso   1.000  Ag
  N5       1.0000 0.64270  0.19690  0.30270  Biso   1.000  N
  N6       1.0000 0.40470  0.24810  0.50070  Biso   1.000  N
  C31      1.0000 0.86790  0.08020  0.13710  Biso   1.000  C
  C32      1.0000 0.78920  0.12290  0.19520  Biso   1.000  C
  C33      1.0000 0.71900  0.07180  0.20320  Biso   1.000  C
  H29      1.0000 0.72000  0.01140  0.17290  Biso   1.000  H
  C34      1.0000 0.64730  0.11050  0.25640  Biso   1.000  C
  H30      1.0000 0.60000  0.07530  0.26030  Biso   1.000  H
  C35      1.0000 0.71100  0.24660  0.29340  Biso   1.000  C
  H31      1.0000 0.70860  0.30700  0.32330  Biso   1.000  H
  C36      1.0000 0.78530  0.21210  0.24110  Biso   1.000  C
  H32      1.0000 0.83190  0.24850  0.23700  Biso   1.000  H
  C37      1.0000 0.36580  0.17160  0.53950  Biso   1.000  C
  H33      1.0000 0.39240  0.11710  0.52210  Biso   1.000  H
  C38      1.0000 0.28780  0.17090  0.60410  Biso   1.000  C
  H34      1.0000 0.26280  0.11670  0.63150  Biso   1.000  H
  C39      1.0000 0.24690  0.25120  0.62810  Biso   1.000  C
  C40      1.0000 0.16130  0.25110  0.69720  Biso   1.000  C
  C41      1.0000 0.28640  0.32990  0.58710  Biso   1.000  C
  H35      1.0000 0.26060  0.38510  0.60180  Biso   1.000  H
  C42      1.0000 0.36510  0.32580  0.52370  Biso   1.000  C
  H36      1.0000 0.39150  0.37920  0.49600  Biso   1.000  H
  O13      1.0000 0.92470  0.13280  0.09260  Biso   1.000  O
  O14      1.0000 0.87020  0.99630  0.13820  Biso   1.000  O
  O15      1.0000 0.14022  0.18420  0.78060  Biso   1.000  O
  O16      1.0000 0.11634  0.31870  0.66840  Biso   1.000  O
  O17      1.0000 0.96540  0.11530  0.68700  Biso   1.000  O
  O18      1.0000 0.95240  0.99660  0.84330  Biso   1.000  O
  C43      1.0000 0.93130  0.04090  0.71250  Biso   1.000  C
  C44      1.0000 0.85690  0.01370  0.60500  Biso   1.000  C
  H37      1.0000 0.82720  0.96730  0.66150  Biso   1.000  H
  H38      1.0000 0.82150  0.06490  0.58710  Biso   1.000  H
  H39      1.0000 0.87450  0.99180  0.49760  Biso   1.000  H
  C45      1.0000 0.87360  0.99720  0.58300  Biso   1.000  C
  H40      1.0000 0.88580  0.93410  0.57700  Biso   1.000  H
  H41      1.0000 0.81760  0.00530  0.61640  Biso   1.000  H
  H42      1.0000 0.88090  0.02440  0.47450  Biso   1.000  H
  Er4      1.0000 0.95531  0.61621  0.55025  Biso   1.000  Er
  Ag4      1.0000 0.47352  0.74056  0.10055  Biso   1.000  Ag
  N7       1.0000 0.35730  0.69690  0.19730  Biso   1.000  N
  N8       1.0000 0.59530  0.74810  0.99930  Biso   1.000  N
  C46      1.0000 0.13210  0.58020  0.36290  Biso   1.000  C
  C47      1.0000 0.21080  0.62290  0.30480  Biso   1.000  C
  C48      1.0000 0.28100  0.57180  0.29680  Biso   1.000  C
  H43      1.0000 0.28000  0.51140  0.32710  Biso   1.000  H
  C49      1.0000 0.35270  0.61050  0.24360  Biso   1.000  C
  H44      1.0000 0.40000  0.57530  0.23970  Biso   1.000  H
  C50      1.0000 0.28900  0.74660  0.20660  Biso   1.000  C
  H45      1.0000 0.29140  0.80700  0.17670  Biso   1.000  H
  C51      1.0000 0.21470  0.71210  0.25890  Biso   1.000  C
  H46      1.0000 0.16810  0.74850  0.26300  Biso   1.000  H
  C52      1.0000 0.63420  0.67160  0.96050  Biso   1.000  C
  H47      1.0000 0.60760  0.61710  0.97790  Biso   1.000  H
  C53      1.0000 0.71220  0.67090  0.89590  Biso   1.000  C
  H48      1.0000 0.73720  0.61670  0.86850  Biso   1.000  H
  C54      1.0000 0.75310  0.75120  0.87190  Biso   1.000  C
  C55      1.0000 0.83870  0.75110  0.80280  Biso   1.000  C
  C56      1.0000 0.71360  0.82990  0.91290  Biso   1.000  C
  H49      1.0000 0.73940  0.88510  0.89820  Biso   1.000  H
  C57      1.0000 0.63490  0.82580  0.97630  Biso   1.000  C
  H50      1.0000 0.60850  0.87920  0.00400  Biso   1.000  H
  O19      1.0000 0.07530  0.63280  0.40740  Biso   1.000  O
  O20      1.0000 0.12980  0.49630  0.36180  Biso   1.000  O
  O21      1.0000 0.85978  0.68420  0.71940  Biso   1.000  O
  O22      1.0000 0.88366  0.81870  0.83160  Biso   1.000  O
  O23      1.0000 0.03460  0.61530  0.81300  Biso   1.000  O
  O24      1.0000 0.04760  0.49660  0.65670  Biso   1.000  O
  C58      1.0000 0.06870  0.54090  0.78750  Biso   1.000  C
  C59      1.0000 0.14310  0.51370  0.89500  Biso   1.000  C
  H51      1.0000 0.17280  0.46730  0.83850  Biso   1.000  H
  H52      1.0000 0.17850  0.56490  0.91290  Biso   1.000  H
  H53      1.0000 0.12550  0.49180  0.00240  Biso   1.000  H
  C60      1.0000 0.12640  0.49720  0.91700  Biso   1.000  C
  H54      1.0000 0.11420  0.43410  0.92300  Biso   1.000  H
  H55      1.0000 0.18240  0.50530  0.88360  Biso   1.000  H
  H56      1.0000 0.11910  0.52440  0.02550  Biso   1.000  H
