data_image0
_cell_length_a       16.2158
_cell_length_b       14.9024
_cell_length_c       7.9068
_cell_angle_alpha    90
_cell_angle_beta     91.826
_cell_angle_gamma    90

_symmetry_space_group_name_H-M    "P 1"
_symmetry_int_tables_number       1

loop_
  _symmetry_equiv_pos_as_xyz
  'x, y, z'

loop_
  _atom_site_label
  _atom_site_occupancy
  _atom_site_fract_x
  _atom_site_fract_y
  _atom_site_fract_z
  _atom_site_thermal_displace_type
  _atom_site_B_iso_or_equiv
  _atom_site_type_symbol
  Ho1      1.0000 0.45498  0.38381  0.04996  Biso   1.000  Ho
  Ag1      1.0000 0.02677  0.74033  0.39967  Biso   1.000  Ag
  C1       1.0000 0.36770  0.58080  0.13780  Biso   1.000  C
  C2       1.0000 0.28920  0.62360  0.19590  Biso   1.000  C
  C3       1.0000 0.21910  0.57200  0.20360  Biso   1.000  C
  H1       1.0000 0.21990  0.51170  0.17320  Biso   1.000  H
  C4       1.0000 0.14740  0.61140  0.25730  Biso   1.000  C
  H2       1.0000 0.10020  0.57620  0.26200  Biso   1.000  H
  C5       1.0000 0.21110  0.74700  0.29360  Biso   1.000  C
  H3       1.0000 0.20860  0.80720  0.32390  Biso   1.000  H
  C6       1.0000 0.28520  0.71280  0.24120  Biso   1.000  C
  H4       1.0000 0.33150  0.74930  0.23660  Biso   1.000  H
  C7       1.0000 0.13360  0.17190  0.95950  Biso   1.000  C
  H5       1.0000 0.10660  0.11760  0.97490  Biso   1.000  H
  C8       1.0000 0.21200  0.17070  0.89570  Biso   1.000  C
  H6       1.0000 0.23720  0.11660  0.86980  Biso   1.000  H
  C9       1.0000 0.25210  0.25100  0.87110  Biso   1.000  C
  C10      1.0000 0.33750  0.25100  0.80170  Biso   1.000  C
  C11      1.0000 0.21250  0.32950  0.91280  Biso   1.000  C
  H7       1.0000 0.23820  0.38460  0.89830  Biso   1.000  H
  C12      1.0000 0.13430  0.32540  0.97620  Biso   1.000  C
  H8       1.0000 0.10800  0.37870  0.00340  Biso   1.000  H
  N1       1.0000 0.14270  0.69690  0.30260  Biso   1.000  N
  N2       1.0000 0.09500  0.24800  0.00010  Biso   1.000  N
  O1       1.0000 0.42420  0.63320  0.09280  Biso   1.000  O
  O2       1.0000 0.36990  0.49710  0.13840  Biso   1.000  O
  O3       1.0000 0.35906  0.18441  0.71900  Biso   1.000  O
  O4       1.0000 0.38257  0.31880  0.83090  Biso   1.000  O
  O5       1.0000 0.54736  0.50350  0.15830  Biso   1.000  O
  O6       1.0000 0.53440  0.38470  0.31290  Biso   1.000  O
  C13      1.0000 0.56910  0.45890  0.28760  Biso   1.000  C
  C14      1.0000 0.64500  0.48860  0.38800  Biso   1.000  C
  H9       1.0000 0.65450  0.44860  0.48210  Biso   1.000  H
  H10      1.0000 0.63680  0.54840  0.42970  Biso   1.000  H
  H11      1.0000 0.69180  0.48770  0.31710  Biso   1.000  H
  C15      1.0000 0.62560  0.49910  0.42300  Biso   1.000  C
  H12      1.0000 0.59560  0.50740  0.52470  Biso   1.000  H
  H13      1.0000 0.64570  0.55600  0.38520  Biso   1.000  H
  H14      1.0000 0.67130  0.45940  0.44550  Biso   1.000  H
  Ho2      1.0000 0.54502  0.88381  0.45004  Biso   1.000  Ho
  Ag2      1.0000 0.97323  0.24033  0.10033  Biso   1.000  Ag
  C16      1.0000 0.63230  0.08080  0.36220  Biso   1.000  C
  C17      1.0000 0.71080  0.12360  0.30410  Biso   1.000  C
  C18      1.0000 0.78090  0.07200  0.29640  Biso   1.000  C
  H15      1.0000 0.78010  0.01170  0.32680  Biso   1.000  H
  C19      1.0000 0.85260  0.11140  0.24270  Biso   1.000  C
  H16      1.0000 0.89980  0.07620  0.23800  Biso   1.000  H
  C20      1.0000 0.78890  0.24700  0.20640  Biso   1.000  C
  H17      1.0000 0.79140  0.30720  0.17610  Biso   1.000  H
  C21      1.0000 0.71480  0.21280  0.25880  Biso   1.000  C
  H18      1.0000 0.66850  0.24930  0.26340  Biso   1.000  H
  C22      1.0000 0.86640  0.67190  0.54050  Biso   1.000  C
  H19      1.0000 0.89340  0.61760  0.52510  Biso   1.000  H
  C23      1.0000 0.78800  0.67070  0.60430  Biso   1.000  C
  H20      1.0000 0.76280  0.61660  0.63020  Biso   1.000  H
  C24      1.0000 0.74790  0.75100  0.62890  Biso   1.000  C
  C25      1.0000 0.66250  0.75100  0.69830  Biso   1.000  C
  C26      1.0000 0.78750  0.82950  0.58720  Biso   1.000  C
  H21      1.0000 0.76180  0.88460  0.60170  Biso   1.000  H
  C27      1.0000 0.86570  0.82540  0.52380  Biso   1.000  C
  H22      1.0000 0.89200  0.87870  0.49660  Biso   1.000  H
  N3       1.0000 0.85730  0.19690  0.19740  Biso   1.000  N
  N4       1.0000 0.90500  0.74800  0.49990  Biso   1.000  N
  O7       1.0000 0.57580  0.13320  0.40720  Biso   1.000  O
  O8       1.0000 0.63010  0.99710  0.36160  Biso   1.000  O
  O9       1.0000 0.64094  0.68441  0.78100  Biso   1.000  O
  O10      1.0000 0.61743  0.81880  0.66910  Biso   1.000  O
  O11      1.0000 0.45264  0.00350  0.34170  Biso   1.000  O
  O12      1.0000 0.46560  0.88470  0.18710  Biso   1.000  O
  C28      1.0000 0.43090  0.95890  0.21240  Biso   1.000  C
  C29      1.0000 0.35500  0.98860  0.11200  Biso   1.000  C
  H23      1.0000 0.34550  0.94860  0.01790  Biso   1.000  H
  H24      1.0000 0.36320  0.04840  0.07030  Biso   1.000  H
  H25      1.0000 0.30820  0.98770  0.18290  Biso   1.000  H
  C30      1.0000 0.37440  0.99910  0.07700  Biso   1.000  C
  H26      1.0000 0.40440  0.00740  0.97530  Biso   1.000  H
  H27      1.0000 0.35430  0.05600  0.11480  Biso   1.000  H
  H28      1.0000 0.32870  0.95940  0.05450  Biso   1.000  H
  Ho3      1.0000 0.54502  0.61619  0.95004  Biso   1.000  Ho
  Ag3      1.0000 0.97323  0.25967  0.60033  Biso   1.000  Ag
  C31      1.0000 0.63230  0.41920  0.86220  Biso   1.000  C
  C32      1.0000 0.71080  0.37640  0.80410  Biso   1.000  C
  C33      1.0000 0.78090  0.42800  0.79640  Biso   1.000  C
  H29      1.0000 0.78010  0.48830  0.82680  Biso   1.000  H
  C34      1.0000 0.85260  0.38860  0.74270  Biso   1.000  C
  H30      1.0000 0.89980  0.42380  0.73800  Biso   1.000  H
  C35      1.0000 0.78890  0.25300  0.70640  Biso   1.000  C
  H31      1.0000 0.79140  0.19280  0.67610  Biso   1.000  H
  C36      1.0000 0.71480  0.28720  0.75880  Biso   1.000  C
  H32      1.0000 0.66850  0.25070  0.76340  Biso   1.000  H
  C37      1.0000 0.86640  0.82810  0.04050  Biso   1.000  C
  H33      1.0000 0.89340  0.88240  0.02510  Biso   1.000  H
  C38      1.0000 0.78800  0.82930  0.10430  Biso   1.000  C
  H34      1.0000 0.76280  0.88340  0.13020  Biso   1.000  H
  C39      1.0000 0.74790  0.74900  0.12890  Biso   1.000  C
  C40      1.0000 0.66250  0.74900  0.19830  Biso   1.000  C
  C41      1.0000 0.78750  0.67050  0.08720  Biso   1.000  C
  H35      1.0000 0.76180  0.61540  0.10170  Biso   1.000  H
  C42      1.0000 0.86570  0.67460  0.02380  Biso   1.000  C
  H36      1.0000 0.89200  0.62130  0.99660  Biso   1.000  H
  N5       1.0000 0.85730  0.30310  0.69740  Biso   1.000  N
  N6       1.0000 0.90500  0.75200  0.99990  Biso   1.000  N
  O13      1.0000 0.57580  0.36680  0.90720  Biso   1.000  O
  O14      1.0000 0.63010  0.50290  0.86160  Biso   1.000  O
  O15      1.0000 0.64094  0.81559  0.28100  Biso   1.000  O
  O16      1.0000 0.61743  0.68120  0.16910  Biso   1.000  O
  O17      1.0000 0.45264  0.49650  0.84170  Biso   1.000  O
  O18      1.0000 0.46560  0.61530  0.68710  Biso   1.000  O
  C43      1.0000 0.43090  0.54110  0.71240  Biso   1.000  C
  C44      1.0000 0.35500  0.51140  0.61200  Biso   1.000  C
  H37      1.0000 0.34550  0.55140  0.51790  Biso   1.000  H
  H38      1.0000 0.36320  0.45160  0.57030  Biso   1.000  H
  H39      1.0000 0.30820  0.51230  0.68290  Biso   1.000  H
  C45      1.0000 0.37440  0.50090  0.57700  Biso   1.000  C
  H40      1.0000 0.40440  0.49260  0.47530  Biso   1.000  H
  H41      1.0000 0.35430  0.44400  0.61480  Biso   1.000  H
  H42      1.0000 0.32870  0.54060  0.55450  Biso   1.000  H
  Ho4      1.0000 0.45498  0.11619  0.54996  Biso   1.000  Ho
  Ag4      1.0000 0.02677  0.75967  0.89967  Biso   1.000  Ag
  C46      1.0000 0.36770  0.91920  0.63780  Biso   1.000  C
  C47      1.0000 0.28920  0.87640  0.69590  Biso   1.000  C
  C48      1.0000 0.21910  0.92800  0.70360  Biso   1.000  C
  H43      1.0000 0.21990  0.98830  0.67320  Biso   1.000  H
  C49      1.0000 0.14740  0.88860  0.75730  Biso   1.000  C
  H44      1.0000 0.10020  0.92380  0.76200  Biso   1.000  H
  C50      1.0000 0.21110  0.75300  0.79360  Biso   1.000  C
  H45      1.0000 0.20860  0.69280  0.82390  Biso   1.000  H
  C51      1.0000 0.28520  0.78720  0.74120  Biso   1.000  C
  H46      1.0000 0.33150  0.75070  0.73660  Biso   1.000  H
  C52      1.0000 0.13360  0.32810  0.45950  Biso   1.000  C
  H47      1.0000 0.10660  0.38240  0.47490  Biso   1.000  H
  C53      1.0000 0.21200  0.32930  0.39570  Biso   1.000  C
  H48      1.0000 0.23720  0.38340  0.36980  Biso   1.000  H
  C54      1.0000 0.25210  0.24900  0.37110  Biso   1.000  C
  C55      1.0000 0.33750  0.24900  0.30170  Biso   1.000  C
  C56      1.0000 0.21250  0.17050  0.41280  Biso   1.000  C
  H49      1.0000 0.23820  0.11540  0.39830  Biso   1.000  H
  C57      1.0000 0.13430  0.17460  0.47620  Biso   1.000  C
  H50      1.0000 0.10800  0.12130  0.50340  Biso   1.000  H
  N7       1.0000 0.14270  0.80310  0.80260  Biso   1.000  N
  N8       1.0000 0.09500  0.25200  0.50010  Biso   1.000  N
  O19      1.0000 0.42420  0.86680  0.59280  Biso   1.000  O
  O20      1.0000 0.36990  0.00290  0.63840  Biso   1.000  O
  O21      1.0000 0.35906  0.31559  0.21900  Biso   1.000  O
  O22      1.0000 0.38257  0.18120  0.33090  Biso   1.000  O
  O23      1.0000 0.54736  0.99650  0.65830  Biso   1.000  O
  O24      1.0000 0.53440  0.11530  0.81290  Biso   1.000  O
  C58      1.0000 0.56910  0.04110  0.78760  Biso   1.000  C
  C59      1.0000 0.64500  0.01140  0.88800  Biso   1.000  C
  H51      1.0000 0.65450  0.05140  0.98210  Biso   1.000  H
  H52      1.0000 0.63680  0.95160  0.92970  Biso   1.000  H
  H53      1.0000 0.69180  0.01230  0.81710  Biso   1.000  H
  C60      1.0000 0.62560  0.00090  0.92300  Biso   1.000  C
  H54      1.0000 0.59560  0.99260  0.02470  Biso   1.000  H
  H55      1.0000 0.64570  0.94400  0.88520  Biso   1.000  H
  H56      1.0000 0.67130  0.04060  0.94550  Biso   1.000  H
