data_image0
_cell_length_a       28.7611
_cell_length_b       28.7611
_cell_length_c       8.1675
_cell_angle_alpha    90
_cell_angle_beta     90
_cell_angle_gamma    120

_symmetry_space_group_name_H-M    "P 1"
_symmetry_int_tables_number       1

loop_
  _symmetry_equiv_pos_as_xyz
  'x, y, z'

loop_
  _atom_site_label
  _atom_site_occupancy
  _atom_site_fract_x
  _atom_site_fract_y
  _atom_site_fract_z
  _atom_site_thermal_displace_type
  _atom_site_B_iso_or_equiv
  _atom_site_type_symbol
  C1       1.0000 0.21600  0.57600  0.91000  Biso   1.000  C
  H1       1.0000 0.24560  0.56930  0.91780  Biso   1.000  H
  C2       1.0000 0.18500  0.56100  0.76000  Biso   1.000  C
  H2       1.0000 0.19270  0.54590  0.66750  Biso   1.000  H
  C3       1.0000 0.16100  0.60900  0.02700  Biso   1.000  C
  H3       1.0000 0.15260  0.62540  0.11700  Biso   1.000  H
  C4       1.0000 0.12400  0.59100  0.88500  Biso   1.000  C
  H4       1.0000 0.09490  0.59810  0.87750  Biso   1.000  H
  C5       1.0000 0.08740  0.58540  0.53600  Biso   1.000  C
  C6       1.0000 0.05690  0.56990  0.39100  Biso   1.000  C
  C7       1.0000 0.03930  0.60600  0.31600  Biso   1.000  C
  O1       1.0000 0.01410  0.59080  0.18200  Biso   1.000  O
  O2       1.0000 0.05050  0.64860  0.39100  Biso   1.000  O
  H5       1.0000 0.08970  0.61570  0.59160  Biso   1.000  H
  C8       1.0000 0.88267  0.90933  0.24333  Biso   1.000  C
  H6       1.0000 0.91227  0.90263  0.25113  Biso   1.000  H
  C9       1.0000 0.85167  0.89433  0.09333  Biso   1.000  C
  H7       1.0000 0.85937  0.87923  0.00083  Biso   1.000  H
  C10      1.0000 0.82767  0.94233  0.36033  Biso   1.000  C
  H8       1.0000 0.81927  0.95873  0.45033  Biso   1.000  H
  C11      1.0000 0.79067  0.92433  0.21833  Biso   1.000  C
  H9       1.0000 0.76157  0.93143  0.21083  Biso   1.000  H
  C12      1.0000 0.75407  0.91873  0.86933  Biso   1.000  C
  C13      1.0000 0.72357  0.90323  0.72433  Biso   1.000  C
  C14      1.0000 0.70597  0.93933  0.64933  Biso   1.000  C
  O3       1.0000 0.68077  0.92413  0.51533  Biso   1.000  O
  O4       1.0000 0.71717  0.98193  0.72433  Biso   1.000  O
  H10      1.0000 0.75637  0.94903  0.92493  Biso   1.000  H
  C15      1.0000 0.54933  0.24267  0.57667  Biso   1.000  C
  H11      1.0000 0.57893  0.23597  0.58447  Biso   1.000  H
  C16      1.0000 0.51833  0.22767  0.42667  Biso   1.000  C
  H12      1.0000 0.52603  0.21257  0.33417  Biso   1.000  H
  C17      1.0000 0.49433  0.27567  0.69367  Biso   1.000  C
  H13      1.0000 0.48593  0.29207  0.78367  Biso   1.000  H
  C18      1.0000 0.45733  0.25767  0.55167  Biso   1.000  C
  H14      1.0000 0.42823  0.26477  0.54417  Biso   1.000  H
  C19      1.0000 0.42073  0.25207  0.20267  Biso   1.000  C
  C20      1.0000 0.39023  0.23657  0.05767  Biso   1.000  C
  C21      1.0000 0.37263  0.27267  0.98267  Biso   1.000  C
  O5       1.0000 0.34743  0.25747  0.84867  Biso   1.000  O
  O6       1.0000 0.38383  0.31527  0.05767  Biso   1.000  O
  H15      1.0000 0.42303  0.28237  0.25827  Biso   1.000  H
  C22      1.0000 0.42400  0.64000  0.91000  Biso   1.000  C
  H16      1.0000 0.43070  0.67630  0.91780  Biso   1.000  H
  C23      1.0000 0.43900  0.62400  0.76000  Biso   1.000  C
  H17      1.0000 0.45410  0.64680  0.66750  Biso   1.000  H
  C24      1.0000 0.39100  0.55200  0.02700  Biso   1.000  C
  H18      1.0000 0.37460  0.52720  0.11700  Biso   1.000  H
  C25      1.0000 0.40900  0.53300  0.88500  Biso   1.000  C
  H19      1.0000 0.40190  0.49680  0.87750  Biso   1.000  H
  C26      1.0000 0.41460  0.50200  0.53600  Biso   1.000  C
  C27      1.0000 0.43010  0.48700  0.39100  Biso   1.000  C
  C28      1.0000 0.39400  0.43330  0.31600  Biso   1.000  C
  O7       1.0000 0.40920  0.42330  0.18200  Biso   1.000  O
  O8       1.0000 0.35140  0.40190  0.39100  Biso   1.000  O
  H20      1.0000 0.38430  0.47400  0.59160  Biso   1.000  H
  C29      1.0000 0.09067  0.97333  0.24333  Biso   1.000  C
  H21      1.0000 0.09737  0.00963  0.25113  Biso   1.000  H
  C30      1.0000 0.10567  0.95733  0.09333  Biso   1.000  C
  H22      1.0000 0.12077  0.98013  0.00083  Biso   1.000  H
  C31      1.0000 0.05767  0.88533  0.36033  Biso   1.000  C
  H23      1.0000 0.04127  0.86053  0.45033  Biso   1.000  H
  C32      1.0000 0.07567  0.86633  0.21833  Biso   1.000  C
  H24      1.0000 0.06857  0.83013  0.21083  Biso   1.000  H
  C33      1.0000 0.08127  0.83533  0.86933  Biso   1.000  C
  C34      1.0000 0.09677  0.82033  0.72433  Biso   1.000  C
  C35      1.0000 0.06067  0.76663  0.64933  Biso   1.000  C
  O9       1.0000 0.07587  0.75663  0.51533  Biso   1.000  O
  O10      1.0000 0.01807  0.73523  0.72433  Biso   1.000  O
  H25      1.0000 0.05097  0.80733  0.92493  Biso   1.000  H
  C36      1.0000 0.75733  0.30667  0.57667  Biso   1.000  C
  H26      1.0000 0.76403  0.34297  0.58447  Biso   1.000  H
  C37      1.0000 0.77233  0.29067  0.42667  Biso   1.000  C
  H27      1.0000 0.78743  0.31347  0.33417  Biso   1.000  H
  C38      1.0000 0.72433  0.21867  0.69367  Biso   1.000  C
  H28      1.0000 0.70793  0.19387  0.78367  Biso   1.000  H
  C39      1.0000 0.74233  0.19967  0.55167  Biso   1.000  C
  H29      1.0000 0.73523  0.16347  0.54417  Biso   1.000  H
  C40      1.0000 0.74793  0.16867  0.20267  Biso   1.000  C
  C41      1.0000 0.76343  0.15367  0.05767  Biso   1.000  C
  C42      1.0000 0.72733  0.09997  0.98267  Biso   1.000  C
  O11      1.0000 0.74253  0.08997  0.84867  Biso   1.000  O
  O12      1.0000 0.68473  0.06857  0.05767  Biso   1.000  O
  H30      1.0000 0.71763  0.14067  0.25827  Biso   1.000  H
  C43      1.0000 0.36000  0.78400  0.91000  Biso   1.000  C
  H31      1.0000 0.32370  0.75440  0.91780  Biso   1.000  H
  C44      1.0000 0.37600  0.81500  0.76000  Biso   1.000  C
  H32      1.0000 0.35320  0.80730  0.66750  Biso   1.000  H
  C45      1.0000 0.44800  0.83900  0.02700  Biso   1.000  C
  H33      1.0000 0.47280  0.84740  0.11700  Biso   1.000  H
  C46      1.0000 0.46700  0.87600  0.88500  Biso   1.000  C
  H34      1.0000 0.50320  0.90510  0.87750  Biso   1.000  H
  C47      1.0000 0.49800  0.91260  0.53600  Biso   1.000  C
  C48      1.0000 0.51300  0.94310  0.39100  Biso   1.000  C
  C49      1.0000 0.56670  0.96070  0.31600  Biso   1.000  C
  O13      1.0000 0.57670  0.98590  0.18200  Biso   1.000  O
  O14      1.0000 0.59810  0.94950  0.39100  Biso   1.000  O
  H35      1.0000 0.52600  0.91030  0.59160  Biso   1.000  H
  C50      1.0000 0.02667  0.11733  0.24333  Biso   1.000  C
  H36      1.0000 0.99037  0.08773  0.25113  Biso   1.000  H
  C51      1.0000 0.04267  0.14833  0.09333  Biso   1.000  C
  H37      1.0000 0.01987  0.14063  0.00083  Biso   1.000  H
  C52      1.0000 0.11467  0.17233  0.36033  Biso   1.000  C
  H38      1.0000 0.13947  0.18073  0.45033  Biso   1.000  H
  C53      1.0000 0.13367  0.20933  0.21833  Biso   1.000  C
  H39      1.0000 0.16987  0.23843  0.21083  Biso   1.000  H
  C54      1.0000 0.16467  0.24593  0.86933  Biso   1.000  C
  C55      1.0000 0.17967  0.27643  0.72433  Biso   1.000  C
  C56      1.0000 0.23337  0.29403  0.64933  Biso   1.000  C
  O15      1.0000 0.24337  0.31923  0.51533  Biso   1.000  O
  O16      1.0000 0.26477  0.28283  0.72433  Biso   1.000  O
  H40      1.0000 0.19267  0.24363  0.92493  Biso   1.000  H
  C57      1.0000 0.69333  0.45067  0.57667  Biso   1.000  C
  H41      1.0000 0.65703  0.42107  0.58447  Biso   1.000  H
  C58      1.0000 0.70933  0.48167  0.42667  Biso   1.000  C
  H42      1.0000 0.68653  0.47397  0.33417  Biso   1.000  H
  C59      1.0000 0.78133  0.50567  0.69367  Biso   1.000  C
  H43      1.0000 0.80613  0.51407  0.78367  Biso   1.000  H
  C60      1.0000 0.80033  0.54267  0.55167  Biso   1.000  C
  H44      1.0000 0.83653  0.57177  0.54417  Biso   1.000  H
  C61      1.0000 0.83133  0.57927  0.20267  Biso   1.000  C
  C62      1.0000 0.84633  0.60977  0.05767  Biso   1.000  C
  C63      1.0000 0.90003  0.62737  0.98267  Biso   1.000  C
  O17      1.0000 0.91003  0.65257  0.84867  Biso   1.000  O
  O18      1.0000 0.93143  0.61617  0.05767  Biso   1.000  O
  H45      1.0000 0.85933  0.57697  0.25827  Biso   1.000  H
  C64      1.0000 0.57600  0.21600  0.09000  Biso   1.000  C
  H46      1.0000 0.56930  0.24560  0.08220  Biso   1.000  H
  C65      1.0000 0.56100  0.18500  0.24000  Biso   1.000  C
  H47      1.0000 0.54590  0.19270  0.33250  Biso   1.000  H
  C66      1.0000 0.60900  0.16100  0.97300  Biso   1.000  C
  H48      1.0000 0.62540  0.15260  0.88300  Biso   1.000  H
  C67      1.0000 0.59100  0.12400  0.11500  Biso   1.000  C
  H49      1.0000 0.59810  0.09490  0.12250  Biso   1.000  H
  C68      1.0000 0.58540  0.08740  0.46400  Biso   1.000  C
  C69      1.0000 0.56990  0.05690  0.60900  Biso   1.000  C
  C70      1.0000 0.60600  0.03930  0.68400  Biso   1.000  C
  O19      1.0000 0.59080  0.01410  0.81800  Biso   1.000  O
  O20      1.0000 0.64860  0.05050  0.60900  Biso   1.000  O
  H50      1.0000 0.61570  0.08970  0.40840  Biso   1.000  H
  C71      1.0000 0.24267  0.54933  0.42333  Biso   1.000  C
  H51      1.0000 0.23597  0.57893  0.41553  Biso   1.000  H
  C72      1.0000 0.22767  0.51833  0.57333  Biso   1.000  C
  H52      1.0000 0.21257  0.52603  0.66583  Biso   1.000  H
  C73      1.0000 0.27567  0.49433  0.30633  Biso   1.000  C
  H53      1.0000 0.29207  0.48593  0.21633  Biso   1.000  H
  C74      1.0000 0.25767  0.45733  0.44833  Biso   1.000  C
  H54      1.0000 0.26477  0.42823  0.45583  Biso   1.000  H
  C75      1.0000 0.25207  0.42073  0.79733  Biso   1.000  C
  C76      1.0000 0.23657  0.39023  0.94233  Biso   1.000  C
  C77      1.0000 0.27267  0.37263  0.01733  Biso   1.000  C
  O21      1.0000 0.25747  0.34743  0.15133  Biso   1.000  O
  O22      1.0000 0.31527  0.38383  0.94233  Biso   1.000  O
  H55      1.0000 0.28237  0.42303  0.74173  Biso   1.000  H
  C78      1.0000 0.90933  0.88267  0.75667  Biso   1.000  C
  H56      1.0000 0.90263  0.91227  0.74887  Biso   1.000  H
  C79      1.0000 0.89433  0.85167  0.90667  Biso   1.000  C
  H57      1.0000 0.87923  0.85937  0.99917  Biso   1.000  H
  C80      1.0000 0.94233  0.82767  0.63967  Biso   1.000  C
  H58      1.0000 0.95873  0.81927  0.54967  Biso   1.000  H
  C81      1.0000 0.92433  0.79067  0.78167  Biso   1.000  C
  H59      1.0000 0.93143  0.76157  0.78917  Biso   1.000  H
  C82      1.0000 0.91873  0.75407  0.13067  Biso   1.000  C
  C83      1.0000 0.90323  0.72357  0.27567  Biso   1.000  C
  C84      1.0000 0.93933  0.70597  0.35067  Biso   1.000  C
  O23      1.0000 0.92413  0.68077  0.48467  Biso   1.000  O
  O24      1.0000 0.98193  0.71717  0.27567  Biso   1.000  O
  H60      1.0000 0.94903  0.75637  0.07507  Biso   1.000  H
  C85      1.0000 0.64000  0.42400  0.09000  Biso   1.000  C
  H61      1.0000 0.67630  0.43070  0.08220  Biso   1.000  H
  C86      1.0000 0.62400  0.43900  0.24000  Biso   1.000  C
  H62      1.0000 0.64680  0.45410  0.33250  Biso   1.000  H
  C87      1.0000 0.55200  0.39100  0.97300  Biso   1.000  C
  H63      1.0000 0.52720  0.37460  0.88300  Biso   1.000  H
  C88      1.0000 0.53300  0.40900  0.11500  Biso   1.000  C
  H64      1.0000 0.49680  0.40190  0.12250  Biso   1.000  H
  C89      1.0000 0.50200  0.41460  0.46400  Biso   1.000  C
  C90      1.0000 0.48700  0.43010  0.60900  Biso   1.000  C
  C91      1.0000 0.43330  0.39400  0.68400  Biso   1.000  C
  O25      1.0000 0.42330  0.40920  0.81800  Biso   1.000  O
  O26      1.0000 0.40190  0.35140  0.60900  Biso   1.000  O
  H65      1.0000 0.47400  0.38430  0.40840  Biso   1.000  H
  C92      1.0000 0.30667  0.75733  0.42333  Biso   1.000  C
  H66      1.0000 0.34297  0.76403  0.41553  Biso   1.000  H
  C93      1.0000 0.29067  0.77233  0.57333  Biso   1.000  C
  H67      1.0000 0.31347  0.78743  0.66583  Biso   1.000  H
  C94      1.0000 0.21867  0.72433  0.30633  Biso   1.000  C
  H68      1.0000 0.19387  0.70793  0.21633  Biso   1.000  H
  C95      1.0000 0.19967  0.74233  0.44833  Biso   1.000  C
  H69      1.0000 0.16347  0.73523  0.45583  Biso   1.000  H
  C96      1.0000 0.16867  0.74793  0.79733  Biso   1.000  C
  C97      1.0000 0.15367  0.76343  0.94233  Biso   1.000  C
  C98      1.0000 0.09997  0.72733  0.01733  Biso   1.000  C
  O27      1.0000 0.08997  0.74253  0.15133  Biso   1.000  O
  O28      1.0000 0.06857  0.68473  0.94233  Biso   1.000  O
  H70      1.0000 0.14067  0.71763  0.74173  Biso   1.000  H
  C99      1.0000 0.97333  0.09067  0.75667  Biso   1.000  C
  H71      1.0000 0.00963  0.09737  0.74887  Biso   1.000  H
  C100     1.0000 0.95733  0.10567  0.90667  Biso   1.000  C
  H72      1.0000 0.98013  0.12077  0.99917  Biso   1.000  H
  C101     1.0000 0.88533  0.05767  0.63967  Biso   1.000  C
  H73      1.0000 0.86053  0.04127  0.54967  Biso   1.000  H
  C102     1.0000 0.86633  0.07567  0.78167  Biso   1.000  C
  H74      1.0000 0.83013  0.06857  0.78917  Biso   1.000  H
  C103     1.0000 0.83533  0.08127  0.13067  Biso   1.000  C
  C104     1.0000 0.82033  0.09677  0.27567  Biso   1.000  C
  C105     1.0000 0.76663  0.06067  0.35067  Biso   1.000  C
  O29      1.0000 0.75663  0.07587  0.48467  Biso   1.000  O
  O30      1.0000 0.73523  0.01807  0.27567  Biso   1.000  O
  H75      1.0000 0.80733  0.05097  0.07507  Biso   1.000  H
  C106     1.0000 0.78400  0.36000  0.09000  Biso   1.000  C
  H76      1.0000 0.75440  0.32370  0.08220  Biso   1.000  H
  C107     1.0000 0.81500  0.37600  0.24000  Biso   1.000  C
  H77      1.0000 0.80730  0.35320  0.33250  Biso   1.000  H
  C108     1.0000 0.83900  0.44800  0.97300  Biso   1.000  C
  H78      1.0000 0.84740  0.47280  0.88300  Biso   1.000  H
  C109     1.0000 0.87600  0.46700  0.11500  Biso   1.000  C
  H79      1.0000 0.90510  0.50320  0.12250  Biso   1.000  H
  C110     1.0000 0.91260  0.49800  0.46400  Biso   1.000  C
  C111     1.0000 0.94310  0.51300  0.60900  Biso   1.000  C
  C112     1.0000 0.96070  0.56670  0.68400  Biso   1.000  C
  O31      1.0000 0.98590  0.57670  0.81800  Biso   1.000  O
  O32      1.0000 0.94950  0.59810  0.60900  Biso   1.000  O
  H80      1.0000 0.91030  0.52600  0.40840  Biso   1.000  H
  C113     1.0000 0.45067  0.69333  0.42333  Biso   1.000  C
  H81      1.0000 0.42107  0.65703  0.41553  Biso   1.000  H
  C114     1.0000 0.48167  0.70933  0.57333  Biso   1.000  C
  H82      1.0000 0.47397  0.68653  0.66583  Biso   1.000  H
  C115     1.0000 0.50567  0.78133  0.30633  Biso   1.000  C
  H83      1.0000 0.51407  0.80613  0.21633  Biso   1.000  H
  C116     1.0000 0.54267  0.80033  0.44833  Biso   1.000  C
  H84      1.0000 0.57177  0.83653  0.45583  Biso   1.000  H
  C117     1.0000 0.57927  0.83133  0.79733  Biso   1.000  C
  C118     1.0000 0.60977  0.84633  0.94233  Biso   1.000  C
  C119     1.0000 0.62737  0.90003  0.01733  Biso   1.000  C
  O33      1.0000 0.65257  0.91003  0.15133  Biso   1.000  O
  O34      1.0000 0.61617  0.93143  0.94233  Biso   1.000  O
  H85      1.0000 0.57697  0.85933  0.74173  Biso   1.000  H
  C120     1.0000 0.11733  0.02667  0.75667  Biso   1.000  C
  H86      1.0000 0.08773  0.99037  0.74887  Biso   1.000  H
  C121     1.0000 0.14833  0.04267  0.90667  Biso   1.000  C
  H87      1.0000 0.14063  0.01987  0.99917  Biso   1.000  H
  C122     1.0000 0.17233  0.11467  0.63967  Biso   1.000  C
  H88      1.0000 0.18073  0.13947  0.54967  Biso   1.000  H
  C123     1.0000 0.20933  0.13367  0.78167  Biso   1.000  C
  H89      1.0000 0.23843  0.16987  0.78917  Biso   1.000  H
  C124     1.0000 0.24593  0.16467  0.13067  Biso   1.000  C
  C125     1.0000 0.27643  0.17967  0.27567  Biso   1.000  C
  C126     1.0000 0.29403  0.23337  0.35067  Biso   1.000  C
  O35      1.0000 0.31923  0.24337  0.48467  Biso   1.000  O
  O36      1.0000 0.28283  0.26477  0.27567  Biso   1.000  O
  H90      1.0000 0.24363  0.19267  0.07507  Biso   1.000  H
  C127     1.0000 0.78400  0.42400  0.09000  Biso   1.000  C
  H91      1.0000 0.75440  0.43070  0.08220  Biso   1.000  H
  C128     1.0000 0.81500  0.43900  0.24000  Biso   1.000  C
  H92      1.0000 0.80730  0.45410  0.33250  Biso   1.000  H
  C129     1.0000 0.83900  0.39100  0.97300  Biso   1.000  C
  H93      1.0000 0.84740  0.37460  0.88300  Biso   1.000  H
  C130     1.0000 0.87600  0.40900  0.11500  Biso   1.000  C
  H94      1.0000 0.90510  0.40190  0.12250  Biso   1.000  H
  C131     1.0000 0.91260  0.41460  0.46400  Biso   1.000  C
  C132     1.0000 0.94310  0.43010  0.60900  Biso   1.000  C
  C133     1.0000 0.96070  0.39400  0.68400  Biso   1.000  C
  O37      1.0000 0.98590  0.40920  0.81800  Biso   1.000  O
  O38      1.0000 0.94950  0.35140  0.60900  Biso   1.000  O
  H95      1.0000 0.91030  0.38430  0.40840  Biso   1.000  H
  C134     1.0000 0.45067  0.75733  0.42333  Biso   1.000  C
  H96      1.0000 0.42107  0.76403  0.41553  Biso   1.000  H
  C135     1.0000 0.48167  0.77233  0.57333  Biso   1.000  C
  H97      1.0000 0.47397  0.78743  0.66583  Biso   1.000  H
  C136     1.0000 0.50567  0.72433  0.30633  Biso   1.000  C
  H98      1.0000 0.51407  0.70793  0.21633  Biso   1.000  H
  C137     1.0000 0.54267  0.74233  0.44833  Biso   1.000  C
  H99      1.0000 0.57177  0.73523  0.45583  Biso   1.000  H
  C138     1.0000 0.57927  0.74793  0.79733  Biso   1.000  C
  C139     1.0000 0.60977  0.76343  0.94233  Biso   1.000  C
  C140     1.0000 0.62737  0.72733  0.01733  Biso   1.000  C
  O39      1.0000 0.65257  0.74253  0.15133  Biso   1.000  O
  O40      1.0000 0.61617  0.68473  0.94233  Biso   1.000  O
  H100     1.0000 0.57697  0.71763  0.74173  Biso   1.000  H
  C141     1.0000 0.11733  0.09067  0.75667  Biso   1.000  C
  H101     1.0000 0.08773  0.09737  0.74887  Biso   1.000  H
  C142     1.0000 0.14833  0.10567  0.90667  Biso   1.000  C
  H102     1.0000 0.14063  0.12077  0.99917  Biso   1.000  H
  C143     1.0000 0.17233  0.05767  0.63967  Biso   1.000  C
  H103     1.0000 0.18073  0.04127  0.54967  Biso   1.000  H
  C144     1.0000 0.20933  0.07567  0.78167  Biso   1.000  C
  H104     1.0000 0.23843  0.06857  0.78917  Biso   1.000  H
  C145     1.0000 0.24593  0.08127  0.13067  Biso   1.000  C
  C146     1.0000 0.27643  0.09677  0.27567  Biso   1.000  C
  C147     1.0000 0.29403  0.06067  0.35067  Biso   1.000  C
  O41      1.0000 0.31923  0.07587  0.48467  Biso   1.000  O
  O42      1.0000 0.28283  0.01807  0.27567  Biso   1.000  O
  H105     1.0000 0.24363  0.05097  0.07507  Biso   1.000  H
  C148     1.0000 0.57600  0.36000  0.09000  Biso   1.000  C
  H106     1.0000 0.56930  0.32370  0.08220  Biso   1.000  H
  C149     1.0000 0.56100  0.37600  0.24000  Biso   1.000  C
  H107     1.0000 0.54590  0.35320  0.33250  Biso   1.000  H
  C150     1.0000 0.60900  0.44800  0.97300  Biso   1.000  C
  H108     1.0000 0.62540  0.47280  0.88300  Biso   1.000  H
  C151     1.0000 0.59100  0.46700  0.11500  Biso   1.000  C
  H109     1.0000 0.59810  0.50320  0.12250  Biso   1.000  H
  C152     1.0000 0.58540  0.49800  0.46400  Biso   1.000  C
  C153     1.0000 0.56990  0.51300  0.60900  Biso   1.000  C
  C154     1.0000 0.60600  0.56670  0.68400  Biso   1.000  C
  O43      1.0000 0.59080  0.57670  0.81800  Biso   1.000  O
  O44      1.0000 0.64860  0.59810  0.60900  Biso   1.000  O
  H110     1.0000 0.61570  0.52600  0.40840  Biso   1.000  H
  C155     1.0000 0.24267  0.69333  0.42333  Biso   1.000  C
  H111     1.0000 0.23597  0.65703  0.41553  Biso   1.000  H
  C156     1.0000 0.22767  0.70933  0.57333  Biso   1.000  C
  H112     1.0000 0.21257  0.68653  0.66583  Biso   1.000  H
  C157     1.0000 0.27567  0.78133  0.30633  Biso   1.000  C
  H113     1.0000 0.29207  0.80613  0.21633  Biso   1.000  H
  C158     1.0000 0.25767  0.80033  0.44833  Biso   1.000  C
  H114     1.0000 0.26477  0.83653  0.45583  Biso   1.000  H
  C159     1.0000 0.25207  0.83133  0.79733  Biso   1.000  C
  C160     1.0000 0.23657  0.84633  0.94233  Biso   1.000  C
  C161     1.0000 0.27267  0.90003  0.01733  Biso   1.000  C
  O45      1.0000 0.25747  0.91003  0.15133  Biso   1.000  O
  O46      1.0000 0.31527  0.93143  0.94233  Biso   1.000  O
  H115     1.0000 0.28237  0.85933  0.74173  Biso   1.000  H
  C162     1.0000 0.90933  0.02667  0.75667  Biso   1.000  C
  H116     1.0000 0.90263  0.99037  0.74887  Biso   1.000  H
  C163     1.0000 0.89433  0.04267  0.90667  Biso   1.000  C
  H117     1.0000 0.87923  0.01987  0.99917  Biso   1.000  H
  C164     1.0000 0.94233  0.11467  0.63967  Biso   1.000  C
  H118     1.0000 0.95873  0.13947  0.54967  Biso   1.000  H
  C165     1.0000 0.92433  0.13367  0.78167  Biso   1.000  C
  H119     1.0000 0.93143  0.16987  0.78917  Biso   1.000  H
  C166     1.0000 0.91873  0.16467  0.13067  Biso   1.000  C
  C167     1.0000 0.90323  0.17967  0.27567  Biso   1.000  C
  C168     1.0000 0.93933  0.23337  0.35067  Biso   1.000  C
  O47      1.0000 0.92413  0.24337  0.48467  Biso   1.000  O
  O48      1.0000 0.98193  0.26477  0.27567  Biso   1.000  O
  H120     1.0000 0.94903  0.19267  0.07507  Biso   1.000  H
  C169     1.0000 0.64000  0.21600  0.09000  Biso   1.000  C
  H121     1.0000 0.67630  0.24560  0.08220  Biso   1.000  H
  C170     1.0000 0.62400  0.18500  0.24000  Biso   1.000  C
  H122     1.0000 0.64680  0.19270  0.33250  Biso   1.000  H
  C171     1.0000 0.55200  0.16100  0.97300  Biso   1.000  C
  H123     1.0000 0.52720  0.15260  0.88300  Biso   1.000  H
  C172     1.0000 0.53300  0.12400  0.11500  Biso   1.000  C
  H124     1.0000 0.49680  0.09490  0.12250  Biso   1.000  H
  C173     1.0000 0.50200  0.08740  0.46400  Biso   1.000  C
  C174     1.0000 0.48700  0.05690  0.60900  Biso   1.000  C
  C175     1.0000 0.43330  0.03930  0.68400  Biso   1.000  C
  O49      1.0000 0.42330  0.01410  0.81800  Biso   1.000  O
  O50      1.0000 0.40190  0.05050  0.60900  Biso   1.000  O
  H125     1.0000 0.47400  0.08970  0.40840  Biso   1.000  H
  C176     1.0000 0.30667  0.54933  0.42333  Biso   1.000  C
  H126     1.0000 0.34297  0.57893  0.41553  Biso   1.000  H
  C177     1.0000 0.29067  0.51833  0.57333  Biso   1.000  C
  H127     1.0000 0.31347  0.52603  0.66583  Biso   1.000  H
  C178     1.0000 0.21867  0.49433  0.30633  Biso   1.000  C
  H128     1.0000 0.19387  0.48593  0.21633  Biso   1.000  H
  C179     1.0000 0.19967  0.45733  0.44833  Biso   1.000  C
  H129     1.0000 0.16347  0.42823  0.45583  Biso   1.000  H
  C180     1.0000 0.16867  0.42073  0.79733  Biso   1.000  C
  C181     1.0000 0.15367  0.39023  0.94233  Biso   1.000  C
  C182     1.0000 0.09997  0.37263  0.01733  Biso   1.000  C
  O51      1.0000 0.08997  0.34743  0.15133  Biso   1.000  O
  O52      1.0000 0.06857  0.38383  0.94233  Biso   1.000  O
  H130     1.0000 0.14067  0.42303  0.74173  Biso   1.000  H
  C183     1.0000 0.97333  0.88267  0.75667  Biso   1.000  C
  H131     1.0000 0.00963  0.91227  0.74887  Biso   1.000  H
  C184     1.0000 0.95733  0.85167  0.90667  Biso   1.000  C
  H132     1.0000 0.98013  0.85937  0.99917  Biso   1.000  H
  C185     1.0000 0.88533  0.82767  0.63967  Biso   1.000  C
  H133     1.0000 0.86053  0.81927  0.54967  Biso   1.000  H
  C186     1.0000 0.86633  0.79067  0.78167  Biso   1.000  C
  H134     1.0000 0.83013  0.76157  0.78917  Biso   1.000  H
  C187     1.0000 0.83533  0.75407  0.13067  Biso   1.000  C
  C188     1.0000 0.82033  0.72357  0.27567  Biso   1.000  C
  C189     1.0000 0.76663  0.70597  0.35067  Biso   1.000  C
  O53      1.0000 0.75663  0.68077  0.48467  Biso   1.000  O
  O54      1.0000 0.73523  0.71717  0.27567  Biso   1.000  O
  H135     1.0000 0.80733  0.75637  0.07507  Biso   1.000  H
  C190     1.0000 0.42400  0.78400  0.91000  Biso   1.000  C
  H136     1.0000 0.43070  0.75440  0.91780  Biso   1.000  H
  C191     1.0000 0.43900  0.81500  0.76000  Biso   1.000  C
  H137     1.0000 0.45410  0.80730  0.66750  Biso   1.000  H
  C192     1.0000 0.39100  0.83900  0.02700  Biso   1.000  C
  H138     1.0000 0.37460  0.84740  0.11700  Biso   1.000  H
  C193     1.0000 0.40900  0.87600  0.88500  Biso   1.000  C
  H139     1.0000 0.40190  0.90510  0.87750  Biso   1.000  H
  C194     1.0000 0.41460  0.91260  0.53600  Biso   1.000  C
  C195     1.0000 0.43010  0.94310  0.39100  Biso   1.000  C
  C196     1.0000 0.39400  0.96070  0.31600  Biso   1.000  C
  O55      1.0000 0.40920  0.98590  0.18200  Biso   1.000  O
  O56      1.0000 0.35140  0.94950  0.39100  Biso   1.000  O
  H140     1.0000 0.38430  0.91030  0.59160  Biso   1.000  H
  C197     1.0000 0.09067  0.11733  0.24333  Biso   1.000  C
  H141     1.0000 0.09737  0.08773  0.25113  Biso   1.000  H
  C198     1.0000 0.10567  0.14833  0.09333  Biso   1.000  C
  H142     1.0000 0.12077  0.14063  0.00083  Biso   1.000  H
  C199     1.0000 0.05767  0.17233  0.36033  Biso   1.000  C
  H143     1.0000 0.04127  0.18073  0.45033  Biso   1.000  H
  C200     1.0000 0.07567  0.20933  0.21833  Biso   1.000  C
  H144     1.0000 0.06857  0.23843  0.21083  Biso   1.000  H
  C201     1.0000 0.08127  0.24593  0.86933  Biso   1.000  C
  C202     1.0000 0.09677  0.27643  0.72433  Biso   1.000  C
  C203     1.0000 0.06067  0.29403  0.64933  Biso   1.000  C
  O57      1.0000 0.07587  0.31923  0.51533  Biso   1.000  O
  O58      1.0000 0.01807  0.28283  0.72433  Biso   1.000  O
  H145     1.0000 0.05097  0.24363  0.92493  Biso   1.000  H
  C204     1.0000 0.75733  0.45067  0.57667  Biso   1.000  C
  H146     1.0000 0.76403  0.42107  0.58447  Biso   1.000  H
  C205     1.0000 0.77233  0.48167  0.42667  Biso   1.000  C
  H147     1.0000 0.78743  0.47397  0.33417  Biso   1.000  H
  C206     1.0000 0.72433  0.50567  0.69367  Biso   1.000  C
  H148     1.0000 0.70793  0.51407  0.78367  Biso   1.000  H
  C207     1.0000 0.74233  0.54267  0.55167  Biso   1.000  C
  H149     1.0000 0.73523  0.57177  0.54417  Biso   1.000  H
  C208     1.0000 0.74793  0.57927  0.20267  Biso   1.000  C
  C209     1.0000 0.76343  0.60977  0.05767  Biso   1.000  C
  C210     1.0000 0.72733  0.62737  0.98267  Biso   1.000  C
  O59      1.0000 0.74253  0.65257  0.84867  Biso   1.000  O
  O60      1.0000 0.68473  0.61617  0.05767  Biso   1.000  O
  H150     1.0000 0.71763  0.57697  0.25827  Biso   1.000  H
  C211     1.0000 0.36000  0.57600  0.91000  Biso   1.000  C
  H151     1.0000 0.32370  0.56930  0.91780  Biso   1.000  H
  C212     1.0000 0.37600  0.56100  0.76000  Biso   1.000  C
  H152     1.0000 0.35320  0.54590  0.66750  Biso   1.000  H
  C213     1.0000 0.44800  0.60900  0.02700  Biso   1.000  C
  H153     1.0000 0.47280  0.62540  0.11700  Biso   1.000  H
  C214     1.0000 0.46700  0.59100  0.88500  Biso   1.000  C
  H154     1.0000 0.50320  0.59810  0.87750  Biso   1.000  H
  C215     1.0000 0.49800  0.58540  0.53600  Biso   1.000  C
  C216     1.0000 0.51300  0.56990  0.39100  Biso   1.000  C
  C217     1.0000 0.56670  0.60600  0.31600  Biso   1.000  C
  O61      1.0000 0.57670  0.59080  0.18200  Biso   1.000  O
  O62      1.0000 0.59810  0.64860  0.39100  Biso   1.000  O
  H155     1.0000 0.52600  0.61570  0.59160  Biso   1.000  H
  C218     1.0000 0.02667  0.90933  0.24333  Biso   1.000  C
  H156     1.0000 0.99037  0.90263  0.25113  Biso   1.000  H
  C219     1.0000 0.04267  0.89433  0.09333  Biso   1.000  C
  H157     1.0000 0.01987  0.87923  0.00083  Biso   1.000  H
  C220     1.0000 0.11467  0.94233  0.36033  Biso   1.000  C
  H158     1.0000 0.13947  0.95873  0.45033  Biso   1.000  H
  C221     1.0000 0.13367  0.92433  0.21833  Biso   1.000  C
  H159     1.0000 0.16987  0.93143  0.21083  Biso   1.000  H
  C222     1.0000 0.16467  0.91873  0.86933  Biso   1.000  C
  C223     1.0000 0.17967  0.90323  0.72433  Biso   1.000  C
  C224     1.0000 0.23337  0.93933  0.64933  Biso   1.000  C
  O63      1.0000 0.24337  0.92413  0.51533  Biso   1.000  O
  O64      1.0000 0.26477  0.98193  0.72433  Biso   1.000  O
  H160     1.0000 0.19267  0.94903  0.92493  Biso   1.000  H
  C225     1.0000 0.69333  0.24267  0.57667  Biso   1.000  C
  H161     1.0000 0.65703  0.23597  0.58447  Biso   1.000  H
  C226     1.0000 0.70933  0.22767  0.42667  Biso   1.000  C
  H162     1.0000 0.68653  0.21257  0.33417  Biso   1.000  H
  C227     1.0000 0.78133  0.27567  0.69367  Biso   1.000  C
  H163     1.0000 0.80613  0.29207  0.78367  Biso   1.000  H
  C228     1.0000 0.80033  0.25767  0.55167  Biso   1.000  C
  H164     1.0000 0.83653  0.26477  0.54417  Biso   1.000  H
  C229     1.0000 0.83133  0.25207  0.20267  Biso   1.000  C
  C230     1.0000 0.84633  0.23657  0.05767  Biso   1.000  C
  C231     1.0000 0.90003  0.27267  0.98267  Biso   1.000  C
  O65      1.0000 0.91003  0.25747  0.84867  Biso   1.000  O
  O66      1.0000 0.93143  0.31527  0.05767  Biso   1.000  O
  H165     1.0000 0.85933  0.28237  0.25827  Biso   1.000  H
  C232     1.0000 0.21600  0.64000  0.91000  Biso   1.000  C
  H166     1.0000 0.24560  0.67630  0.91780  Biso   1.000  H
  C233     1.0000 0.18500  0.62400  0.76000  Biso   1.000  C
  H167     1.0000 0.19270  0.64680  0.66750  Biso   1.000  H
  C234     1.0000 0.16100  0.55200  0.02700  Biso   1.000  C
  H168     1.0000 0.15260  0.52720  0.11700  Biso   1.000  H
  C235     1.0000 0.12400  0.53300  0.88500  Biso   1.000  C
  H169     1.0000 0.09490  0.49680  0.87750  Biso   1.000  H
  C236     1.0000 0.08740  0.50200  0.53600  Biso   1.000  C
  C237     1.0000 0.05690  0.48700  0.39100  Biso   1.000  C
  C238     1.0000 0.03930  0.43330  0.31600  Biso   1.000  C
  O67      1.0000 0.01410  0.42330  0.18200  Biso   1.000  O
  O68      1.0000 0.05050  0.40190  0.39100  Biso   1.000  O
  H170     1.0000 0.08970  0.47400  0.59160  Biso   1.000  H
  C239     1.0000 0.88267  0.97333  0.24333  Biso   1.000  C
  H171     1.0000 0.91227  0.00963  0.25113  Biso   1.000  H
  C240     1.0000 0.85167  0.95733  0.09333  Biso   1.000  C
  H172     1.0000 0.85937  0.98013  0.00083  Biso   1.000  H
  C241     1.0000 0.82767  0.88533  0.36033  Biso   1.000  C
  H173     1.0000 0.81927  0.86053  0.45033  Biso   1.000  H
  C242     1.0000 0.79067  0.86633  0.21833  Biso   1.000  C
  H174     1.0000 0.76157  0.83013  0.21083  Biso   1.000  H
  C243     1.0000 0.75407  0.83533  0.86933  Biso   1.000  C
  C244     1.0000 0.72357  0.82033  0.72433  Biso   1.000  C
  C245     1.0000 0.70597  0.76663  0.64933  Biso   1.000  C
  O69      1.0000 0.68077  0.75663  0.51533  Biso   1.000  O
  O70      1.0000 0.71717  0.73523  0.72433  Biso   1.000  O
  H175     1.0000 0.75637  0.80733  0.92493  Biso   1.000  H
  C246     1.0000 0.54933  0.30667  0.57667  Biso   1.000  C
  H176     1.0000 0.57893  0.34297  0.58447  Biso   1.000  H
  C247     1.0000 0.51833  0.29067  0.42667  Biso   1.000  C
  H177     1.0000 0.52603  0.31347  0.33417  Biso   1.000  H
  C248     1.0000 0.49433  0.21867  0.69367  Biso   1.000  C
  H178     1.0000 0.48593  0.19387  0.78367  Biso   1.000  H
  C249     1.0000 0.45733  0.19967  0.55167  Biso   1.000  C
  H179     1.0000 0.42823  0.16347  0.54417  Biso   1.000  H
  C250     1.0000 0.42073  0.16867  0.20267  Biso   1.000  C
  C251     1.0000 0.39023  0.15367  0.05767  Biso   1.000  C
  C252     1.0000 0.37263  0.09997  0.98267  Biso   1.000  C
  O71      1.0000 0.34743  0.08997  0.84867  Biso   1.000  O
  O72      1.0000 0.38383  0.06857  0.05767  Biso   1.000  O
  H180     1.0000 0.42303  0.14067  0.25827  Biso   1.000  H
  Zn1      1.0000 0.04200  0.70867  0.33333  Biso   1.000  Zn
  Zn2      1.0000 0.29133  0.33333  0.33333  Biso   1.000  Zn
  Zn3      1.0000 0.66667  0.95800  0.33333  Biso   1.000  Zn
  Zn4      1.0000 0.70867  0.04200  0.66667  Biso   1.000  Zn
  Zn5      1.0000 0.37533  0.37533  0.00000  Biso   1.000  Zn
  Zn6      1.0000 0.33333  0.29133  0.66667  Biso   1.000  Zn
  Zn7      1.0000 0.00000  0.62467  0.00000  Biso   1.000  Zn
  Zn8      1.0000 0.95800  0.66667  0.66667  Biso   1.000  Zn
  Zn9      1.0000 0.62467  0.00000  0.00000  Biso   1.000  Zn
  Zn10     1.0000 0.95800  0.29133  0.66667  Biso   1.000  Zn
  Zn11     1.0000 0.62467  0.62467  0.00000  Biso   1.000  Zn
  Zn12     1.0000 0.70867  0.66667  0.66667  Biso   1.000  Zn
  Zn13     1.0000 0.37533  0.00000  0.00000  Biso   1.000  Zn
  Zn14     1.0000 0.33333  0.04200  0.66667  Biso   1.000  Zn
  Zn15     1.0000 0.00000  0.37533  0.00000  Biso   1.000  Zn
  Zn16     1.0000 0.29133  0.95800  0.33333  Biso   1.000  Zn
  Zn17     1.0000 0.66667  0.70867  0.33333  Biso   1.000  Zn
  Zn18     1.0000 0.04200  0.33333  0.33333  Biso   1.000  Zn
  C253     1.0000 0.20200  0.60100  0.04200  Biso   1.000  C
  H181     1.0000 0.22370  0.61185  0.13990  Biso   1.000  H
  C254     1.0000 0.13690  0.56845  0.75700  Biso   1.000  C
  C255     1.0000 0.10370  0.55185  0.60600  Biso   1.000  C
  C256     1.0000 0.04210  0.52105  0.31900  Biso   1.000  C
  H182     1.0000 0.01270  0.50635  0.21100  Biso   1.000  H
  C257     1.0000 0.86867  0.93433  0.37533  Biso   1.000  C
  H183     1.0000 0.89037  0.94518  0.47323  Biso   1.000  H
  C258     1.0000 0.80357  0.90178  0.09033  Biso   1.000  C
  C259     1.0000 0.77037  0.88518  0.93933  Biso   1.000  C
  C260     1.0000 0.70877  0.85438  0.65233  Biso   1.000  C
  H184     1.0000 0.67937  0.83968  0.54433  Biso   1.000  H
  C261     1.0000 0.53533  0.26767  0.70867  Biso   1.000  C
  H185     1.0000 0.55703  0.27852  0.80657  Biso   1.000  H
  C262     1.0000 0.47023  0.23512  0.42367  Biso   1.000  C
  C263     1.0000 0.43703  0.21852  0.27267  Biso   1.000  C
  C264     1.0000 0.37543  0.18772  0.98567  Biso   1.000  C
  H186     1.0000 0.34603  0.17302  0.87767  Biso   1.000  H
  C265     1.0000 0.39900  0.60100  0.04200  Biso   1.000  C
  H187     1.0000 0.38815  0.61185  0.13990  Biso   1.000  H
  C266     1.0000 0.43155  0.56845  0.75700  Biso   1.000  C
  C267     1.0000 0.44815  0.55185  0.60600  Biso   1.000  C
  C268     1.0000 0.47895  0.52105  0.31900  Biso   1.000  C
  H188     1.0000 0.49365  0.50635  0.21100  Biso   1.000  H
  C269     1.0000 0.06567  0.93433  0.37533  Biso   1.000  C
  H189     1.0000 0.05482  0.94518  0.47323  Biso   1.000  H
  C270     1.0000 0.09822  0.90178  0.09033  Biso   1.000  C
  C271     1.0000 0.11482  0.88518  0.93933  Biso   1.000  C
  C272     1.0000 0.14562  0.85438  0.65233  Biso   1.000  C
  H190     1.0000 0.16032  0.83968  0.54433  Biso   1.000  H
  C273     1.0000 0.73233  0.26767  0.70867  Biso   1.000  C
  H191     1.0000 0.72148  0.27852  0.80657  Biso   1.000  H
  C274     1.0000 0.76488  0.23512  0.42367  Biso   1.000  C
  C275     1.0000 0.78148  0.21852  0.27267  Biso   1.000  C
  C276     1.0000 0.81228  0.18772  0.98567  Biso   1.000  C
  H192     1.0000 0.82698  0.17302  0.87767  Biso   1.000  H
  C277     1.0000 0.39900  0.79800  0.04200  Biso   1.000  C
  H193     1.0000 0.38815  0.77630  0.13990  Biso   1.000  H
  C278     1.0000 0.43155  0.86310  0.75700  Biso   1.000  C
  C279     1.0000 0.44815  0.89630  0.60600  Biso   1.000  C
  C280     1.0000 0.47895  0.95790  0.31900  Biso   1.000  C
  H194     1.0000 0.49365  0.98730  0.21100  Biso   1.000  H
  C281     1.0000 0.06567  0.13133  0.37533  Biso   1.000  C
  H195     1.0000 0.05482  0.10963  0.47323  Biso   1.000  H
  C282     1.0000 0.09822  0.19643  0.09033  Biso   1.000  C
  C283     1.0000 0.11482  0.22963  0.93933  Biso   1.000  C
  C284     1.0000 0.14562  0.29123  0.65233  Biso   1.000  C
  H196     1.0000 0.16032  0.32063  0.54433  Biso   1.000  H
  C285     1.0000 0.73233  0.46467  0.70867  Biso   1.000  C
  H197     1.0000 0.72148  0.44297  0.80657  Biso   1.000  H
  C286     1.0000 0.76488  0.52977  0.42367  Biso   1.000  C
  C287     1.0000 0.78148  0.56297  0.27267  Biso   1.000  C
  C288     1.0000 0.81228  0.62457  0.98567  Biso   1.000  C
  H198     1.0000 0.82698  0.65397  0.87767  Biso   1.000  H
  C289     1.0000 0.60100  0.20200  0.95800  Biso   1.000  C
  H199     1.0000 0.61185  0.22370  0.86010  Biso   1.000  H
  C290     1.0000 0.56845  0.13690  0.24300  Biso   1.000  C
  C291     1.0000 0.55185  0.10370  0.39400  Biso   1.000  C
  C292     1.0000 0.52105  0.04210  0.68100  Biso   1.000  C
  H200     1.0000 0.50635  0.01270  0.78900  Biso   1.000  H
  C293     1.0000 0.26767  0.53533  0.29133  Biso   1.000  C
  H201     1.0000 0.27852  0.55703  0.19343  Biso   1.000  H
  C294     1.0000 0.23512  0.47023  0.57633  Biso   1.000  C
  C295     1.0000 0.21852  0.43703  0.72733  Biso   1.000  C
  C296     1.0000 0.18772  0.37543  0.01433  Biso   1.000  C
  H202     1.0000 0.17302  0.34603  0.12233  Biso   1.000  H
  C297     1.0000 0.93433  0.86867  0.62467  Biso   1.000  C
  H203     1.0000 0.94518  0.89037  0.52677  Biso   1.000  H
  C298     1.0000 0.90178  0.80357  0.90967  Biso   1.000  C
  C299     1.0000 0.88518  0.77037  0.06067  Biso   1.000  C
  C300     1.0000 0.85438  0.70877  0.34767  Biso   1.000  C
  H204     1.0000 0.83968  0.67937  0.45567  Biso   1.000  H
  C301     1.0000 0.60100  0.39900  0.95800  Biso   1.000  C
  H205     1.0000 0.61185  0.38815  0.86010  Biso   1.000  H
  C302     1.0000 0.56845  0.43155  0.24300  Biso   1.000  C
  C303     1.0000 0.55185  0.44815  0.39400  Biso   1.000  C
  C304     1.0000 0.52105  0.47895  0.68100  Biso   1.000  C
  H206     1.0000 0.50635  0.49365  0.78900  Biso   1.000  H
  C305     1.0000 0.26767  0.73233  0.29133  Biso   1.000  C
  H207     1.0000 0.27852  0.72148  0.19343  Biso   1.000  H
  C306     1.0000 0.23512  0.76488  0.57633  Biso   1.000  C
  C307     1.0000 0.21852  0.78148  0.72733  Biso   1.000  C
  C308     1.0000 0.18772  0.81228  0.01433  Biso   1.000  C
  H208     1.0000 0.17302  0.82698  0.12233  Biso   1.000  H
  C309     1.0000 0.93433  0.06567  0.62467  Biso   1.000  C
  H209     1.0000 0.94518  0.05482  0.52677  Biso   1.000  H
  C310     1.0000 0.90178  0.09822  0.90967  Biso   1.000  C
  C311     1.0000 0.88518  0.11482  0.06067  Biso   1.000  C
  C312     1.0000 0.85438  0.14562  0.34767  Biso   1.000  C
  H210     1.0000 0.83968  0.16032  0.45567  Biso   1.000  H
  C313     1.0000 0.79800  0.39900  0.95800  Biso   1.000  C
  H211     1.0000 0.77630  0.38815  0.86010  Biso   1.000  H
  C314     1.0000 0.86310  0.43155  0.24300  Biso   1.000  C
  C315     1.0000 0.89630  0.44815  0.39400  Biso   1.000  C
  C316     1.0000 0.95790  0.47895  0.68100  Biso   1.000  C
  H212     1.0000 0.98730  0.49365  0.78900  Biso   1.000  H
  C317     1.0000 0.46467  0.73233  0.29133  Biso   1.000  C
  H213     1.0000 0.44297  0.72148  0.19343  Biso   1.000  H
  C318     1.0000 0.52977  0.76488  0.57633  Biso   1.000  C
  C319     1.0000 0.56297  0.78148  0.72733  Biso   1.000  C
  C320     1.0000 0.62457  0.81228  0.01433  Biso   1.000  C
  H214     1.0000 0.65397  0.82698  0.12233  Biso   1.000  H
  C321     1.0000 0.13133  0.06567  0.62467  Biso   1.000  C
  H215     1.0000 0.10963  0.05482  0.52677  Biso   1.000  H
  C322     1.0000 0.19643  0.09822  0.90967  Biso   1.000  C
  C323     1.0000 0.22963  0.11482  0.06067  Biso   1.000  C
  C324     1.0000 0.29123  0.14562  0.34767  Biso   1.000  C
  H216     1.0000 0.32063  0.16032  0.45567  Biso   1.000  H
