data_image0
_cell_length_a       33.2781
_cell_length_b       33.2781
_cell_length_c       13.5625
_cell_angle_alpha    90
_cell_angle_beta     90
_cell_angle_gamma    120

_symmetry_space_group_name_H-M    "P 1"
_symmetry_int_tables_number       1

loop_
  _symmetry_equiv_pos_as_xyz
  'x, y, z'

loop_
  _atom_site_label
  _atom_site_occupancy
  _atom_site_fract_x
  _atom_site_fract_y
  _atom_site_fract_z
  _atom_site_thermal_displace_type
  _atom_site_B_iso_or_equiv
  _atom_site_type_symbol
  Zn1      1.0000 0.34072  0.96563  0.75420  Biso   1.000  Zn
  Zn2      1.0000 0.33685  0.11047  0.63037  Biso   1.000  Zn
  Zn3      1.0000 0.17005  0.83178  0.99776  Biso   1.000  Zn
  P1       1.0000 0.29793  0.00495  0.59915  Biso   1.000  P
  P2       1.0000 0.23983  0.89436  0.82648  Biso   1.000  P
  P3       1.0000 0.40202  0.14648  0.44576  Biso   1.000  P
  P4       1.0000 0.38829  0.18419  0.80105  Biso   1.000  P
  O1       1.0000 0.31473  0.97261  0.63204  Biso   1.000  O
  O2       1.0000 0.31334  0.04548  0.66704  Biso   1.000  O
  O3       1.0000 0.30913  0.01878  0.49160  Biso   1.000  O
  O4       1.0000 0.29180  0.91862  0.83350  Biso   1.000  O
  O5       1.0000 0.22033  0.85859  0.90693  Biso   1.000  O
  O6       1.0000 0.22363  0.87557  0.72472  Biso   1.000  O
  O7       1.0000 0.39299  0.13362  0.55454  Biso   1.000  O
  O8       1.0000 0.38206  0.17575  0.41056  Biso   1.000  O
  O9       1.0000 0.38819  0.10488  0.38063  Biso   1.000  O
  O10      1.0000 0.35499  0.13699  0.76144  Biso   1.000  O
  O11      1.0000 0.38223  0.22167  0.75592  Biso   1.000  O
  O12      1.0000 0.38872  0.18485  0.91126  Biso   1.000  O
  H1       1.0000 0.24610  0.97460  0.60330  Biso   1.000  H
  H2       1.0000 0.22500  0.92900  0.84590  Biso   1.000  H
  H3       1.0000 0.44550  0.16860  0.43610  Biso   1.000  H
  H4       1.0000 0.43460  0.19770  0.77780  Biso   1.000  H
  O13      1.0000 0.24980  0.98630  0.60600  Biso   1.000  O
  O14      1.0000 0.22390  0.92880  0.84760  Biso   1.000  O
  Zn4      1.0000 0.00739  0.29896  0.08753  Biso   1.000  Zn
  Zn5      1.0000 0.00352  0.44380  0.96371  Biso   1.000  Zn
  Zn6      1.0000 0.83672  0.16512  0.33109  Biso   1.000  Zn
  P5       1.0000 0.96460  0.33828  0.93248  Biso   1.000  P
  P6       1.0000 0.90650  0.22769  0.15981  Biso   1.000  P
  P7       1.0000 0.06869  0.47981  0.77909  Biso   1.000  P
  P8       1.0000 0.05496  0.51752  0.13438  Biso   1.000  P
  O15      1.0000 0.98140  0.30594  0.96537  Biso   1.000  O
  O16      1.0000 0.98001  0.37881  0.00037  Biso   1.000  O
  O17      1.0000 0.97580  0.35211  0.82493  Biso   1.000  O
  O18      1.0000 0.95847  0.25195  0.16683  Biso   1.000  O
  O19      1.0000 0.88700  0.19192  0.24026  Biso   1.000  O
  O20      1.0000 0.89030  0.20890  0.05805  Biso   1.000  O
  O21      1.0000 0.05966  0.46695  0.88787  Biso   1.000  O
  O22      1.0000 0.04873  0.50908  0.74389  Biso   1.000  O
  O23      1.0000 0.05486  0.43821  0.71396  Biso   1.000  O
  O24      1.0000 0.02166  0.47032  0.09477  Biso   1.000  O
  O25      1.0000 0.04890  0.55500  0.08925  Biso   1.000  O
  O26      1.0000 0.05539  0.51818  0.24459  Biso   1.000  O
  H5       1.0000 0.91277  0.30793  0.93663  Biso   1.000  H
  H6       1.0000 0.89167  0.26233  0.17923  Biso   1.000  H
  H7       1.0000 0.11217  0.50193  0.76943  Biso   1.000  H
  H8       1.0000 0.10127  0.53103  0.11113  Biso   1.000  H
  O27      1.0000 0.91647  0.31963  0.93933  Biso   1.000  O
  O28      1.0000 0.89057  0.26213  0.18093  Biso   1.000  O
  Zn7      1.0000 0.67406  0.63230  0.42086  Biso   1.000  Zn
  Zn8      1.0000 0.67019  0.77713  0.29704  Biso   1.000  Zn
  Zn9      1.0000 0.50338  0.49845  0.66443  Biso   1.000  Zn
  P9       1.0000 0.63126  0.67162  0.26582  Biso   1.000  P
  P10      1.0000 0.57317  0.56102  0.49315  Biso   1.000  P
  P11      1.0000 0.73535  0.81315  0.11243  Biso   1.000  P
  P12      1.0000 0.72162  0.85086  0.46772  Biso   1.000  P
  O29      1.0000 0.64806  0.63928  0.29871  Biso   1.000  O
  O30      1.0000 0.64667  0.71215  0.33371  Biso   1.000  O
  O31      1.0000 0.64246  0.68545  0.15827  Biso   1.000  O
  O32      1.0000 0.62513  0.58529  0.50017  Biso   1.000  O
  O33      1.0000 0.55366  0.52526  0.57360  Biso   1.000  O
  O34      1.0000 0.55696  0.54224  0.39139  Biso   1.000  O
  O35      1.0000 0.72632  0.80029  0.22121  Biso   1.000  O
  O36      1.0000 0.71539  0.84242  0.07723  Biso   1.000  O
  O37      1.0000 0.72152  0.77155  0.04730  Biso   1.000  O
  O38      1.0000 0.68832  0.80366  0.42811  Biso   1.000  O
  O39      1.0000 0.71556  0.88834  0.42259  Biso   1.000  O
  O40      1.0000 0.72205  0.85152  0.57793  Biso   1.000  O
  H9       1.0000 0.57943  0.64127  0.26997  Biso   1.000  H
  H10      1.0000 0.55833  0.59567  0.51257  Biso   1.000  H
  H11      1.0000 0.77883  0.83527  0.10277  Biso   1.000  H
  H12      1.0000 0.76793  0.86437  0.44447  Biso   1.000  H
  O41      1.0000 0.58313  0.65297  0.27267  Biso   1.000  O
  O42      1.0000 0.55723  0.59547  0.51427  Biso   1.000  O
  Zn10     1.0000 0.03437  0.37509  0.75420  Biso   1.000  Zn
  Zn11     1.0000 0.88953  0.22639  0.63037  Biso   1.000  Zn
  Zn12     1.0000 0.16822  0.33827  0.99776  Biso   1.000  Zn
  P13      1.0000 0.99505  0.29298  0.59915  Biso   1.000  P
  P14      1.0000 0.10564  0.34547  0.82648  Biso   1.000  P
  P15      1.0000 0.85352  0.25554  0.44576  Biso   1.000  P
  P16      1.0000 0.81581  0.20410  0.80105  Biso   1.000  P
  O43      1.0000 0.02739  0.34212  0.63204  Biso   1.000  O
  O44      1.0000 0.95452  0.26786  0.66704  Biso   1.000  O
  O45      1.0000 0.98122  0.29035  0.49160  Biso   1.000  O
  O46      1.0000 0.08138  0.37318  0.83350  Biso   1.000  O
  O47      1.0000 0.14141  0.36174  0.90693  Biso   1.000  O
  O48      1.0000 0.12443  0.34806  0.72472  Biso   1.000  O
  O49      1.0000 0.86638  0.25937  0.55454  Biso   1.000  O
  O50      1.0000 0.82425  0.20631  0.41056  Biso   1.000  O
  O51      1.0000 0.89512  0.28331  0.38063  Biso   1.000  O
  O52      1.0000 0.86301  0.21800  0.76144  Biso   1.000  O
  O53      1.0000 0.77833  0.16056  0.75592  Biso   1.000  O
  O54      1.0000 0.81515  0.20387  0.91126  Biso   1.000  O
  H13      1.0000 0.02540  0.27150  0.60330  Biso   1.000  H
  H14      1.0000 0.07100  0.29600  0.84590  Biso   1.000  H
  H15      1.0000 0.83140  0.27690  0.43610  Biso   1.000  H
  H16      1.0000 0.80230  0.23690  0.77780  Biso   1.000  H
  O55      1.0000 0.01370  0.26350  0.60600  Biso   1.000  O
  O56      1.0000 0.07120  0.29510  0.84760  Biso   1.000  O
  Zn13     1.0000 0.70104  0.70843  0.08753  Biso   1.000  Zn
  Zn14     1.0000 0.55620  0.55972  0.96371  Biso   1.000  Zn
  Zn15     1.0000 0.83488  0.67160  0.33109  Biso   1.000  Zn
  P17      1.0000 0.66172  0.62631  0.93248  Biso   1.000  P
  P18      1.0000 0.77231  0.67881  0.15981  Biso   1.000  P
  P19      1.0000 0.52019  0.58887  0.77909  Biso   1.000  P
  P20      1.0000 0.48248  0.53743  0.13438  Biso   1.000  P
  O57      1.0000 0.69406  0.67545  0.96537  Biso   1.000  O
  O58      1.0000 0.62119  0.60119  0.00037  Biso   1.000  O
  O59      1.0000 0.64789  0.62368  0.82493  Biso   1.000  O
  O60      1.0000 0.74805  0.70651  0.16683  Biso   1.000  O
  O61      1.0000 0.80808  0.69507  0.24026  Biso   1.000  O
  O62      1.0000 0.79110  0.68139  0.05805  Biso   1.000  O
  O63      1.0000 0.53305  0.59270  0.88787  Biso   1.000  O
  O64      1.0000 0.49092  0.53964  0.74389  Biso   1.000  O
  O65      1.0000 0.56179  0.61664  0.71396  Biso   1.000  O
  O66      1.0000 0.52968  0.55133  0.09477  Biso   1.000  O
  O67      1.0000 0.44500  0.49389  0.08925  Biso   1.000  O
  O68      1.0000 0.48182  0.53720  0.24459  Biso   1.000  O
  H17      1.0000 0.69207  0.60483  0.93663  Biso   1.000  H
  H18      1.0000 0.73767  0.62933  0.17923  Biso   1.000  H
  H19      1.0000 0.49807  0.61023  0.76943  Biso   1.000  H
  H20      1.0000 0.46897  0.57023  0.11113  Biso   1.000  H
  O69      1.0000 0.68037  0.59683  0.93933  Biso   1.000  O
  O70      1.0000 0.73787  0.62843  0.18093  Biso   1.000  O
  Zn16     1.0000 0.36770  0.04176  0.42086  Biso   1.000  Zn
  Zn17     1.0000 0.22287  0.89306  0.29704  Biso   1.000  Zn
  Zn18     1.0000 0.50155  0.00493  0.66443  Biso   1.000  Zn
  P21      1.0000 0.32838  0.95965  0.26582  Biso   1.000  P
  P22      1.0000 0.43898  0.01214  0.49315  Biso   1.000  P
  P23      1.0000 0.18685  0.92221  0.11243  Biso   1.000  P
  P24      1.0000 0.14914  0.87077  0.46772  Biso   1.000  P
  O71      1.0000 0.36072  0.00879  0.29871  Biso   1.000  O
  O72      1.0000 0.28785  0.93453  0.33371  Biso   1.000  O
  O73      1.0000 0.31455  0.95702  0.15827  Biso   1.000  O
  O74      1.0000 0.41471  0.03985  0.50017  Biso   1.000  O
  O75      1.0000 0.47474  0.02841  0.57360  Biso   1.000  O
  O76      1.0000 0.45776  0.01473  0.39139  Biso   1.000  O
  O77      1.0000 0.19971  0.92604  0.22121  Biso   1.000  O
  O78      1.0000 0.15758  0.87298  0.07723  Biso   1.000  O
  O79      1.0000 0.22845  0.94998  0.04730  Biso   1.000  O
  O80      1.0000 0.19634  0.88467  0.42811  Biso   1.000  O
  O81      1.0000 0.11166  0.82723  0.42259  Biso   1.000  O
  O82      1.0000 0.14848  0.87054  0.57793  Biso   1.000  O
  H21      1.0000 0.35873  0.93817  0.26997  Biso   1.000  H
  H22      1.0000 0.40433  0.96267  0.51257  Biso   1.000  H
  H23      1.0000 0.16473  0.94357  0.10277  Biso   1.000  H
  H24      1.0000 0.13563  0.90357  0.44447  Biso   1.000  H
  O83      1.0000 0.34703  0.93017  0.27267  Biso   1.000  O
  O84      1.0000 0.40453  0.96177  0.51427  Biso   1.000  O
  Zn19     1.0000 0.62491  0.65928  0.75420  Biso   1.000  Zn
  Zn20     1.0000 0.77361  0.66315  0.63037  Biso   1.000  Zn
  Zn21     1.0000 0.66173  0.82995  0.99776  Biso   1.000  Zn
  P25      1.0000 0.70702  0.70207  0.59915  Biso   1.000  P
  P26      1.0000 0.65453  0.76017  0.82648  Biso   1.000  P
  P27      1.0000 0.74446  0.59798  0.44576  Biso   1.000  P
  P28      1.0000 0.79590  0.61171  0.80105  Biso   1.000  P
  O85      1.0000 0.65788  0.68527  0.63204  Biso   1.000  O
  O86      1.0000 0.73214  0.68666  0.66704  Biso   1.000  O
  O87      1.0000 0.70965  0.69087  0.49160  Biso   1.000  O
  O88      1.0000 0.62682  0.70820  0.83350  Biso   1.000  O
  O89      1.0000 0.63826  0.77967  0.90693  Biso   1.000  O
  O90      1.0000 0.65194  0.77637  0.72472  Biso   1.000  O
  O91      1.0000 0.74063  0.60701  0.55454  Biso   1.000  O
  O92      1.0000 0.79369  0.61794  0.41056  Biso   1.000  O
  O93      1.0000 0.71669  0.61181  0.38063  Biso   1.000  O
  O94      1.0000 0.78200  0.64501  0.76144  Biso   1.000  O
  O95      1.0000 0.83944  0.61777  0.75592  Biso   1.000  O
  O96      1.0000 0.79613  0.61128  0.91126  Biso   1.000  O
  H25      1.0000 0.72850  0.75390  0.60330  Biso   1.000  H
  H26      1.0000 0.70400  0.77500  0.84590  Biso   1.000  H
  H27      1.0000 0.72310  0.55450  0.43610  Biso   1.000  H
  H28      1.0000 0.76310  0.56540  0.77780  Biso   1.000  H
  O97      1.0000 0.73650  0.75020  0.60600  Biso   1.000  O
  O98      1.0000 0.70490  0.77610  0.84760  Biso   1.000  O
  Zn22     1.0000 0.29157  0.99261  0.08753  Biso   1.000  Zn
  Zn23     1.0000 0.44028  0.99648  0.96371  Biso   1.000  Zn
  Zn24     1.0000 0.32840  0.16328  0.33109  Biso   1.000  Zn
  P29      1.0000 0.37369  0.03540  0.93248  Biso   1.000  P
  P30      1.0000 0.32119  0.09350  0.15981  Biso   1.000  P
  P31      1.0000 0.41113  0.93131  0.77909  Biso   1.000  P
  P32      1.0000 0.46257  0.94504  0.13438  Biso   1.000  P
  O99      1.0000 0.32455  0.01860  0.96537  Biso   1.000  O
  O100     1.0000 0.39881  0.01999  0.00037  Biso   1.000  O
  O101     1.0000 0.37632  0.02420  0.82493  Biso   1.000  O
  O102     1.0000 0.29349  0.04153  0.16683  Biso   1.000  O
  O103     1.0000 0.30493  0.11300  0.24026  Biso   1.000  O
  O104     1.0000 0.31861  0.10970  0.05805  Biso   1.000  O
  O105     1.0000 0.40730  0.94034  0.88787  Biso   1.000  O
  O106     1.0000 0.46036  0.95127  0.74389  Biso   1.000  O
  O107     1.0000 0.38336  0.94514  0.71396  Biso   1.000  O
  O108     1.0000 0.44867  0.97834  0.09477  Biso   1.000  O
  O109     1.0000 0.50611  0.95110  0.08925  Biso   1.000  O
  O110     1.0000 0.46280  0.94461  0.24459  Biso   1.000  O
  H29      1.0000 0.39517  0.08723  0.93663  Biso   1.000  H
  H30      1.0000 0.37067  0.10833  0.17923  Biso   1.000  H
  H31      1.0000 0.38977  0.88783  0.76943  Biso   1.000  H
  H32      1.0000 0.42977  0.89873  0.11113  Biso   1.000  H
  O111     1.0000 0.40317  0.08353  0.93933  Biso   1.000  O
  O112     1.0000 0.37157  0.10943  0.18093  Biso   1.000  O
  Zn25     1.0000 0.95824  0.32594  0.42086  Biso   1.000  Zn
  Zn26     1.0000 0.10694  0.32981  0.29704  Biso   1.000  Zn
  Zn27     1.0000 0.99507  0.49662  0.66443  Biso   1.000  Zn
  P33      1.0000 0.04035  0.36874  0.26582  Biso   1.000  P
  P34      1.0000 0.98786  0.42683  0.49315  Biso   1.000  P
  P35      1.0000 0.07779  0.26465  0.11243  Biso   1.000  P
  P36      1.0000 0.12923  0.27838  0.46772  Biso   1.000  P
  O113     1.0000 0.99121  0.35194  0.29871  Biso   1.000  O
  O114     1.0000 0.06547  0.35333  0.33371  Biso   1.000  O
  O115     1.0000 0.04298  0.35754  0.15827  Biso   1.000  O
  O116     1.0000 0.96015  0.37487  0.50017  Biso   1.000  O
  O117     1.0000 0.97159  0.44634  0.57360  Biso   1.000  O
  O118     1.0000 0.98527  0.44304  0.39139  Biso   1.000  O
  O119     1.0000 0.07396  0.27368  0.22121  Biso   1.000  O
  O120     1.0000 0.12702  0.28461  0.07723  Biso   1.000  O
  O121     1.0000 0.05002  0.27848  0.04730  Biso   1.000  O
  O122     1.0000 0.11533  0.31168  0.42811  Biso   1.000  O
  O123     1.0000 0.17277  0.28444  0.42259  Biso   1.000  O
  O124     1.0000 0.12946  0.27795  0.57793  Biso   1.000  O
  H33      1.0000 0.06183  0.42057  0.26997  Biso   1.000  H
  H34      1.0000 0.03733  0.44167  0.51257  Biso   1.000  H
  H35      1.0000 0.05643  0.22117  0.10277  Biso   1.000  H
  H36      1.0000 0.09643  0.23207  0.44447  Biso   1.000  H
  O125     1.0000 0.06983  0.41687  0.27267  Biso   1.000  O
  O126     1.0000 0.03823  0.44277  0.51427  Biso   1.000  O
  Zn28     1.0000 0.65928  0.03437  0.24580  Biso   1.000  Zn
  Zn29     1.0000 0.66314  0.88953  0.36963  Biso   1.000  Zn
  Zn30     1.0000 0.82995  0.16822  0.00224  Biso   1.000  Zn
  P37      1.0000 0.70207  0.99505  0.40085  Biso   1.000  P
  P38      1.0000 0.76017  0.10564  0.17352  Biso   1.000  P
  P39      1.0000 0.59798  0.85352  0.55424  Biso   1.000  P
  P40      1.0000 0.61171  0.81581  0.19895  Biso   1.000  P
  O127     1.0000 0.68527  0.02739  0.36796  Biso   1.000  O
  O128     1.0000 0.68666  0.95452  0.33296  Biso   1.000  O
  O129     1.0000 0.69087  0.98122  0.50840  Biso   1.000  O
  O130     1.0000 0.70820  0.08138  0.16650  Biso   1.000  O
  O131     1.0000 0.77967  0.14141  0.09307  Biso   1.000  O
  O132     1.0000 0.77637  0.12443  0.27528  Biso   1.000  O
  O133     1.0000 0.60701  0.86638  0.44546  Biso   1.000  O
  O134     1.0000 0.61794  0.82425  0.58944  Biso   1.000  O
  O135     1.0000 0.61181  0.89512  0.61937  Biso   1.000  O
  O136     1.0000 0.64501  0.86301  0.23856  Biso   1.000  O
  O137     1.0000 0.61777  0.77833  0.24408  Biso   1.000  O
  O138     1.0000 0.61128  0.81515  0.08874  Biso   1.000  O
  H37      1.0000 0.75390  0.02540  0.39670  Biso   1.000  H
  H38      1.0000 0.77500  0.07100  0.15410  Biso   1.000  H
  H39      1.0000 0.55450  0.83140  0.56390  Biso   1.000  H
  H40      1.0000 0.56540  0.80230  0.22220  Biso   1.000  H
  O139     1.0000 0.75020  0.01370  0.39400  Biso   1.000  O
  O140     1.0000 0.77610  0.07120  0.15240  Biso   1.000  O
  Zn31     1.0000 0.32594  0.36770  0.57914  Biso   1.000  Zn
  Zn32     1.0000 0.32981  0.22287  0.70296  Biso   1.000  Zn
  Zn33     1.0000 0.49662  0.50155  0.33557  Biso   1.000  Zn
  P41      1.0000 0.36874  0.32838  0.73418  Biso   1.000  P
  P42      1.0000 0.42683  0.43898  0.50685  Biso   1.000  P
  P43      1.0000 0.26465  0.18685  0.88757  Biso   1.000  P
  P44      1.0000 0.27838  0.14914  0.53228  Biso   1.000  P
  O141     1.0000 0.35194  0.36072  0.70129  Biso   1.000  O
  O142     1.0000 0.35333  0.28785  0.66629  Biso   1.000  O
  O143     1.0000 0.35754  0.31455  0.84173  Biso   1.000  O
  O144     1.0000 0.37487  0.41471  0.49983  Biso   1.000  O
  O145     1.0000 0.44634  0.47474  0.42640  Biso   1.000  O
  O146     1.0000 0.44304  0.45776  0.60861  Biso   1.000  O
  O147     1.0000 0.27368  0.19971  0.77879  Biso   1.000  O
  O148     1.0000 0.28461  0.15758  0.92277  Biso   1.000  O
  O149     1.0000 0.27848  0.22845  0.95270  Biso   1.000  O
  O150     1.0000 0.31168  0.19634  0.57189  Biso   1.000  O
  O151     1.0000 0.28444  0.11166  0.57741  Biso   1.000  O
  O152     1.0000 0.27795  0.14848  0.42207  Biso   1.000  O
  H41      1.0000 0.42057  0.35873  0.73003  Biso   1.000  H
  H42      1.0000 0.44167  0.40433  0.48743  Biso   1.000  H
  H43      1.0000 0.22117  0.16473  0.89723  Biso   1.000  H
  H44      1.0000 0.23207  0.13563  0.55553  Biso   1.000  H
  O153     1.0000 0.41687  0.34703  0.72733  Biso   1.000  O
  O154     1.0000 0.44277  0.40453  0.48573  Biso   1.000  O
  Zn34     1.0000 0.99261  0.70104  0.91247  Biso   1.000  Zn
  Zn35     1.0000 0.99648  0.55620  0.03629  Biso   1.000  Zn
  Zn36     1.0000 0.16328  0.83488  0.66891  Biso   1.000  Zn
  P45      1.0000 0.03540  0.66172  0.06752  Biso   1.000  P
  P46      1.0000 0.09350  0.77231  0.84019  Biso   1.000  P
  P47      1.0000 0.93131  0.52019  0.22091  Biso   1.000  P
  P48      1.0000 0.94504  0.48248  0.86562  Biso   1.000  P
  O155     1.0000 0.01860  0.69406  0.03463  Biso   1.000  O
  O156     1.0000 0.01999  0.62119  0.99963  Biso   1.000  O
  O157     1.0000 0.02420  0.64789  0.17507  Biso   1.000  O
  O158     1.0000 0.04153  0.74805  0.83317  Biso   1.000  O
  O159     1.0000 0.11300  0.80808  0.75974  Biso   1.000  O
  O160     1.0000 0.10970  0.79110  0.94195  Biso   1.000  O
  O161     1.0000 0.94034  0.53305  0.11213  Biso   1.000  O
  O162     1.0000 0.95127  0.49092  0.25611  Biso   1.000  O
  O163     1.0000 0.94514  0.56179  0.28604  Biso   1.000  O
  O164     1.0000 0.97834  0.52968  0.90523  Biso   1.000  O
  O165     1.0000 0.95110  0.44500  0.91075  Biso   1.000  O
  O166     1.0000 0.94461  0.48182  0.75541  Biso   1.000  O
  H45      1.0000 0.08723  0.69207  0.06337  Biso   1.000  H
  H46      1.0000 0.10833  0.73767  0.82077  Biso   1.000  H
  H47      1.0000 0.88783  0.49807  0.23057  Biso   1.000  H
  H48      1.0000 0.89873  0.46897  0.88887  Biso   1.000  H
  O167     1.0000 0.08353  0.68037  0.06067  Biso   1.000  O
  O168     1.0000 0.10943  0.73787  0.81907  Biso   1.000  O
  Zn37     1.0000 0.96563  0.62491  0.24580  Biso   1.000  Zn
  Zn38     1.0000 0.11047  0.77361  0.36963  Biso   1.000  Zn
  Zn39     1.0000 0.83178  0.66173  0.00224  Biso   1.000  Zn
  P49      1.0000 0.00495  0.70702  0.40085  Biso   1.000  P
  P50      1.0000 0.89436  0.65453  0.17352  Biso   1.000  P
  P51      1.0000 0.14648  0.74446  0.55424  Biso   1.000  P
  P52      1.0000 0.18419  0.79590  0.19895  Biso   1.000  P
  O169     1.0000 0.97261  0.65788  0.36796  Biso   1.000  O
  O170     1.0000 0.04548  0.73214  0.33296  Biso   1.000  O
  O171     1.0000 0.01878  0.70965  0.50840  Biso   1.000  O
  O172     1.0000 0.91862  0.62682  0.16650  Biso   1.000  O
  O173     1.0000 0.85859  0.63826  0.09307  Biso   1.000  O
  O174     1.0000 0.87557  0.65194  0.27528  Biso   1.000  O
  O175     1.0000 0.13362  0.74063  0.44546  Biso   1.000  O
  O176     1.0000 0.17575  0.79369  0.58944  Biso   1.000  O
  O177     1.0000 0.10488  0.71669  0.61937  Biso   1.000  O
  O178     1.0000 0.13699  0.78200  0.23856  Biso   1.000  O
  O179     1.0000 0.22167  0.83944  0.24408  Biso   1.000  O
  O180     1.0000 0.18485  0.79613  0.08874  Biso   1.000  O
  H49      1.0000 0.97460  0.72850  0.39670  Biso   1.000  H
  H50      1.0000 0.92900  0.70400  0.15410  Biso   1.000  H
  H51      1.0000 0.16860  0.72310  0.56390  Biso   1.000  H
  H52      1.0000 0.19770  0.76310  0.22220  Biso   1.000  H
  O181     1.0000 0.98630  0.73650  0.39400  Biso   1.000  O
  O182     1.0000 0.92880  0.70490  0.15240  Biso   1.000  O
  Zn40     1.0000 0.63230  0.95824  0.57914  Biso   1.000  Zn
  Zn41     1.0000 0.77713  0.10694  0.70296  Biso   1.000  Zn
  Zn42     1.0000 0.49845  0.99507  0.33557  Biso   1.000  Zn
  P53      1.0000 0.67162  0.04035  0.73418  Biso   1.000  P
  P54      1.0000 0.56102  0.98786  0.50685  Biso   1.000  P
  P55      1.0000 0.81315  0.07779  0.88757  Biso   1.000  P
  P56      1.0000 0.85086  0.12923  0.53228  Biso   1.000  P
  O183     1.0000 0.63928  0.99121  0.70129  Biso   1.000  O
  O184     1.0000 0.71215  0.06547  0.66629  Biso   1.000  O
  O185     1.0000 0.68545  0.04298  0.84173  Biso   1.000  O
  O186     1.0000 0.58529  0.96015  0.49983  Biso   1.000  O
  O187     1.0000 0.52526  0.97159  0.42640  Biso   1.000  O
  O188     1.0000 0.54224  0.98527  0.60861  Biso   1.000  O
  O189     1.0000 0.80029  0.07396  0.77879  Biso   1.000  O
  O190     1.0000 0.84242  0.12702  0.92277  Biso   1.000  O
  O191     1.0000 0.77155  0.05002  0.95270  Biso   1.000  O
  O192     1.0000 0.80366  0.11533  0.57189  Biso   1.000  O
  O193     1.0000 0.88834  0.17277  0.57741  Biso   1.000  O
  O194     1.0000 0.85152  0.12946  0.42207  Biso   1.000  O
  H53      1.0000 0.64127  0.06183  0.73003  Biso   1.000  H
  H54      1.0000 0.59567  0.03733  0.48743  Biso   1.000  H
  H55      1.0000 0.83527  0.05643  0.89723  Biso   1.000  H
  H56      1.0000 0.86437  0.09643  0.55553  Biso   1.000  H
  O195     1.0000 0.65297  0.06983  0.72733  Biso   1.000  O
  O196     1.0000 0.59547  0.03823  0.48573  Biso   1.000  O
  Zn43     1.0000 0.29896  0.29157  0.91247  Biso   1.000  Zn
  Zn44     1.0000 0.44380  0.44028  0.03629  Biso   1.000  Zn
  Zn45     1.0000 0.16512  0.32840  0.66891  Biso   1.000  Zn
  P57      1.0000 0.33828  0.37369  0.06752  Biso   1.000  P
  P58      1.0000 0.22769  0.32119  0.84019  Biso   1.000  P
  P59      1.0000 0.47981  0.41113  0.22091  Biso   1.000  P
  P60      1.0000 0.51752  0.46257  0.86562  Biso   1.000  P
  O197     1.0000 0.30594  0.32455  0.03463  Biso   1.000  O
  O198     1.0000 0.37881  0.39881  0.99963  Biso   1.000  O
  O199     1.0000 0.35211  0.37632  0.17507  Biso   1.000  O
  O200     1.0000 0.25195  0.29349  0.83317  Biso   1.000  O
  O201     1.0000 0.19192  0.30493  0.75974  Biso   1.000  O
  O202     1.0000 0.20890  0.31861  0.94195  Biso   1.000  O
  O203     1.0000 0.46695  0.40730  0.11213  Biso   1.000  O
  O204     1.0000 0.50908  0.46036  0.25611  Biso   1.000  O
  O205     1.0000 0.43821  0.38336  0.28604  Biso   1.000  O
  O206     1.0000 0.47032  0.44867  0.90523  Biso   1.000  O
  O207     1.0000 0.55500  0.50611  0.91075  Biso   1.000  O
  O208     1.0000 0.51818  0.46280  0.75541  Biso   1.000  O
  H57      1.0000 0.30793  0.39517  0.06337  Biso   1.000  H
  H58      1.0000 0.26233  0.37067  0.82077  Biso   1.000  H
  H59      1.0000 0.50193  0.38977  0.23057  Biso   1.000  H
  H60      1.0000 0.53103  0.42977  0.88887  Biso   1.000  H
  O209     1.0000 0.31963  0.40317  0.06067  Biso   1.000  O
  O210     1.0000 0.26213  0.37157  0.81907  Biso   1.000  O
  Zn46     1.0000 0.37509  0.34072  0.24580  Biso   1.000  Zn
  Zn47     1.0000 0.22639  0.33685  0.36963  Biso   1.000  Zn
  Zn48     1.0000 0.33827  0.17005  0.00224  Biso   1.000  Zn
  P61      1.0000 0.29298  0.29793  0.40085  Biso   1.000  P
  P62      1.0000 0.34547  0.23983  0.17352  Biso   1.000  P
  P63      1.0000 0.25554  0.40202  0.55424  Biso   1.000  P
  P64      1.0000 0.20410  0.38829  0.19895  Biso   1.000  P
  O211     1.0000 0.34212  0.31473  0.36796  Biso   1.000  O
  O212     1.0000 0.26786  0.31334  0.33296  Biso   1.000  O
  O213     1.0000 0.29035  0.30913  0.50840  Biso   1.000  O
  O214     1.0000 0.37318  0.29180  0.16650  Biso   1.000  O
  O215     1.0000 0.36174  0.22033  0.09307  Biso   1.000  O
  O216     1.0000 0.34806  0.22363  0.27528  Biso   1.000  O
  O217     1.0000 0.25937  0.39299  0.44546  Biso   1.000  O
  O218     1.0000 0.20631  0.38206  0.58944  Biso   1.000  O
  O219     1.0000 0.28331  0.38819  0.61937  Biso   1.000  O
  O220     1.0000 0.21800  0.35499  0.23856  Biso   1.000  O
  O221     1.0000 0.16056  0.38223  0.24408  Biso   1.000  O
  O222     1.0000 0.20387  0.38872  0.08874  Biso   1.000  O
  H61      1.0000 0.27150  0.24610  0.39670  Biso   1.000  H
  H62      1.0000 0.29600  0.22500  0.15410  Biso   1.000  H
  H63      1.0000 0.27690  0.44550  0.56390  Biso   1.000  H
  H64      1.0000 0.23690  0.43460  0.22220  Biso   1.000  H
  O223     1.0000 0.26350  0.24980  0.39400  Biso   1.000  O
  O224     1.0000 0.29510  0.22390  0.15240  Biso   1.000  O
  Zn49     1.0000 0.04176  0.67406  0.57914  Biso   1.000  Zn
  Zn50     1.0000 0.89306  0.67019  0.70296  Biso   1.000  Zn
  Zn51     1.0000 0.00493  0.50338  0.33557  Biso   1.000  Zn
  P65      1.0000 0.95965  0.63126  0.73418  Biso   1.000  P
  P66      1.0000 0.01214  0.57317  0.50685  Biso   1.000  P
  P67      1.0000 0.92221  0.73535  0.88757  Biso   1.000  P
  P68      1.0000 0.87077  0.72162  0.53228  Biso   1.000  P
  O225     1.0000 0.00879  0.64806  0.70129  Biso   1.000  O
  O226     1.0000 0.93453  0.64667  0.66629  Biso   1.000  O
  O227     1.0000 0.95702  0.64246  0.84173  Biso   1.000  O
  O228     1.0000 0.03985  0.62513  0.49983  Biso   1.000  O
  O229     1.0000 0.02841  0.55366  0.42640  Biso   1.000  O
  O230     1.0000 0.01473  0.55696  0.60861  Biso   1.000  O
  O231     1.0000 0.92604  0.72632  0.77879  Biso   1.000  O
  O232     1.0000 0.87298  0.71539  0.92277  Biso   1.000  O
  O233     1.0000 0.94998  0.72152  0.95270  Biso   1.000  O
  O234     1.0000 0.88467  0.68832  0.57189  Biso   1.000  O
  O235     1.0000 0.82723  0.71556  0.57741  Biso   1.000  O
  O236     1.0000 0.87054  0.72205  0.42207  Biso   1.000  O
  H65      1.0000 0.93817  0.57943  0.73003  Biso   1.000  H
  H66      1.0000 0.96267  0.55833  0.48743  Biso   1.000  H
  H67      1.0000 0.94357  0.77883  0.89723  Biso   1.000  H
  H68      1.0000 0.90357  0.76793  0.55553  Biso   1.000  H
  O237     1.0000 0.93017  0.58313  0.72733  Biso   1.000  O
  O238     1.0000 0.96177  0.55723  0.48573  Biso   1.000  O
  Zn52     1.0000 0.70843  0.00739  0.91247  Biso   1.000  Zn
  Zn53     1.0000 0.55972  0.00352  0.03629  Biso   1.000  Zn
  Zn54     1.0000 0.67160  0.83672  0.66891  Biso   1.000  Zn
  P69      1.0000 0.62631  0.96460  0.06752  Biso   1.000  P
  P70      1.0000 0.67881  0.90650  0.84019  Biso   1.000  P
  P71      1.0000 0.58887  0.06869  0.22091  Biso   1.000  P
  P72      1.0000 0.53743  0.05496  0.86562  Biso   1.000  P
  O239     1.0000 0.67545  0.98140  0.03463  Biso   1.000  O
  O240     1.0000 0.60119  0.98001  0.99963  Biso   1.000  O
  O241     1.0000 0.62368  0.97580  0.17507  Biso   1.000  O
  O242     1.0000 0.70651  0.95847  0.83317  Biso   1.000  O
  O243     1.0000 0.69507  0.88700  0.75974  Biso   1.000  O
  O244     1.0000 0.68139  0.89030  0.94195  Biso   1.000  O
  O245     1.0000 0.59270  0.05966  0.11213  Biso   1.000  O
  O246     1.0000 0.53964  0.04873  0.25611  Biso   1.000  O
  O247     1.0000 0.61664  0.05486  0.28604  Biso   1.000  O
  O248     1.0000 0.55133  0.02166  0.90523  Biso   1.000  O
  O249     1.0000 0.49389  0.04890  0.91075  Biso   1.000  O
  O250     1.0000 0.53720  0.05539  0.75541  Biso   1.000  O
  H69      1.0000 0.60483  0.91277  0.06337  Biso   1.000  H
  H70      1.0000 0.62933  0.89167  0.82077  Biso   1.000  H
  H71      1.0000 0.61023  0.11217  0.23057  Biso   1.000  H
  H72      1.0000 0.57023  0.10127  0.88887  Biso   1.000  H
  O251     1.0000 0.59683  0.91647  0.06067  Biso   1.000  O
  O252     1.0000 0.62843  0.89057  0.81907  Biso   1.000  O
