data_image0
_cell_length_a       33.9287
_cell_length_b       33.9287
_cell_length_c       13.6579
_cell_angle_alpha    90
_cell_angle_beta     90
_cell_angle_gamma    120

_symmetry_space_group_name_H-M    "P 1"
_symmetry_int_tables_number       1

loop_
  _symmetry_equiv_pos_as_xyz
  'x, y, z'

loop_
  _atom_site_label
  _atom_site_occupancy
  _atom_site_fract_x
  _atom_site_fract_y
  _atom_site_fract_z
  _atom_site_thermal_displace_type
  _atom_site_B_iso_or_equiv
  _atom_site_type_symbol
  Zn1      1.0000 0.00665  0.30051  0.09770  Biso   1.000  Zn
  O1       1.0000 0.04282  0.35762  0.16830  Biso   1.000  O
  O2       1.0000 0.95576  0.25302  0.16900  Biso   1.000  O
  O3       1.0000 0.05018  0.28265  0.05760  Biso   1.000  O
  O4       1.0000 0.98327  0.30841  0.97490  Biso   1.000  O
  P1       1.0000 0.04046  0.36810  0.27530  Biso   1.000  P
  P2       1.0000 0.90458  0.22890  0.15465  Biso   1.000  P
  P3       1.0000 0.07681  0.26677  0.11807  Biso   1.000  P
  O5       1.0000 0.06646  0.35342  0.34150  Biso   1.000  O
  H1       1.0000 0.05820  0.41590  0.28460  Biso   1.000  H
  O6       1.0000 0.88191  0.19400  0.23400  Biso   1.000  O
  O7       1.0000 0.89151  0.20926  0.05350  Biso   1.000  O
  H2       1.0000 0.89030  0.26230  0.17710  Biso   1.000  H
  O8       1.0000 0.07666  0.27585  0.22690  Biso   1.000  O
  O9       1.0000 0.12340  0.28237  0.07570  Biso   1.000  O
  H3       1.0000 0.06130  0.22820  0.12510  Biso   1.000  H
  Zn2      1.0000 0.10695  0.33025  0.30487  Biso   1.000  Zn
  Zn3      1.0000 0.83477  0.16823  0.32996  Biso   1.000  Zn
  O10      1.0000 0.11948  0.31562  0.43470  Biso   1.000  O
  O11      1.0000 0.15903  0.38038  0.24640  Biso   1.000  O
  O12      1.0000 0.81291  0.19670  0.91360  Biso   1.000  O
  P4       1.0000 0.13322  0.28230  0.47078  Biso   1.000  P
  H4       1.0000 0.10170  0.23810  0.45020  Biso   1.000  H
  O13      1.0000 0.88930  0.26190  0.17950  Biso   1.000  O
  Zn4      1.0000 0.67332  0.63384  0.43103  Biso   1.000  Zn
  O14      1.0000 0.70949  0.69095  0.50163  Biso   1.000  O
  O15      1.0000 0.62243  0.58635  0.50233  Biso   1.000  O
  O16      1.0000 0.71685  0.61598  0.39093  Biso   1.000  O
  O17      1.0000 0.64994  0.64174  0.30823  Biso   1.000  O
  P5       1.0000 0.70713  0.70143  0.60863  Biso   1.000  P
  P6       1.0000 0.57125  0.56223  0.48798  Biso   1.000  P
  P7       1.0000 0.74348  0.60010  0.45140  Biso   1.000  P
  O18      1.0000 0.73313  0.68675  0.67483  Biso   1.000  O
  H5       1.0000 0.72487  0.74923  0.61793  Biso   1.000  H
  O19      1.0000 0.54858  0.52733  0.56733  Biso   1.000  O
  O20      1.0000 0.55818  0.54259  0.38683  Biso   1.000  O
  H6       1.0000 0.55697  0.59563  0.51043  Biso   1.000  H
  O21      1.0000 0.74333  0.60918  0.56023  Biso   1.000  O
  O22      1.0000 0.79007  0.61570  0.40903  Biso   1.000  O
  H7       1.0000 0.72797  0.56153  0.45843  Biso   1.000  H
  Zn5      1.0000 0.77362  0.66358  0.63820  Biso   1.000  Zn
  Zn6      1.0000 0.50144  0.50156  0.66329  Biso   1.000  Zn
  O23      1.0000 0.78615  0.64895  0.76803  Biso   1.000  O
  O24      1.0000 0.82570  0.71371  0.57973  Biso   1.000  O
  O25      1.0000 0.47958  0.53003  0.24693  Biso   1.000  O
  P8       1.0000 0.79989  0.61563  0.80411  Biso   1.000  P
  H8       1.0000 0.76837  0.57143  0.78353  Biso   1.000  H
  O26      1.0000 0.55597  0.59523  0.51283  Biso   1.000  O
  Zn7      1.0000 0.33999  0.96718  0.76437  Biso   1.000  Zn
  O27      1.0000 0.37615  0.02429  0.83497  Biso   1.000  O
  O28      1.0000 0.28909  0.91969  0.83567  Biso   1.000  O
  O29      1.0000 0.38351  0.94932  0.72427  Biso   1.000  O
  O30      1.0000 0.31660  0.97508  0.64157  Biso   1.000  O
  P9       1.0000 0.37379  0.03477  0.94197  Biso   1.000  P
  P10      1.0000 0.23791  0.89557  0.82132  Biso   1.000  P
  P11      1.0000 0.41014  0.93344  0.78474  Biso   1.000  P
  O31      1.0000 0.39979  0.02009  0.00817  Biso   1.000  O
  H9       1.0000 0.39153  0.08257  0.95127  Biso   1.000  H
  O32      1.0000 0.21524  0.86067  0.90067  Biso   1.000  O
  O33      1.0000 0.22484  0.87593  0.72017  Biso   1.000  O
  H10      1.0000 0.22363  0.92897  0.84377  Biso   1.000  H
  O34      1.0000 0.40999  0.94252  0.89357  Biso   1.000  O
  O35      1.0000 0.45673  0.94904  0.74237  Biso   1.000  O
  H11      1.0000 0.39463  0.89487  0.79177  Biso   1.000  H
  Zn8      1.0000 0.44028  0.99692  0.97154  Biso   1.000  Zn
  Zn9      1.0000 0.16810  0.83490  0.99663  Biso   1.000  Zn
  O36      1.0000 0.45281  0.98229  0.10137  Biso   1.000  O
  O37      1.0000 0.49236  0.04705  0.91307  Biso   1.000  O
  O38      1.0000 0.14624  0.86337  0.58027  Biso   1.000  O
  P12      1.0000 0.46655  0.94897  0.13745  Biso   1.000  P
  H12      1.0000 0.43503  0.90477  0.11687  Biso   1.000  H
  O39      1.0000 0.22263  0.92857  0.84617  Biso   1.000  O
  Zn10     1.0000 0.69949  0.70614  0.09770  Biso   1.000  Zn
  O40      1.0000 0.64238  0.68520  0.16830  Biso   1.000  O
  O41      1.0000 0.74698  0.70274  0.16900  Biso   1.000  O
  O42      1.0000 0.71735  0.76753  0.05760  Biso   1.000  O
  O43      1.0000 0.69159  0.67486  0.97490  Biso   1.000  O
  P13      1.0000 0.63190  0.67236  0.27530  Biso   1.000  P
  P14      1.0000 0.77110  0.67568  0.15465  Biso   1.000  P
  P15      1.0000 0.73323  0.81004  0.11807  Biso   1.000  P
  O44      1.0000 0.64658  0.71304  0.34150  Biso   1.000  O
  H13      1.0000 0.58410  0.64230  0.28460  Biso   1.000  H
  O45      1.0000 0.80600  0.68791  0.23400  Biso   1.000  O
  O46      1.0000 0.79074  0.68225  0.05350  Biso   1.000  O
  H14      1.0000 0.73770  0.62800  0.17710  Biso   1.000  H
  O47      1.0000 0.72415  0.80081  0.22690  Biso   1.000  O
  O48      1.0000 0.71763  0.84103  0.07570  Biso   1.000  O
  H15      1.0000 0.77180  0.83310  0.12510  Biso   1.000  H
  Zn11     1.0000 0.66975  0.77670  0.30487  Biso   1.000  Zn
  Zn12     1.0000 0.83177  0.66654  0.32996  Biso   1.000  Zn
  O49      1.0000 0.68438  0.80386  0.43470  Biso   1.000  O
  O50      1.0000 0.61962  0.77865  0.24640  Biso   1.000  O
  O51      1.0000 0.80330  0.61621  0.91360  Biso   1.000  O
  P16      1.0000 0.71770  0.85092  0.47078  Biso   1.000  P
  H16      1.0000 0.76190  0.86360  0.45020  Biso   1.000  H
  O52      1.0000 0.73810  0.62740  0.17950  Biso   1.000  O
  Zn13     1.0000 0.36616  0.03948  0.43103  Biso   1.000  Zn
  O53      1.0000 0.30905  0.01853  0.50163  Biso   1.000  O
  O54      1.0000 0.41365  0.03607  0.50233  Biso   1.000  O
  O55      1.0000 0.38402  0.10086  0.39093  Biso   1.000  O
  O56      1.0000 0.35826  0.00819  0.30823  Biso   1.000  O
  P17      1.0000 0.29857  0.00569  0.60863  Biso   1.000  P
  P18      1.0000 0.43777  0.00901  0.48798  Biso   1.000  P
  P19      1.0000 0.39990  0.14337  0.45140  Biso   1.000  P
  O57      1.0000 0.31325  0.04637  0.67483  Biso   1.000  O
  H17      1.0000 0.25077  0.97563  0.61793  Biso   1.000  H
  O58      1.0000 0.47267  0.02124  0.56733  Biso   1.000  O
  O59      1.0000 0.45741  0.01558  0.38683  Biso   1.000  O
  H18      1.0000 0.40437  0.96133  0.51043  Biso   1.000  H
  O60      1.0000 0.39082  0.13414  0.56023  Biso   1.000  O
  O61      1.0000 0.38430  0.17436  0.40903  Biso   1.000  O
  H19      1.0000 0.43847  0.16643  0.45843  Biso   1.000  H
  Zn14     1.0000 0.33642  0.11003  0.63820  Biso   1.000  Zn
  Zn15     1.0000 0.49844  0.99987  0.66329  Biso   1.000  Zn
  O62      1.0000 0.35105  0.13719  0.76803  Biso   1.000  O
  O63      1.0000 0.28629  0.11198  0.57973  Biso   1.000  O
  O64      1.0000 0.46997  0.94954  0.24693  Biso   1.000  O
  P20      1.0000 0.38437  0.18425  0.80411  Biso   1.000  P
  H20      1.0000 0.42857  0.19693  0.78353  Biso   1.000  H
  O65      1.0000 0.40477  0.96073  0.51283  Biso   1.000  O
  Zn16     1.0000 0.03282  0.37281  0.76437  Biso   1.000  Zn
  O66      1.0000 0.97571  0.35187  0.83497  Biso   1.000  O
  O67      1.0000 0.08031  0.36941  0.83567  Biso   1.000  O
  O68      1.0000 0.05068  0.43420  0.72427  Biso   1.000  O
  O69      1.0000 0.02492  0.34153  0.64157  Biso   1.000  O
  P21      1.0000 0.96523  0.33903  0.94197  Biso   1.000  P
  P22      1.0000 0.10443  0.34235  0.82132  Biso   1.000  P
  P23      1.0000 0.06656  0.47671  0.78474  Biso   1.000  P
  O70      1.0000 0.97991  0.37971  0.00817  Biso   1.000  O
  H21      1.0000 0.91743  0.30897  0.95127  Biso   1.000  H
  O71      1.0000 0.13933  0.35458  0.90067  Biso   1.000  O
  O72      1.0000 0.12407  0.34892  0.72017  Biso   1.000  O
  H22      1.0000 0.07103  0.29467  0.84377  Biso   1.000  H
  O73      1.0000 0.05748  0.46748  0.89357  Biso   1.000  O
  O74      1.0000 0.05096  0.50770  0.74237  Biso   1.000  O
  H23      1.0000 0.10513  0.49977  0.79177  Biso   1.000  H
  Zn17     1.0000 0.00308  0.44337  0.97154  Biso   1.000  Zn
  Zn18     1.0000 0.16510  0.33321  0.99663  Biso   1.000  Zn
  O75      1.0000 0.01771  0.47053  0.10137  Biso   1.000  O
  O76      1.0000 0.95295  0.44532  0.91307  Biso   1.000  O
  O77      1.0000 0.13663  0.28288  0.58027  Biso   1.000  O
  P24      1.0000 0.05103  0.51759  0.13745  Biso   1.000  P
  H24      1.0000 0.09523  0.53027  0.11687  Biso   1.000  H
  O78      1.0000 0.07143  0.29407  0.84617  Biso   1.000  O
  Zn19     1.0000 0.29386  0.99335  0.09770  Biso   1.000  Zn
  O79      1.0000 0.31480  0.95718  0.16830  Biso   1.000  O
  O80      1.0000 0.29726  0.04424  0.16900  Biso   1.000  O
  O81      1.0000 0.23247  0.94982  0.05760  Biso   1.000  O
  O82      1.0000 0.32514  0.01673  0.97490  Biso   1.000  O
  P25      1.0000 0.32764  0.95954  0.27530  Biso   1.000  P
  P26      1.0000 0.32432  0.09542  0.15465  Biso   1.000  P
  P27      1.0000 0.18996  0.92319  0.11807  Biso   1.000  P
  O83      1.0000 0.28696  0.93354  0.34150  Biso   1.000  O
  H25      1.0000 0.35770  0.94180  0.28460  Biso   1.000  H
  O84      1.0000 0.31209  0.11809  0.23400  Biso   1.000  O
  O85      1.0000 0.31775  0.10849  0.05350  Biso   1.000  O
  H26      1.0000 0.37200  0.10970  0.17710  Biso   1.000  H
  O86      1.0000 0.19919  0.92334  0.22690  Biso   1.000  O
  O87      1.0000 0.15897  0.87660  0.07570  Biso   1.000  O
  H27      1.0000 0.16690  0.93870  0.12510  Biso   1.000  H
  Zn20     1.0000 0.22330  0.89305  0.30487  Biso   1.000  Zn
  Zn21     1.0000 0.33346  0.16523  0.32996  Biso   1.000  Zn
  O88      1.0000 0.19614  0.88052  0.43470  Biso   1.000  O
  O89      1.0000 0.22135  0.84097  0.24640  Biso   1.000  O
  O90      1.0000 0.38379  0.18709  0.91360  Biso   1.000  O
  P28      1.0000 0.14908  0.86678  0.47078  Biso   1.000  P
  H28      1.0000 0.13640  0.89830  0.45020  Biso   1.000  H
  O91      1.0000 0.37260  0.11070  0.17950  Biso   1.000  O
  Zn22     1.0000 0.96052  0.32668  0.43103  Biso   1.000  Zn
  O92      1.0000 0.98147  0.29051  0.50163  Biso   1.000  O
  O93      1.0000 0.96393  0.37757  0.50233  Biso   1.000  O
  O94      1.0000 0.89914  0.28315  0.39093  Biso   1.000  O
  O95      1.0000 0.99181  0.35006  0.30823  Biso   1.000  O
  P29      1.0000 0.99431  0.29287  0.60863  Biso   1.000  P
  P30      1.0000 0.99099  0.42875  0.48798  Biso   1.000  P
  P31      1.0000 0.85663  0.25652  0.45140  Biso   1.000  P
  O96      1.0000 0.95363  0.26687  0.67483  Biso   1.000  O
  H29      1.0000 0.02437  0.27513  0.61793  Biso   1.000  H
  O97      1.0000 0.97876  0.45142  0.56733  Biso   1.000  O
  O98      1.0000 0.98442  0.44182  0.38683  Biso   1.000  O
  H30      1.0000 0.03867  0.44303  0.51043  Biso   1.000  H
  O99      1.0000 0.86586  0.25667  0.56023  Biso   1.000  O
  O100     1.0000 0.82564  0.20993  0.40903  Biso   1.000  O
  H31      1.0000 0.83357  0.27203  0.45843  Biso   1.000  H
  Zn23     1.0000 0.88997  0.22638  0.63820  Biso   1.000  Zn
  Zn24     1.0000 0.00013  0.49856  0.66329  Biso   1.000  Zn
  O101     1.0000 0.86281  0.21385  0.76803  Biso   1.000  O
  O102     1.0000 0.88802  0.17430  0.57973  Biso   1.000  O
  O103     1.0000 0.05046  0.52042  0.24693  Biso   1.000  O
  P32      1.0000 0.81575  0.20011  0.80411  Biso   1.000  P
  H32      1.0000 0.80307  0.23163  0.78353  Biso   1.000  H
  O104     1.0000 0.03927  0.44403  0.51283  Biso   1.000  O
  Zn25     1.0000 0.62719  0.66001  0.76437  Biso   1.000  Zn
  O105     1.0000 0.64813  0.62385  0.83497  Biso   1.000  O
  O106     1.0000 0.63059  0.71091  0.83567  Biso   1.000  O
  O107     1.0000 0.56580  0.61649  0.72427  Biso   1.000  O
  O108     1.0000 0.65847  0.68340  0.64157  Biso   1.000  O
  P33      1.0000 0.66097  0.62621  0.94197  Biso   1.000  P
  P34      1.0000 0.65765  0.76209  0.82132  Biso   1.000  P
  P35      1.0000 0.52329  0.58986  0.78474  Biso   1.000  P
  O109     1.0000 0.62029  0.60021  0.00817  Biso   1.000  O
  H33      1.0000 0.69103  0.60847  0.95127  Biso   1.000  H
  O110     1.0000 0.64542  0.78476  0.90067  Biso   1.000  O
  O111     1.0000 0.65108  0.77516  0.72017  Biso   1.000  O
  H34      1.0000 0.70533  0.77637  0.84377  Biso   1.000  H
  O112     1.0000 0.53252  0.59001  0.89357  Biso   1.000  O
  O113     1.0000 0.49230  0.54327  0.74237  Biso   1.000  O
  H35      1.0000 0.50023  0.60537  0.79177  Biso   1.000  H
  Zn26     1.0000 0.55663  0.55972  0.97154  Biso   1.000  Zn
  Zn27     1.0000 0.66679  0.83190  0.99663  Biso   1.000  Zn
  O114     1.0000 0.52947  0.54719  0.10137  Biso   1.000  O
  O115     1.0000 0.55468  0.50764  0.91307  Biso   1.000  O
  O116     1.0000 0.71712  0.85376  0.58027  Biso   1.000  O
  P36      1.0000 0.48241  0.53345  0.13745  Biso   1.000  P
  H36      1.0000 0.46973  0.56497  0.11687  Biso   1.000  H
  O117     1.0000 0.70593  0.77737  0.84617  Biso   1.000  O
  Zn28     1.0000 0.99335  0.69949  0.90230  Biso   1.000  Zn
  O118     1.0000 0.95718  0.64238  0.83170  Biso   1.000  O
  O119     1.0000 0.04424  0.74698  0.83100  Biso   1.000  O
  O120     1.0000 0.94982  0.71735  0.94240  Biso   1.000  O
  O121     1.0000 0.01673  0.69159  0.02510  Biso   1.000  O
  P37      1.0000 0.95954  0.63190  0.72470  Biso   1.000  P
  P38      1.0000 0.09542  0.77110  0.84535  Biso   1.000  P
  P39      1.0000 0.92319  0.73323  0.88193  Biso   1.000  P
  O122     1.0000 0.93354  0.64658  0.65850  Biso   1.000  O
  H37      1.0000 0.94180  0.58410  0.71540  Biso   1.000  H
  O123     1.0000 0.11809  0.80600  0.76600  Biso   1.000  O
  O124     1.0000 0.10849  0.79074  0.94650  Biso   1.000  O
  H38      1.0000 0.10970  0.73770  0.82290  Biso   1.000  H
  O125     1.0000 0.92334  0.72415  0.77310  Biso   1.000  O
  O126     1.0000 0.87660  0.71763  0.92430  Biso   1.000  O
  H39      1.0000 0.93870  0.77180  0.87490  Biso   1.000  H
  Zn29     1.0000 0.89305  0.66975  0.69513  Biso   1.000  Zn
  Zn30     1.0000 0.16523  0.83177  0.67004  Biso   1.000  Zn
  O127     1.0000 0.88052  0.68438  0.56530  Biso   1.000  O
  O128     1.0000 0.84097  0.61962  0.75360  Biso   1.000  O
  O129     1.0000 0.18709  0.80330  0.08640  Biso   1.000  O
  P40      1.0000 0.86678  0.71770  0.52922  Biso   1.000  P
  H40      1.0000 0.89830  0.76190  0.54980  Biso   1.000  H
  O130     1.0000 0.11070  0.73810  0.82050  Biso   1.000  O
  Zn31     1.0000 0.66001  0.03282  0.23563  Biso   1.000  Zn
  O131     1.0000 0.62385  0.97571  0.16503  Biso   1.000  O
  O132     1.0000 0.71091  0.08031  0.16433  Biso   1.000  O
  O133     1.0000 0.61649  0.05068  0.27573  Biso   1.000  O
  O134     1.0000 0.68340  0.02492  0.35843  Biso   1.000  O
  P41      1.0000 0.62621  0.96523  0.05803  Biso   1.000  P
  P42      1.0000 0.76209  0.10443  0.17868  Biso   1.000  P
  P43      1.0000 0.58986  0.06656  0.21526  Biso   1.000  P
  O135     1.0000 0.60021  0.97991  0.99183  Biso   1.000  O
  H41      1.0000 0.60847  0.91743  0.04873  Biso   1.000  H
  O136     1.0000 0.78476  0.13933  0.09933  Biso   1.000  O
  O137     1.0000 0.77516  0.12407  0.27983  Biso   1.000  O
  H42      1.0000 0.77637  0.07103  0.15623  Biso   1.000  H
  O138     1.0000 0.59001  0.05748  0.10643  Biso   1.000  O
  O139     1.0000 0.54327  0.05096  0.25763  Biso   1.000  O
  H43      1.0000 0.60537  0.10513  0.20823  Biso   1.000  H
  Zn32     1.0000 0.55972  0.00308  0.02846  Biso   1.000  Zn
  Zn33     1.0000 0.83190  0.16510  0.00337  Biso   1.000  Zn
  O140     1.0000 0.54719  0.01771  0.89863  Biso   1.000  O
  O141     1.0000 0.50764  0.95295  0.08693  Biso   1.000  O
  O142     1.0000 0.85376  0.13663  0.41973  Biso   1.000  O
  P44      1.0000 0.53345  0.05103  0.86255  Biso   1.000  P
  H44      1.0000 0.56497  0.09523  0.88313  Biso   1.000  H
  O143     1.0000 0.77737  0.07143  0.15383  Biso   1.000  O
  Zn34     1.0000 0.32668  0.36616  0.56897  Biso   1.000  Zn
  O144     1.0000 0.29051  0.30905  0.49837  Biso   1.000  O
  O145     1.0000 0.37757  0.41365  0.49767  Biso   1.000  O
  O146     1.0000 0.28315  0.38402  0.60907  Biso   1.000  O
  O147     1.0000 0.35006  0.35826  0.69177  Biso   1.000  O
  P45      1.0000 0.29287  0.29857  0.39137  Biso   1.000  P
  P46      1.0000 0.42875  0.43777  0.51202  Biso   1.000  P
  P47      1.0000 0.25652  0.39990  0.54860  Biso   1.000  P
  O148     1.0000 0.26687  0.31325  0.32517  Biso   1.000  O
  H45      1.0000 0.27513  0.25077  0.38207  Biso   1.000  H
  O149     1.0000 0.45142  0.47267  0.43267  Biso   1.000  O
  O150     1.0000 0.44182  0.45741  0.61317  Biso   1.000  O
  H46      1.0000 0.44303  0.40437  0.48957  Biso   1.000  H
  O151     1.0000 0.25667  0.39082  0.43977  Biso   1.000  O
  O152     1.0000 0.20993  0.38430  0.59097  Biso   1.000  O
  H47      1.0000 0.27203  0.43847  0.54157  Biso   1.000  H
  Zn35     1.0000 0.22638  0.33642  0.36180  Biso   1.000  Zn
  Zn36     1.0000 0.49856  0.49844  0.33671  Biso   1.000  Zn
  O153     1.0000 0.21385  0.35105  0.23197  Biso   1.000  O
  O154     1.0000 0.17430  0.28629  0.42027  Biso   1.000  O
  O155     1.0000 0.52042  0.46997  0.75307  Biso   1.000  O
  P48      1.0000 0.20011  0.38437  0.19589  Biso   1.000  P
  H48      1.0000 0.23163  0.42857  0.21647  Biso   1.000  H
  O156     1.0000 0.44403  0.40477  0.48717  Biso   1.000  O
  Zn37     1.0000 0.30051  0.29386  0.90230  Biso   1.000  Zn
  O157     1.0000 0.35762  0.31480  0.83170  Biso   1.000  O
  O158     1.0000 0.25302  0.29726  0.83100  Biso   1.000  O
  O159     1.0000 0.28265  0.23247  0.94240  Biso   1.000  O
  O160     1.0000 0.30841  0.32514  0.02510  Biso   1.000  O
  P49      1.0000 0.36810  0.32764  0.72470  Biso   1.000  P
  P50      1.0000 0.22890  0.32432  0.84535  Biso   1.000  P
  P51      1.0000 0.26677  0.18996  0.88193  Biso   1.000  P
  O161     1.0000 0.35342  0.28696  0.65850  Biso   1.000  O
  H49      1.0000 0.41590  0.35770  0.71540  Biso   1.000  H
  O162     1.0000 0.19400  0.31209  0.76600  Biso   1.000  O
  O163     1.0000 0.20926  0.31775  0.94650  Biso   1.000  O
  H50      1.0000 0.26230  0.37200  0.82290  Biso   1.000  H
  O164     1.0000 0.27585  0.19919  0.77310  Biso   1.000  O
  O165     1.0000 0.28237  0.15897  0.92430  Biso   1.000  O
  H51      1.0000 0.22820  0.16690  0.87490  Biso   1.000  H
  Zn38     1.0000 0.33025  0.22330  0.69513  Biso   1.000  Zn
  Zn39     1.0000 0.16823  0.33346  0.67004  Biso   1.000  Zn
  O166     1.0000 0.31562  0.19614  0.56530  Biso   1.000  O
  O167     1.0000 0.38038  0.22135  0.75360  Biso   1.000  O
  O168     1.0000 0.19670  0.38379  0.08640  Biso   1.000  O
  P52      1.0000 0.28230  0.14908  0.52922  Biso   1.000  P
  H52      1.0000 0.23810  0.13640  0.54980  Biso   1.000  H
  O169     1.0000 0.26190  0.37260  0.82050  Biso   1.000  O
  Zn40     1.0000 0.96718  0.62719  0.23563  Biso   1.000  Zn
  O170     1.0000 0.02429  0.64813  0.16503  Biso   1.000  O
  O171     1.0000 0.91969  0.63059  0.16433  Biso   1.000  O
  O172     1.0000 0.94932  0.56580  0.27573  Biso   1.000  O
  O173     1.0000 0.97508  0.65847  0.35843  Biso   1.000  O
  P53      1.0000 0.03477  0.66097  0.05803  Biso   1.000  P
  P54      1.0000 0.89557  0.65765  0.17868  Biso   1.000  P
  P55      1.0000 0.93344  0.52329  0.21526  Biso   1.000  P
  O174     1.0000 0.02009  0.62029  0.99183  Biso   1.000  O
  H53      1.0000 0.08257  0.69103  0.04873  Biso   1.000  H
  O175     1.0000 0.86067  0.64542  0.09933  Biso   1.000  O
  O176     1.0000 0.87593  0.65108  0.27983  Biso   1.000  O
  H54      1.0000 0.92897  0.70533  0.15623  Biso   1.000  H
  O177     1.0000 0.94252  0.53252  0.10643  Biso   1.000  O
  O178     1.0000 0.94904  0.49230  0.25763  Biso   1.000  O
  H55      1.0000 0.89487  0.50023  0.20823  Biso   1.000  H
  Zn41     1.0000 0.99692  0.55663  0.02846  Biso   1.000  Zn
  Zn42     1.0000 0.83490  0.66679  0.00337  Biso   1.000  Zn
  O179     1.0000 0.98229  0.52947  0.89863  Biso   1.000  O
  O180     1.0000 0.04705  0.55468  0.08693  Biso   1.000  O
  O181     1.0000 0.86337  0.71712  0.41973  Biso   1.000  O
  P56      1.0000 0.94897  0.48241  0.86255  Biso   1.000  P
  H56      1.0000 0.90477  0.46973  0.88313  Biso   1.000  H
  O182     1.0000 0.92857  0.70593  0.15383  Biso   1.000  O
  Zn43     1.0000 0.63384  0.96052  0.56897  Biso   1.000  Zn
  O183     1.0000 0.69095  0.98147  0.49837  Biso   1.000  O
  O184     1.0000 0.58635  0.96393  0.49767  Biso   1.000  O
  O185     1.0000 0.61598  0.89914  0.60907  Biso   1.000  O
  O186     1.0000 0.64174  0.99181  0.69177  Biso   1.000  O
  P57      1.0000 0.70143  0.99431  0.39137  Biso   1.000  P
  P58      1.0000 0.56223  0.99099  0.51202  Biso   1.000  P
  P59      1.0000 0.60010  0.85663  0.54860  Biso   1.000  P
  O187     1.0000 0.68675  0.95363  0.32517  Biso   1.000  O
  H57      1.0000 0.74923  0.02437  0.38207  Biso   1.000  H
  O188     1.0000 0.52733  0.97876  0.43267  Biso   1.000  O
  O189     1.0000 0.54259  0.98442  0.61317  Biso   1.000  O
  H58      1.0000 0.59563  0.03867  0.48957  Biso   1.000  H
  O190     1.0000 0.60918  0.86586  0.43977  Biso   1.000  O
  O191     1.0000 0.61570  0.82564  0.59097  Biso   1.000  O
  H59      1.0000 0.56153  0.83357  0.54157  Biso   1.000  H
  Zn44     1.0000 0.66358  0.88997  0.36180  Biso   1.000  Zn
  Zn45     1.0000 0.50156  0.00013  0.33671  Biso   1.000  Zn
  O192     1.0000 0.64895  0.86281  0.23197  Biso   1.000  O
  O193     1.0000 0.71371  0.88802  0.42027  Biso   1.000  O
  O194     1.0000 0.53003  0.05046  0.75307  Biso   1.000  O
  P60      1.0000 0.61563  0.81575  0.19589  Biso   1.000  P
  H60      1.0000 0.57143  0.80307  0.21647  Biso   1.000  H
  O195     1.0000 0.59523  0.03927  0.48717  Biso   1.000  O
  Zn46     1.0000 0.70614  0.00665  0.90230  Biso   1.000  Zn
  O196     1.0000 0.68520  0.04282  0.83170  Biso   1.000  O
  O197     1.0000 0.70274  0.95576  0.83100  Biso   1.000  O
  O198     1.0000 0.76753  0.05018  0.94240  Biso   1.000  O
  O199     1.0000 0.67486  0.98327  0.02510  Biso   1.000  O
  P61      1.0000 0.67236  0.04046  0.72470  Biso   1.000  P
  P62      1.0000 0.67568  0.90458  0.84535  Biso   1.000  P
  P63      1.0000 0.81004  0.07681  0.88193  Biso   1.000  P
  O200     1.0000 0.71304  0.06646  0.65850  Biso   1.000  O
  H61      1.0000 0.64230  0.05820  0.71540  Biso   1.000  H
  O201     1.0000 0.68791  0.88191  0.76600  Biso   1.000  O
  O202     1.0000 0.68225  0.89151  0.94650  Biso   1.000  O
  H62      1.0000 0.62800  0.89030  0.82290  Biso   1.000  H
  O203     1.0000 0.80081  0.07666  0.77310  Biso   1.000  O
  O204     1.0000 0.84103  0.12340  0.92430  Biso   1.000  O
  H63      1.0000 0.83310  0.06130  0.87490  Biso   1.000  H
  Zn47     1.0000 0.77670  0.10695  0.69513  Biso   1.000  Zn
  Zn48     1.0000 0.66654  0.83477  0.67004  Biso   1.000  Zn
  O205     1.0000 0.80386  0.11948  0.56530  Biso   1.000  O
  O206     1.0000 0.77865  0.15903  0.75360  Biso   1.000  O
  O207     1.0000 0.61621  0.81291  0.08640  Biso   1.000  O
  P64      1.0000 0.85092  0.13322  0.52922  Biso   1.000  P
  H64      1.0000 0.86360  0.10170  0.54980  Biso   1.000  H
  O208     1.0000 0.62740  0.88930  0.82050  Biso   1.000  O
  Zn49     1.0000 0.37281  0.33999  0.23563  Biso   1.000  Zn
  O209     1.0000 0.35187  0.37615  0.16503  Biso   1.000  O
  O210     1.0000 0.36941  0.28909  0.16433  Biso   1.000  O
  O211     1.0000 0.43420  0.38351  0.27573  Biso   1.000  O
  O212     1.0000 0.34153  0.31660  0.35843  Biso   1.000  O
  P65      1.0000 0.33903  0.37379  0.05803  Biso   1.000  P
  P66      1.0000 0.34235  0.23791  0.17868  Biso   1.000  P
  P67      1.0000 0.47671  0.41014  0.21526  Biso   1.000  P
  O213     1.0000 0.37971  0.39979  0.99183  Biso   1.000  O
  H65      1.0000 0.30897  0.39153  0.04873  Biso   1.000  H
  O214     1.0000 0.35458  0.21524  0.09933  Biso   1.000  O
  O215     1.0000 0.34892  0.22484  0.27983  Biso   1.000  O
  H66      1.0000 0.29467  0.22363  0.15623  Biso   1.000  H
  O216     1.0000 0.46748  0.40999  0.10643  Biso   1.000  O
  O217     1.0000 0.50770  0.45673  0.25763  Biso   1.000  O
  H67      1.0000 0.49977  0.39463  0.20823  Biso   1.000  H
  Zn50     1.0000 0.44337  0.44028  0.02846  Biso   1.000  Zn
  Zn51     1.0000 0.33321  0.16810  0.00337  Biso   1.000  Zn
  O218     1.0000 0.47053  0.45281  0.89863  Biso   1.000  O
  O219     1.0000 0.44532  0.49236  0.08693  Biso   1.000  O
  O220     1.0000 0.28288  0.14624  0.41973  Biso   1.000  O
  P68      1.0000 0.51759  0.46655  0.86255  Biso   1.000  P
  H68      1.0000 0.53027  0.43503  0.88313  Biso   1.000  H
  O221     1.0000 0.29407  0.22263  0.15383  Biso   1.000  O
  Zn52     1.0000 0.03948  0.67332  0.56897  Biso   1.000  Zn
  O222     1.0000 0.01853  0.70949  0.49837  Biso   1.000  O
  O223     1.0000 0.03607  0.62243  0.49767  Biso   1.000  O
  O224     1.0000 0.10086  0.71685  0.60907  Biso   1.000  O
  O225     1.0000 0.00819  0.64994  0.69177  Biso   1.000  O
  P69      1.0000 0.00569  0.70713  0.39137  Biso   1.000  P
  P70      1.0000 0.00901  0.57125  0.51202  Biso   1.000  P
  P71      1.0000 0.14337  0.74348  0.54860  Biso   1.000  P
  O226     1.0000 0.04637  0.73313  0.32517  Biso   1.000  O
  H69      1.0000 0.97563  0.72487  0.38207  Biso   1.000  H
  O227     1.0000 0.02124  0.54858  0.43267  Biso   1.000  O
  O228     1.0000 0.01558  0.55818  0.61317  Biso   1.000  O
  H70      1.0000 0.96133  0.55697  0.48957  Biso   1.000  H
  O229     1.0000 0.13414  0.74333  0.43977  Biso   1.000  O
  O230     1.0000 0.17436  0.79007  0.59097  Biso   1.000  O
  H71      1.0000 0.16643  0.72797  0.54157  Biso   1.000  H
  Zn53     1.0000 0.11003  0.77362  0.36180  Biso   1.000  Zn
  Zn54     1.0000 0.99987  0.50144  0.33671  Biso   1.000  Zn
  O231     1.0000 0.13719  0.78615  0.23197  Biso   1.000  O
  O232     1.0000 0.11198  0.82570  0.42027  Biso   1.000  O
  O233     1.0000 0.94954  0.47958  0.75307  Biso   1.000  O
  P72      1.0000 0.18425  0.79989  0.19589  Biso   1.000  P
  H72      1.0000 0.19693  0.76837  0.21647  Biso   1.000  H
  O234     1.0000 0.96073  0.55597  0.48717  Biso   1.000  O
