data_image0
_cell_length_a       33.1915
_cell_length_b       33.1915
_cell_length_c       13.3206
_cell_angle_alpha    90
_cell_angle_beta     90
_cell_angle_gamma    120

_symmetry_space_group_name_H-M    "P 1"
_symmetry_int_tables_number       1

loop_
  _symmetry_equiv_pos_as_xyz
  'x, y, z'

loop_
  _atom_site_label
  _atom_site_occupancy
  _atom_site_fract_x
  _atom_site_fract_y
  _atom_site_fract_z
  _atom_site_thermal_displace_type
  _atom_site_B_iso_or_equiv
  _atom_site_type_symbol
  Zn1      1.0000 0.29912  0.00859  0.90947  Biso   1.000  Zn
  Zn2      1.0000 0.44350  0.00477  0.02748  Biso   1.000  Zn
  Zn3      1.0000 0.16482  0.83599  0.66855  Biso   1.000  Zn
  P1       1.0000 0.33840  0.96454  0.06240  Biso   1.000  P
  P2       1.0000 0.22916  0.90707  0.84351  Biso   1.000  P
  P3       1.0000 0.48074  0.06899  0.21944  Biso   1.000  P
  P4       1.0000 0.52155  0.05698  0.86760  Biso   1.000  P
  O1       1.0000 0.30722  0.98357  0.03397  Biso   1.000  O
  O2       1.0000 0.37775  0.97866  0.98953  Biso   1.000  O
  O3       1.0000 0.35537  0.97623  0.17061  Biso   1.000  O
  O4       1.0000 0.25026  0.95923  0.83309  Biso   1.000  O
  O5       1.0000 0.19108  0.88413  0.76747  Biso   1.000  O
  O6       1.0000 0.21334  0.89121  0.95007  Biso   1.000  O
  O7       1.0000 0.46698  0.05930  0.10986  Biso   1.000  O
  O8       1.0000 0.51088  0.04947  0.25457  Biso   1.000  O
  O9       1.0000 0.43943  0.05510  0.28790  Biso   1.000  O
  O10      1.0000 0.47146  0.02592  0.89545  Biso   1.000  O
  O11      1.0000 0.52940  0.05716  0.75663  Biso   1.000  O
  O12      1.0000 0.55447  0.04874  0.92840  Biso   1.000  O
  H1       1.0000 0.30990  0.91070  0.05940  Biso   1.000  H
  H2       1.0000 0.26520  0.89220  0.81990  Biso   1.000  H
  H3       1.0000 0.50430  0.11090  0.22740  Biso   1.000  H
  H4       1.0000 0.53130  0.09930  0.88120  Biso   1.000  H
  O13      1.0000 0.30950  0.91270  0.06010  Biso   1.000  O
  O14      1.0000 0.26630  0.89320  0.81970  Biso   1.000  O
  Zn4      1.0000 0.96578  0.34192  0.24280  Biso   1.000  Zn
  Zn5      1.0000 0.11017  0.33810  0.36081  Biso   1.000  Zn
  Zn6      1.0000 0.83149  0.16932  0.00188  Biso   1.000  Zn
  P5       1.0000 0.00507  0.29787  0.39573  Biso   1.000  P
  P6       1.0000 0.89583  0.24040  0.17684  Biso   1.000  P
  P7       1.0000 0.14741  0.40232  0.55277  Biso   1.000  P
  P8       1.0000 0.18822  0.39031  0.20093  Biso   1.000  P
  O15      1.0000 0.97389  0.31690  0.36730  Biso   1.000  O
  O16      1.0000 0.04442  0.31199  0.32286  Biso   1.000  O
  O17      1.0000 0.02204  0.30956  0.50394  Biso   1.000  O
  O18      1.0000 0.91693  0.29256  0.16642  Biso   1.000  O
  O19      1.0000 0.85775  0.21746  0.10080  Biso   1.000  O
  O20      1.0000 0.88001  0.22454  0.28340  Biso   1.000  O
  O21      1.0000 0.13365  0.39263  0.44319  Biso   1.000  O
  O22      1.0000 0.17755  0.38280  0.58790  Biso   1.000  O
  O23      1.0000 0.10610  0.38843  0.62123  Biso   1.000  O
  O24      1.0000 0.13813  0.35925  0.22878  Biso   1.000  O
  O25      1.0000 0.19607  0.39049  0.08996  Biso   1.000  O
  O26      1.0000 0.22114  0.38207  0.26173  Biso   1.000  O
  H5       1.0000 0.97657  0.24403  0.39273  Biso   1.000  H
  H6       1.0000 0.93187  0.22553  0.15323  Biso   1.000  H
  H7       1.0000 0.17097  0.44423  0.56073  Biso   1.000  H
  H8       1.0000 0.19797  0.43263  0.21453  Biso   1.000  H
  O27      1.0000 0.97617  0.24603  0.39343  Biso   1.000  O
  O28      1.0000 0.93297  0.22653  0.15303  Biso   1.000  O
  Zn7      1.0000 0.63245  0.67525  0.57614  Biso   1.000  Zn
  Zn8      1.0000 0.77684  0.67143  0.69415  Biso   1.000  Zn
  Zn9      1.0000 0.49816  0.50265  0.33522  Biso   1.000  Zn
  P9       1.0000 0.67173  0.63121  0.72907  Biso   1.000  P
  P10      1.0000 0.56249  0.57374  0.51018  Biso   1.000  P
  P11      1.0000 0.81407  0.73566  0.88611  Biso   1.000  P
  P12      1.0000 0.85488  0.72365  0.53427  Biso   1.000  P
  O29      1.0000 0.64055  0.65024  0.70064  Biso   1.000  O
  O30      1.0000 0.71108  0.64533  0.65620  Biso   1.000  O
  O31      1.0000 0.68870  0.64290  0.83728  Biso   1.000  O
  O32      1.0000 0.58359  0.62590  0.49976  Biso   1.000  O
  O33      1.0000 0.52441  0.55080  0.43414  Biso   1.000  O
  O34      1.0000 0.54667  0.55788  0.61674  Biso   1.000  O
  O35      1.0000 0.80031  0.72597  0.77653  Biso   1.000  O
  O36      1.0000 0.84421  0.71614  0.92124  Biso   1.000  O
  O37      1.0000 0.77276  0.72177  0.95457  Biso   1.000  O
  O38      1.0000 0.80479  0.69259  0.56212  Biso   1.000  O
  O39      1.0000 0.86273  0.72383  0.42330  Biso   1.000  O
  O40      1.0000 0.88780  0.71541  0.59507  Biso   1.000  O
  H9       1.0000 0.64323  0.57737  0.72607  Biso   1.000  H
  H10      1.0000 0.59853  0.55887  0.48657  Biso   1.000  H
  H11      1.0000 0.83763  0.77757  0.89407  Biso   1.000  H
  H12      1.0000 0.86463  0.76597  0.54787  Biso   1.000  H
  O41      1.0000 0.64283  0.57937  0.72677  Biso   1.000  O
  O42      1.0000 0.59963  0.55987  0.48637  Biso   1.000  O
  Zn10     1.0000 0.99141  0.29053  0.90947  Biso   1.000  Zn
  Zn11     1.0000 0.99523  0.43874  0.02748  Biso   1.000  Zn
  Zn12     1.0000 0.16401  0.32884  0.66855  Biso   1.000  Zn
  P13      1.0000 0.03546  0.37386  0.06240  Biso   1.000  P
  P14      1.0000 0.09293  0.32209  0.84351  Biso   1.000  P
  P15      1.0000 0.93101  0.41175  0.21944  Biso   1.000  P
  P16      1.0000 0.94302  0.46457  0.86760  Biso   1.000  P
  O43      1.0000 0.01643  0.32365  0.03397  Biso   1.000  O
  O44      1.0000 0.02134  0.39909  0.98953  Biso   1.000  O
  O45      1.0000 0.02377  0.37914  0.17061  Biso   1.000  O
  O46      1.0000 0.04077  0.29103  0.83309  Biso   1.000  O
  O47      1.0000 0.11587  0.30695  0.76747  Biso   1.000  O
  O48      1.0000 0.10879  0.32213  0.95007  Biso   1.000  O
  O49      1.0000 0.94070  0.40768  0.10986  Biso   1.000  O
  O50      1.0000 0.95053  0.46141  0.25457  Biso   1.000  O
  O51      1.0000 0.94490  0.38433  0.28790  Biso   1.000  O
  O52      1.0000 0.97408  0.44554  0.89545  Biso   1.000  O
  O53      1.0000 0.94284  0.47224  0.75663  Biso   1.000  O
  O54      1.0000 0.95126  0.50573  0.92840  Biso   1.000  O
  H13      1.0000 0.08930  0.39920  0.05940  Biso   1.000  H
  H14      1.0000 0.10780  0.37300  0.81990  Biso   1.000  H
  H15      1.0000 0.88910  0.39340  0.22740  Biso   1.000  H
  H16      1.0000 0.90070  0.43200  0.88120  Biso   1.000  H
  O55      1.0000 0.08730  0.39680  0.06010  Biso   1.000  O
  O56      1.0000 0.10680  0.37310  0.81970  Biso   1.000  O
  Zn13     1.0000 0.65808  0.62386  0.24280  Biso   1.000  Zn
  Zn14     1.0000 0.66190  0.77207  0.36081  Biso   1.000  Zn
  Zn15     1.0000 0.83068  0.66217  0.00188  Biso   1.000  Zn
  P17      1.0000 0.70213  0.70719  0.39573  Biso   1.000  P
  P18      1.0000 0.75960  0.65542  0.17684  Biso   1.000  P
  P19      1.0000 0.59768  0.74508  0.55277  Biso   1.000  P
  P20      1.0000 0.60969  0.79790  0.20093  Biso   1.000  P
  O57      1.0000 0.68310  0.65698  0.36730  Biso   1.000  O
  O58      1.0000 0.68801  0.73242  0.32286  Biso   1.000  O
  O59      1.0000 0.69044  0.71247  0.50394  Biso   1.000  O
  O60      1.0000 0.70744  0.62436  0.16642  Biso   1.000  O
  O61      1.0000 0.78254  0.64028  0.10080  Biso   1.000  O
  O62      1.0000 0.77546  0.65546  0.28340  Biso   1.000  O
  O63      1.0000 0.60737  0.74101  0.44319  Biso   1.000  O
  O64      1.0000 0.61720  0.79474  0.58790  Biso   1.000  O
  O65      1.0000 0.61157  0.71766  0.62123  Biso   1.000  O
  O66      1.0000 0.64075  0.77887  0.22878  Biso   1.000  O
  O67      1.0000 0.60951  0.80557  0.08996  Biso   1.000  O
  O68      1.0000 0.61793  0.83906  0.26173  Biso   1.000  O
  H17      1.0000 0.75597  0.73253  0.39273  Biso   1.000  H
  H18      1.0000 0.77447  0.70633  0.15323  Biso   1.000  H
  H19      1.0000 0.55577  0.72673  0.56073  Biso   1.000  H
  H20      1.0000 0.56737  0.76533  0.21453  Biso   1.000  H
  O69      1.0000 0.75397  0.73013  0.39343  Biso   1.000  O
  O70      1.0000 0.77347  0.70643  0.15303  Biso   1.000  O
  Zn16     1.0000 0.32475  0.95720  0.57614  Biso   1.000  Zn
  Zn17     1.0000 0.32857  0.10540  0.69415  Biso   1.000  Zn
  Zn18     1.0000 0.49735  0.99551  0.33522  Biso   1.000  Zn
  P21      1.0000 0.36879  0.04053  0.72907  Biso   1.000  P
  P22      1.0000 0.42626  0.98876  0.51018  Biso   1.000  P
  P23      1.0000 0.26434  0.07842  0.88611  Biso   1.000  P
  P24      1.0000 0.27635  0.13124  0.53427  Biso   1.000  P
  O71      1.0000 0.34976  0.99032  0.70064  Biso   1.000  O
  O72      1.0000 0.35467  0.06576  0.65620  Biso   1.000  O
  O73      1.0000 0.35710  0.04581  0.83728  Biso   1.000  O
  O74      1.0000 0.37410  0.95770  0.49976  Biso   1.000  O
  O75      1.0000 0.44920  0.97362  0.43414  Biso   1.000  O
  O76      1.0000 0.44212  0.98880  0.61674  Biso   1.000  O
  O77      1.0000 0.27403  0.07435  0.77653  Biso   1.000  O
  O78      1.0000 0.28386  0.12808  0.92124  Biso   1.000  O
  O79      1.0000 0.27823  0.05100  0.95457  Biso   1.000  O
  O80      1.0000 0.30741  0.11221  0.56212  Biso   1.000  O
  O81      1.0000 0.27617  0.13891  0.42330  Biso   1.000  O
  O82      1.0000 0.28459  0.17240  0.59507  Biso   1.000  O
  H21      1.0000 0.42263  0.06587  0.72607  Biso   1.000  H
  H22      1.0000 0.44113  0.03967  0.48657  Biso   1.000  H
  H23      1.0000 0.22243  0.06007  0.89407  Biso   1.000  H
  H24      1.0000 0.23403  0.09867  0.54787  Biso   1.000  H
  O83      1.0000 0.42063  0.06347  0.72677  Biso   1.000  O
  O84      1.0000 0.44013  0.03977  0.48637  Biso   1.000  O
  Zn19     1.0000 0.70947  0.70088  0.90947  Biso   1.000  Zn
  Zn20     1.0000 0.56126  0.55650  0.02748  Biso   1.000  Zn
  Zn21     1.0000 0.67116  0.83518  0.66855  Biso   1.000  Zn
  P25      1.0000 0.62614  0.66160  0.06240  Biso   1.000  P
  P26      1.0000 0.67791  0.77084  0.84351  Biso   1.000  P
  P27      1.0000 0.58825  0.51926  0.21944  Biso   1.000  P
  P28      1.0000 0.53543  0.47845  0.86760  Biso   1.000  P
  O85      1.0000 0.67635  0.69278  0.03397  Biso   1.000  O
  O86      1.0000 0.60091  0.62225  0.98953  Biso   1.000  O
  O87      1.0000 0.62086  0.64463  0.17061  Biso   1.000  O
  O88      1.0000 0.70897  0.74974  0.83309  Biso   1.000  O
  O89      1.0000 0.69305  0.80892  0.76747  Biso   1.000  O
  O90      1.0000 0.67787  0.78666  0.95007  Biso   1.000  O
  O91      1.0000 0.59232  0.53302  0.10986  Biso   1.000  O
  O92      1.0000 0.53859  0.48912  0.25457  Biso   1.000  O
  O93      1.0000 0.61567  0.56057  0.28790  Biso   1.000  O
  O94      1.0000 0.55446  0.52854  0.89545  Biso   1.000  O
  O95      1.0000 0.52776  0.47060  0.75663  Biso   1.000  O
  O96      1.0000 0.49427  0.44553  0.92840  Biso   1.000  O
  H25      1.0000 0.60080  0.69010  0.05940  Biso   1.000  H
  H26      1.0000 0.62700  0.73480  0.81990  Biso   1.000  H
  H27      1.0000 0.60660  0.49570  0.22740  Biso   1.000  H
  H28      1.0000 0.56800  0.46870  0.88120  Biso   1.000  H
  O97      1.0000 0.60320  0.69050  0.06010  Biso   1.000  O
  O98      1.0000 0.62690  0.73370  0.81970  Biso   1.000  O
  Zn22     1.0000 0.37614  0.03422  0.24280  Biso   1.000  Zn
  Zn23     1.0000 0.22793  0.88983  0.36081  Biso   1.000  Zn
  Zn24     1.0000 0.33783  0.16851  0.00188  Biso   1.000  Zn
  P29      1.0000 0.29281  0.99493  0.39573  Biso   1.000  P
  P30      1.0000 0.34458  0.10417  0.17684  Biso   1.000  P
  P31      1.0000 0.25492  0.85259  0.55277  Biso   1.000  P
  P32      1.0000 0.20210  0.81178  0.20093  Biso   1.000  P
  O99      1.0000 0.34302  0.02611  0.36730  Biso   1.000  O
  O100     1.0000 0.26758  0.95558  0.32286  Biso   1.000  O
  O101     1.0000 0.28753  0.97796  0.50394  Biso   1.000  O
  O102     1.0000 0.37564  0.08307  0.16642  Biso   1.000  O
  O103     1.0000 0.35972  0.14225  0.10080  Biso   1.000  O
  O104     1.0000 0.34454  0.11999  0.28340  Biso   1.000  O
  O105     1.0000 0.25899  0.86635  0.44319  Biso   1.000  O
  O106     1.0000 0.20526  0.82245  0.58790  Biso   1.000  O
  O107     1.0000 0.28234  0.89390  0.62123  Biso   1.000  O
  O108     1.0000 0.22113  0.86187  0.22878  Biso   1.000  O
  O109     1.0000 0.19443  0.80393  0.08996  Biso   1.000  O
  O110     1.0000 0.16094  0.77886  0.26173  Biso   1.000  O
  H29      1.0000 0.26747  0.02343  0.39273  Biso   1.000  H
  H30      1.0000 0.29367  0.06813  0.15323  Biso   1.000  H
  H31      1.0000 0.27327  0.82903  0.56073  Biso   1.000  H
  H32      1.0000 0.23467  0.80203  0.21453  Biso   1.000  H
  O111     1.0000 0.26987  0.02383  0.39343  Biso   1.000  O
  O112     1.0000 0.29357  0.06703  0.15303  Biso   1.000  O
  Zn25     1.0000 0.04280  0.36755  0.57614  Biso   1.000  Zn
  Zn26     1.0000 0.89460  0.22316  0.69415  Biso   1.000  Zn
  Zn27     1.0000 0.00449  0.50184  0.33522  Biso   1.000  Zn
  P33      1.0000 0.95947  0.32827  0.72907  Biso   1.000  P
  P34      1.0000 0.01124  0.43751  0.51018  Biso   1.000  P
  P35      1.0000 0.92158  0.18593  0.88611  Biso   1.000  P
  P36      1.0000 0.86876  0.14512  0.53427  Biso   1.000  P
  O113     1.0000 0.00968  0.35945  0.70064  Biso   1.000  O
  O114     1.0000 0.93424  0.28892  0.65620  Biso   1.000  O
  O115     1.0000 0.95419  0.31130  0.83728  Biso   1.000  O
  O116     1.0000 0.04230  0.41641  0.49976  Biso   1.000  O
  O117     1.0000 0.02638  0.47559  0.43414  Biso   1.000  O
  O118     1.0000 0.01120  0.45333  0.61674  Biso   1.000  O
  O119     1.0000 0.92565  0.19969  0.77653  Biso   1.000  O
  O120     1.0000 0.87192  0.15579  0.92124  Biso   1.000  O
  O121     1.0000 0.94900  0.22724  0.95457  Biso   1.000  O
  O122     1.0000 0.88779  0.19521  0.56212  Biso   1.000  O
  O123     1.0000 0.86109  0.13727  0.42330  Biso   1.000  O
  O124     1.0000 0.82760  0.11220  0.59507  Biso   1.000  O
  H33      1.0000 0.93413  0.35677  0.72607  Biso   1.000  H
  H34      1.0000 0.96033  0.40147  0.48657  Biso   1.000  H
  H35      1.0000 0.93993  0.16237  0.89407  Biso   1.000  H
  H36      1.0000 0.90133  0.13537  0.54787  Biso   1.000  H
  O125     1.0000 0.93653  0.35717  0.72677  Biso   1.000  O
  O126     1.0000 0.96023  0.40037  0.48637  Biso   1.000  O
  Zn28     1.0000 0.70088  0.99141  0.09053  Biso   1.000  Zn
  Zn29     1.0000 0.55650  0.99523  0.97252  Biso   1.000  Zn
  Zn30     1.0000 0.83518  0.16401  0.33145  Biso   1.000  Zn
  P37      1.0000 0.66160  0.03546  0.93760  Biso   1.000  P
  P38      1.0000 0.77084  0.09293  0.15649  Biso   1.000  P
  P39      1.0000 0.51926  0.93101  0.78056  Biso   1.000  P
  P40      1.0000 0.47845  0.94302  0.13240  Biso   1.000  P
  O127     1.0000 0.69278  0.01643  0.96603  Biso   1.000  O
  O128     1.0000 0.62225  0.02134  0.01047  Biso   1.000  O
  O129     1.0000 0.64463  0.02377  0.82939  Biso   1.000  O
  O130     1.0000 0.74974  0.04077  0.16691  Biso   1.000  O
  O131     1.0000 0.80892  0.11587  0.23253  Biso   1.000  O
  O132     1.0000 0.78666  0.10879  0.04993  Biso   1.000  O
  O133     1.0000 0.53302  0.94070  0.89014  Biso   1.000  O
  O134     1.0000 0.48912  0.95053  0.74543  Biso   1.000  O
  O135     1.0000 0.56057  0.94490  0.71210  Biso   1.000  O
  O136     1.0000 0.52854  0.97408  0.10455  Biso   1.000  O
  O137     1.0000 0.47060  0.94284  0.24337  Biso   1.000  O
  O138     1.0000 0.44553  0.95126  0.07160  Biso   1.000  O
  H37      1.0000 0.69010  0.08930  0.94060  Biso   1.000  H
  H38      1.0000 0.73480  0.10780  0.18010  Biso   1.000  H
  H39      1.0000 0.49570  0.88910  0.77260  Biso   1.000  H
  H40      1.0000 0.46870  0.90070  0.11880  Biso   1.000  H
  O139     1.0000 0.69050  0.08730  0.93990  Biso   1.000  O
  O140     1.0000 0.73370  0.10680  0.18030  Biso   1.000  O
  Zn31     1.0000 0.36755  0.32475  0.42386  Biso   1.000  Zn
  Zn32     1.0000 0.22316  0.32857  0.30585  Biso   1.000  Zn
  Zn33     1.0000 0.50184  0.49735  0.66478  Biso   1.000  Zn
  P41      1.0000 0.32827  0.36879  0.27093  Biso   1.000  P
  P42      1.0000 0.43751  0.42626  0.48982  Biso   1.000  P
  P43      1.0000 0.18593  0.26434  0.11389  Biso   1.000  P
  P44      1.0000 0.14512  0.27635  0.46573  Biso   1.000  P
  O141     1.0000 0.35945  0.34976  0.29936  Biso   1.000  O
  O142     1.0000 0.28892  0.35467  0.34380  Biso   1.000  O
  O143     1.0000 0.31130  0.35710  0.16272  Biso   1.000  O
  O144     1.0000 0.41641  0.37410  0.50024  Biso   1.000  O
  O145     1.0000 0.47559  0.44920  0.56586  Biso   1.000  O
  O146     1.0000 0.45333  0.44212  0.38326  Biso   1.000  O
  O147     1.0000 0.19969  0.27403  0.22347  Biso   1.000  O
  O148     1.0000 0.15579  0.28386  0.07876  Biso   1.000  O
  O149     1.0000 0.22724  0.27823  0.04543  Biso   1.000  O
  O150     1.0000 0.19521  0.30741  0.43788  Biso   1.000  O
  O151     1.0000 0.13727  0.27617  0.57670  Biso   1.000  O
  O152     1.0000 0.11220  0.28459  0.40493  Biso   1.000  O
  H41      1.0000 0.35677  0.42263  0.27393  Biso   1.000  H
  H42      1.0000 0.40147  0.44113  0.51343  Biso   1.000  H
  H43      1.0000 0.16237  0.22243  0.10593  Biso   1.000  H
  H44      1.0000 0.13537  0.23403  0.45213  Biso   1.000  H
  O153     1.0000 0.35717  0.42063  0.27323  Biso   1.000  O
  O154     1.0000 0.40037  0.44013  0.51363  Biso   1.000  O
  Zn34     1.0000 0.03422  0.65808  0.75720  Biso   1.000  Zn
  Zn35     1.0000 0.88983  0.66190  0.63919  Biso   1.000  Zn
  Zn36     1.0000 0.16851  0.83068  0.99812  Biso   1.000  Zn
  P45      1.0000 0.99493  0.70213  0.60427  Biso   1.000  P
  P46      1.0000 0.10417  0.75960  0.82316  Biso   1.000  P
  P47      1.0000 0.85259  0.59768  0.44723  Biso   1.000  P
  P48      1.0000 0.81178  0.60969  0.79907  Biso   1.000  P
  O155     1.0000 0.02611  0.68310  0.63270  Biso   1.000  O
  O156     1.0000 0.95558  0.68801  0.67714  Biso   1.000  O
  O157     1.0000 0.97796  0.69044  0.49606  Biso   1.000  O
  O158     1.0000 0.08307  0.70744  0.83358  Biso   1.000  O
  O159     1.0000 0.14225  0.78254  0.89920  Biso   1.000  O
  O160     1.0000 0.11999  0.77546  0.71660  Biso   1.000  O
  O161     1.0000 0.86635  0.60737  0.55681  Biso   1.000  O
  O162     1.0000 0.82245  0.61720  0.41210  Biso   1.000  O
  O163     1.0000 0.89390  0.61157  0.37877  Biso   1.000  O
  O164     1.0000 0.86187  0.64075  0.77122  Biso   1.000  O
  O165     1.0000 0.80393  0.60951  0.91004  Biso   1.000  O
  O166     1.0000 0.77886  0.61793  0.73827  Biso   1.000  O
  H45      1.0000 0.02343  0.75597  0.60727  Biso   1.000  H
  H46      1.0000 0.06813  0.77447  0.84677  Biso   1.000  H
  H47      1.0000 0.82903  0.55577  0.43927  Biso   1.000  H
  H48      1.0000 0.80203  0.56737  0.78547  Biso   1.000  H
  O167     1.0000 0.02383  0.75397  0.60657  Biso   1.000  O
  O168     1.0000 0.06703  0.77347  0.84697  Biso   1.000  O
  Zn37     1.0000 0.00859  0.70947  0.09053  Biso   1.000  Zn
  Zn38     1.0000 0.00477  0.56126  0.97252  Biso   1.000  Zn
  Zn39     1.0000 0.83599  0.67116  0.33145  Biso   1.000  Zn
  P49      1.0000 0.96454  0.62614  0.93760  Biso   1.000  P
  P50      1.0000 0.90707  0.67791  0.15649  Biso   1.000  P
  P51      1.0000 0.06899  0.58825  0.78056  Biso   1.000  P
  P52      1.0000 0.05698  0.53543  0.13240  Biso   1.000  P
  O169     1.0000 0.98357  0.67635  0.96603  Biso   1.000  O
  O170     1.0000 0.97866  0.60091  0.01047  Biso   1.000  O
  O171     1.0000 0.97623  0.62086  0.82939  Biso   1.000  O
  O172     1.0000 0.95923  0.70897  0.16691  Biso   1.000  O
  O173     1.0000 0.88413  0.69305  0.23253  Biso   1.000  O
  O174     1.0000 0.89121  0.67787  0.04993  Biso   1.000  O
  O175     1.0000 0.05930  0.59232  0.89014  Biso   1.000  O
  O176     1.0000 0.04947  0.53859  0.74543  Biso   1.000  O
  O177     1.0000 0.05510  0.61567  0.71210  Biso   1.000  O
  O178     1.0000 0.02592  0.55446  0.10455  Biso   1.000  O
  O179     1.0000 0.05716  0.52776  0.24337  Biso   1.000  O
  O180     1.0000 0.04874  0.49427  0.07160  Biso   1.000  O
  H49      1.0000 0.91070  0.60080  0.94060  Biso   1.000  H
  H50      1.0000 0.89220  0.62700  0.18010  Biso   1.000  H
  H51      1.0000 0.11090  0.60660  0.77260  Biso   1.000  H
  H52      1.0000 0.09930  0.56800  0.11880  Biso   1.000  H
  O181     1.0000 0.91270  0.60320  0.93990  Biso   1.000  O
  O182     1.0000 0.89320  0.62690  0.18030  Biso   1.000  O
  Zn40     1.0000 0.67525  0.04280  0.42386  Biso   1.000  Zn
  Zn41     1.0000 0.67143  0.89460  0.30585  Biso   1.000  Zn
  Zn42     1.0000 0.50265  0.00449  0.66478  Biso   1.000  Zn
  P53      1.0000 0.63121  0.95947  0.27093  Biso   1.000  P
  P54      1.0000 0.57374  0.01124  0.48982  Biso   1.000  P
  P55      1.0000 0.73566  0.92158  0.11389  Biso   1.000  P
  P56      1.0000 0.72365  0.86876  0.46573  Biso   1.000  P
  O183     1.0000 0.65024  0.00968  0.29936  Biso   1.000  O
  O184     1.0000 0.64533  0.93424  0.34380  Biso   1.000  O
  O185     1.0000 0.64290  0.95419  0.16272  Biso   1.000  O
  O186     1.0000 0.62590  0.04230  0.50024  Biso   1.000  O
  O187     1.0000 0.55080  0.02638  0.56586  Biso   1.000  O
  O188     1.0000 0.55788  0.01120  0.38326  Biso   1.000  O
  O189     1.0000 0.72597  0.92565  0.22347  Biso   1.000  O
  O190     1.0000 0.71614  0.87192  0.07876  Biso   1.000  O
  O191     1.0000 0.72177  0.94900  0.04543  Biso   1.000  O
  O192     1.0000 0.69259  0.88779  0.43788  Biso   1.000  O
  O193     1.0000 0.72383  0.86109  0.57670  Biso   1.000  O
  O194     1.0000 0.71541  0.82760  0.40493  Biso   1.000  O
  H53      1.0000 0.57737  0.93413  0.27393  Biso   1.000  H
  H54      1.0000 0.55887  0.96033  0.51343  Biso   1.000  H
  H55      1.0000 0.77757  0.93993  0.10593  Biso   1.000  H
  H56      1.0000 0.76597  0.90133  0.45213  Biso   1.000  H
  O195     1.0000 0.57937  0.93653  0.27323  Biso   1.000  O
  O196     1.0000 0.55987  0.96023  0.51363  Biso   1.000  O
  Zn43     1.0000 0.34192  0.37614  0.75720  Biso   1.000  Zn
  Zn44     1.0000 0.33810  0.22793  0.63919  Biso   1.000  Zn
  Zn45     1.0000 0.16932  0.33783  0.99812  Biso   1.000  Zn
  P57      1.0000 0.29787  0.29281  0.60427  Biso   1.000  P
  P58      1.0000 0.24040  0.34458  0.82316  Biso   1.000  P
  P59      1.0000 0.40232  0.25492  0.44723  Biso   1.000  P
  P60      1.0000 0.39031  0.20210  0.79907  Biso   1.000  P
  O197     1.0000 0.31690  0.34302  0.63270  Biso   1.000  O
  O198     1.0000 0.31199  0.26758  0.67714  Biso   1.000  O
  O199     1.0000 0.30956  0.28753  0.49606  Biso   1.000  O
  O200     1.0000 0.29256  0.37564  0.83358  Biso   1.000  O
  O201     1.0000 0.21746  0.35972  0.89920  Biso   1.000  O
  O202     1.0000 0.22454  0.34454  0.71660  Biso   1.000  O
  O203     1.0000 0.39263  0.25899  0.55681  Biso   1.000  O
  O204     1.0000 0.38280  0.20526  0.41210  Biso   1.000  O
  O205     1.0000 0.38843  0.28234  0.37877  Biso   1.000  O
  O206     1.0000 0.35925  0.22113  0.77122  Biso   1.000  O
  O207     1.0000 0.39049  0.19443  0.91004  Biso   1.000  O
  O208     1.0000 0.38207  0.16094  0.73827  Biso   1.000  O
  H57      1.0000 0.24403  0.26747  0.60727  Biso   1.000  H
  H58      1.0000 0.22553  0.29367  0.84677  Biso   1.000  H
  H59      1.0000 0.44423  0.27327  0.43927  Biso   1.000  H
  H60      1.0000 0.43263  0.23467  0.78547  Biso   1.000  H
  O209     1.0000 0.24603  0.26987  0.60657  Biso   1.000  O
  O210     1.0000 0.22653  0.29357  0.84697  Biso   1.000  O
  Zn46     1.0000 0.29053  0.29912  0.09053  Biso   1.000  Zn
  Zn47     1.0000 0.43874  0.44350  0.97252  Biso   1.000  Zn
  Zn48     1.0000 0.32884  0.16482  0.33145  Biso   1.000  Zn
  P61      1.0000 0.37386  0.33840  0.93760  Biso   1.000  P
  P62      1.0000 0.32209  0.22916  0.15649  Biso   1.000  P
  P63      1.0000 0.41175  0.48074  0.78056  Biso   1.000  P
  P64      1.0000 0.46457  0.52155  0.13240  Biso   1.000  P
  O211     1.0000 0.32365  0.30722  0.96603  Biso   1.000  O
  O212     1.0000 0.39909  0.37775  0.01047  Biso   1.000  O
  O213     1.0000 0.37914  0.35537  0.82939  Biso   1.000  O
  O214     1.0000 0.29103  0.25026  0.16691  Biso   1.000  O
  O215     1.0000 0.30695  0.19108  0.23253  Biso   1.000  O
  O216     1.0000 0.32213  0.21334  0.04993  Biso   1.000  O
  O217     1.0000 0.40768  0.46698  0.89014  Biso   1.000  O
  O218     1.0000 0.46141  0.51088  0.74543  Biso   1.000  O
  O219     1.0000 0.38433  0.43943  0.71210  Biso   1.000  O
  O220     1.0000 0.44554  0.47146  0.10455  Biso   1.000  O
  O221     1.0000 0.47224  0.52940  0.24337  Biso   1.000  O
  O222     1.0000 0.50573  0.55447  0.07160  Biso   1.000  O
  H61      1.0000 0.39920  0.30990  0.94060  Biso   1.000  H
  H62      1.0000 0.37300  0.26520  0.18010  Biso   1.000  H
  H63      1.0000 0.39340  0.50430  0.77260  Biso   1.000  H
  H64      1.0000 0.43200  0.53130  0.11880  Biso   1.000  H
  O223     1.0000 0.39680  0.30950  0.93990  Biso   1.000  O
  O224     1.0000 0.37310  0.26630  0.18030  Biso   1.000  O
  Zn49     1.0000 0.95720  0.63245  0.42386  Biso   1.000  Zn
  Zn50     1.0000 0.10540  0.77684  0.30585  Biso   1.000  Zn
  Zn51     1.0000 0.99551  0.49816  0.66478  Biso   1.000  Zn
  P65      1.0000 0.04053  0.67173  0.27093  Biso   1.000  P
  P66      1.0000 0.98876  0.56249  0.48982  Biso   1.000  P
  P67      1.0000 0.07842  0.81407  0.11389  Biso   1.000  P
  P68      1.0000 0.13124  0.85488  0.46573  Biso   1.000  P
  O225     1.0000 0.99032  0.64055  0.29936  Biso   1.000  O
  O226     1.0000 0.06576  0.71108  0.34380  Biso   1.000  O
  O227     1.0000 0.04581  0.68870  0.16272  Biso   1.000  O
  O228     1.0000 0.95770  0.58359  0.50024  Biso   1.000  O
  O229     1.0000 0.97362  0.52441  0.56586  Biso   1.000  O
  O230     1.0000 0.98880  0.54667  0.38326  Biso   1.000  O
  O231     1.0000 0.07435  0.80031  0.22347  Biso   1.000  O
  O232     1.0000 0.12808  0.84421  0.07876  Biso   1.000  O
  O233     1.0000 0.05100  0.77276  0.04543  Biso   1.000  O
  O234     1.0000 0.11221  0.80479  0.43788  Biso   1.000  O
  O235     1.0000 0.13891  0.86273  0.57670  Biso   1.000  O
  O236     1.0000 0.17240  0.88780  0.40493  Biso   1.000  O
  H65      1.0000 0.06587  0.64323  0.27393  Biso   1.000  H
  H66      1.0000 0.03967  0.59853  0.51343  Biso   1.000  H
  H67      1.0000 0.06007  0.83763  0.10593  Biso   1.000  H
  H68      1.0000 0.09867  0.86463  0.45213  Biso   1.000  H
  O237     1.0000 0.06347  0.64283  0.27323  Biso   1.000  O
  O238     1.0000 0.03977  0.59963  0.51363  Biso   1.000  O
  Zn52     1.0000 0.62386  0.96578  0.75720  Biso   1.000  Zn
  Zn53     1.0000 0.77207  0.11017  0.63919  Biso   1.000  Zn
  Zn54     1.0000 0.66217  0.83149  0.99812  Biso   1.000  Zn
  P69      1.0000 0.70719  0.00507  0.60427  Biso   1.000  P
  P70      1.0000 0.65542  0.89583  0.82316  Biso   1.000  P
  P71      1.0000 0.74508  0.14741  0.44723  Biso   1.000  P
  P72      1.0000 0.79790  0.18822  0.79907  Biso   1.000  P
  O239     1.0000 0.65698  0.97389  0.63270  Biso   1.000  O
  O240     1.0000 0.73242  0.04442  0.67714  Biso   1.000  O
  O241     1.0000 0.71247  0.02204  0.49606  Biso   1.000  O
  O242     1.0000 0.62436  0.91693  0.83358  Biso   1.000  O
  O243     1.0000 0.64028  0.85775  0.89920  Biso   1.000  O
  O244     1.0000 0.65546  0.88001  0.71660  Biso   1.000  O
  O245     1.0000 0.74101  0.13365  0.55681  Biso   1.000  O
  O246     1.0000 0.79474  0.17755  0.41210  Biso   1.000  O
  O247     1.0000 0.71766  0.10610  0.37877  Biso   1.000  O
  O248     1.0000 0.77887  0.13813  0.77122  Biso   1.000  O
  O249     1.0000 0.80557  0.19607  0.91004  Biso   1.000  O
  O250     1.0000 0.83906  0.22114  0.73827  Biso   1.000  O
  H69      1.0000 0.73253  0.97657  0.60727  Biso   1.000  H
  H70      1.0000 0.70633  0.93187  0.84677  Biso   1.000  H
  H71      1.0000 0.72673  0.17097  0.43927  Biso   1.000  H
  H72      1.0000 0.76533  0.19797  0.78547  Biso   1.000  H
  O251     1.0000 0.73013  0.97617  0.60657  Biso   1.000  O
  O252     1.0000 0.70643  0.93297  0.84697  Biso   1.000  O
