data_image0
_cell_length_a       10.3149
_cell_length_b       10.3149
_cell_length_c       14.339
_cell_angle_alpha    90
_cell_angle_beta     90
_cell_angle_gamma    90

_symmetry_space_group_name_H-M    "P 1"
_symmetry_int_tables_number       1

loop_
  _symmetry_equiv_pos_as_xyz
  'x, y, z'

loop_
  _atom_site_label
  _atom_site_occupancy
  _atom_site_fract_x
  _atom_site_fract_y
  _atom_site_fract_z
  _atom_site_thermal_displace_type
  _atom_site_B_iso_or_equiv
  _atom_site_type_symbol
  O1       1.0000 0.93020  0.32970  0.05950  Biso   1.000  O
  O2       1.0000 0.92460  0.75030  0.24170  Biso   1.000  O
  O3       1.0000 0.90010  0.92280  0.16100  Biso   1.000  O
  O4       1.0000 0.69300  0.30400  0.08990  Biso   1.000  O
  H1       1.0000 0.74250  0.37660  0.06150  Biso   1.000  H
  C1       1.0000 0.92710  0.80670  0.16510  Biso   1.000  C
  C2       1.0000 0.96450  0.59930  0.07990  Biso   1.000  C
  H2       1.0000 0.93950  0.55360  0.13460  Biso   1.000  H
  C3       1.0000 0.96540  0.73310  0.08020  Biso   1.000  C
  C4       1.0000 0.57500  0.29700  0.03400  Biso   1.000  C
  H3       1.0000 0.55620  0.20630  0.01760  Biso   1.000  H
  H4       1.0000 0.58590  0.34780  0.97600  Biso   1.000  H
  C5       1.0000 0.45800  0.35700  0.09600  Biso   1.000  C
  H5       1.0000 0.37740  0.35370  0.06080  Biso   1.000  H
  H6       1.0000 0.47830  0.44750  0.11220  Biso   1.000  H
  H7       1.0000 0.44900  0.30660  0.15390  Biso   1.000  H
  O5       1.0000 0.06980  0.67030  0.55950  Biso   1.000  O
  O6       1.0000 0.07540  0.24970  0.74170  Biso   1.000  O
  O7       1.0000 0.09990  0.07720  0.66100  Biso   1.000  O
  O8       1.0000 0.30700  0.69600  0.58990  Biso   1.000  O
  H8       1.0000 0.25750  0.62340  0.56150  Biso   1.000  H
  C6       1.0000 0.07290  0.19330  0.66510  Biso   1.000  C
  C7       1.0000 0.03550  0.40070  0.57990  Biso   1.000  C
  H9       1.0000 0.06050  0.44640  0.63460  Biso   1.000  H
  C8       1.0000 0.03460  0.26690  0.58020  Biso   1.000  C
  C9       1.0000 0.42500  0.70300  0.53400  Biso   1.000  C
  H10      1.0000 0.44380  0.79370  0.51760  Biso   1.000  H
  H11      1.0000 0.41410  0.65220  0.47600  Biso   1.000  H
  C10      1.0000 0.54200  0.64300  0.59600  Biso   1.000  C
  H12      1.0000 0.62260  0.64630  0.56080  Biso   1.000  H
  H13      1.0000 0.52170  0.55250  0.61220  Biso   1.000  H
  H14      1.0000 0.55100  0.69340  0.65390  Biso   1.000  H
  O9       1.0000 0.67030  0.93020  0.30950  Biso   1.000  O
  O10      1.0000 0.24970  0.92460  0.49170  Biso   1.000  O
  O11      1.0000 0.07720  0.90010  0.41100  Biso   1.000  O
  O12      1.0000 0.69600  0.69300  0.33990  Biso   1.000  O
  H15      1.0000 0.62340  0.74250  0.31150  Biso   1.000  H
  C11      1.0000 0.19330  0.92710  0.41510  Biso   1.000  C
  C12      1.0000 0.40070  0.96450  0.32990  Biso   1.000  C
  H16      1.0000 0.44640  0.93950  0.38460  Biso   1.000  H
  C13      1.0000 0.26690  0.96540  0.33020  Biso   1.000  C
  C14      1.0000 0.70300  0.57500  0.28400  Biso   1.000  C
  H17      1.0000 0.79370  0.55620  0.26760  Biso   1.000  H
  H18      1.0000 0.65220  0.58590  0.22600  Biso   1.000  H
  C15      1.0000 0.64300  0.45800  0.34600  Biso   1.000  C
  H19      1.0000 0.64630  0.37740  0.31080  Biso   1.000  H
  H20      1.0000 0.55250  0.47830  0.36220  Biso   1.000  H
  H21      1.0000 0.69340  0.44900  0.40390  Biso   1.000  H
  O13      1.0000 0.32970  0.06980  0.80950  Biso   1.000  O
  O14      1.0000 0.75030  0.07540  0.99170  Biso   1.000  O
  O15      1.0000 0.92280  0.09990  0.91100  Biso   1.000  O
  O16      1.0000 0.30400  0.30700  0.83990  Biso   1.000  O
  H22      1.0000 0.37660  0.25750  0.81150  Biso   1.000  H
  C16      1.0000 0.80670  0.07290  0.91510  Biso   1.000  C
  C17      1.0000 0.59930  0.03550  0.82990  Biso   1.000  C
  H23      1.0000 0.55360  0.06050  0.88460  Biso   1.000  H
  C18      1.0000 0.73310  0.03460  0.83020  Biso   1.000  C
  C19      1.0000 0.29700  0.42500  0.78400  Biso   1.000  C
  H24      1.0000 0.20630  0.44380  0.76760  Biso   1.000  H
  H25      1.0000 0.34780  0.41410  0.72600  Biso   1.000  H
  C20      1.0000 0.35700  0.54200  0.84600  Biso   1.000  C
  H26      1.0000 0.35370  0.62260  0.81080  Biso   1.000  H
  H27      1.0000 0.44750  0.52170  0.86220  Biso   1.000  H
  H28      1.0000 0.30660  0.55100  0.90390  Biso   1.000  H
  O17      1.0000 0.06980  0.32970  0.94050  Biso   1.000  O
  O18      1.0000 0.07540  0.75030  0.75830  Biso   1.000  O
  O19      1.0000 0.09990  0.92280  0.83900  Biso   1.000  O
  O20      1.0000 0.30700  0.30400  0.91010  Biso   1.000  O
  H29      1.0000 0.25750  0.37660  0.93850  Biso   1.000  H
  C21      1.0000 0.07290  0.80670  0.83490  Biso   1.000  C
  C22      1.0000 0.03550  0.59930  0.92010  Biso   1.000  C
  H30      1.0000 0.06050  0.55360  0.86540  Biso   1.000  H
  C23      1.0000 0.03460  0.73310  0.91980  Biso   1.000  C
  C24      1.0000 0.42500  0.29700  0.96600  Biso   1.000  C
  H31      1.0000 0.44380  0.20630  0.98240  Biso   1.000  H
  H32      1.0000 0.41410  0.34780  0.02400  Biso   1.000  H
  C25      1.0000 0.54200  0.35700  0.90400  Biso   1.000  C
  H33      1.0000 0.62260  0.35370  0.93920  Biso   1.000  H
  H34      1.0000 0.52170  0.44750  0.88780  Biso   1.000  H
  H35      1.0000 0.55100  0.30660  0.84610  Biso   1.000  H
  O21      1.0000 0.93020  0.67030  0.44050  Biso   1.000  O
  O22      1.0000 0.92460  0.24970  0.25830  Biso   1.000  O
  O23      1.0000 0.90010  0.07720  0.33900  Biso   1.000  O
  O24      1.0000 0.69300  0.69600  0.41010  Biso   1.000  O
  H36      1.0000 0.74250  0.62340  0.43850  Biso   1.000  H
  C26      1.0000 0.92710  0.19330  0.33490  Biso   1.000  C
  C27      1.0000 0.96450  0.40070  0.42010  Biso   1.000  C
  H37      1.0000 0.93950  0.44640  0.36540  Biso   1.000  H
  C28      1.0000 0.96540  0.26690  0.41980  Biso   1.000  C
  C29      1.0000 0.57500  0.70300  0.46600  Biso   1.000  C
  H38      1.0000 0.55620  0.79370  0.48240  Biso   1.000  H
  H39      1.0000 0.58590  0.65220  0.52400  Biso   1.000  H
  C30      1.0000 0.45800  0.64300  0.40400  Biso   1.000  C
  H40      1.0000 0.37740  0.64630  0.43920  Biso   1.000  H
  H41      1.0000 0.47830  0.55250  0.38780  Biso   1.000  H
  H42      1.0000 0.44900  0.69340  0.34610  Biso   1.000  H
  O25      1.0000 0.32970  0.93020  0.69050  Biso   1.000  O
  O26      1.0000 0.75030  0.92460  0.50830  Biso   1.000  O
  O27      1.0000 0.92280  0.90010  0.58900  Biso   1.000  O
  O28      1.0000 0.30400  0.69300  0.66010  Biso   1.000  O
  H43      1.0000 0.37660  0.74250  0.68850  Biso   1.000  H
  C31      1.0000 0.80670  0.92710  0.58490  Biso   1.000  C
  C32      1.0000 0.59930  0.96450  0.67010  Biso   1.000  C
  H44      1.0000 0.55360  0.93950  0.61540  Biso   1.000  H
  C33      1.0000 0.73310  0.96540  0.66980  Biso   1.000  C
  C34      1.0000 0.29700  0.57500  0.71600  Biso   1.000  C
  H45      1.0000 0.20630  0.55620  0.73240  Biso   1.000  H
  H46      1.0000 0.34780  0.58590  0.77400  Biso   1.000  H
  C35      1.0000 0.35700  0.45800  0.65400  Biso   1.000  C
  H47      1.0000 0.35370  0.37740  0.68920  Biso   1.000  H
  H48      1.0000 0.44750  0.47830  0.63780  Biso   1.000  H
  H49      1.0000 0.30660  0.44900  0.59610  Biso   1.000  H
  O29      1.0000 0.67030  0.06980  0.19050  Biso   1.000  O
  O30      1.0000 0.24970  0.07540  0.00830  Biso   1.000  O
  O31      1.0000 0.07720  0.09990  0.08900  Biso   1.000  O
  O32      1.0000 0.69600  0.30700  0.16010  Biso   1.000  O
  H50      1.0000 0.62340  0.25750  0.18850  Biso   1.000  H
  C36      1.0000 0.19330  0.07290  0.08490  Biso   1.000  C
  C37      1.0000 0.40070  0.03550  0.17010  Biso   1.000  C
  H51      1.0000 0.44640  0.06050  0.11540  Biso   1.000  H
  C38      1.0000 0.26690  0.03460  0.16980  Biso   1.000  C
  C39      1.0000 0.70300  0.42500  0.21600  Biso   1.000  C
  H52      1.0000 0.79370  0.44380  0.23240  Biso   1.000  H
  H53      1.0000 0.65220  0.41410  0.27400  Biso   1.000  H
  C40      1.0000 0.64300  0.54200  0.15400  Biso   1.000  C
  H54      1.0000 0.64630  0.62260  0.18920  Biso   1.000  H
  H55      1.0000 0.55250  0.52170  0.13780  Biso   1.000  H
  H56      1.0000 0.69340  0.55100  0.09610  Biso   1.000  H
  Gd1      1.0000 0.85983  0.14017  0.12500  Biso   1.000  Gd
  Gd2      1.0000 0.14017  0.85983  0.62500  Biso   1.000  Gd
  Gd3      1.0000 0.85983  0.85983  0.37500  Biso   1.000  Gd
  Gd4      1.0000 0.14017  0.14017  0.87500  Biso   1.000  Gd
  C41      1.0000 0.00000  0.38650  0.00000  Biso   1.000  C
  C42      1.0000 0.00000  0.53030  0.00000  Biso   1.000  C
  C43      1.0000 0.00000  0.79700  0.00000  Biso   1.000  C
  H57      1.0000 0.00000  0.88910  0.00000  Biso   1.000  H
  C44      1.0000 0.00000  0.61350  0.50000  Biso   1.000  C
  C45      1.0000 0.00000  0.46970  0.50000  Biso   1.000  C
  C46      1.0000 0.00000  0.20300  0.50000  Biso   1.000  C
  H58      1.0000 0.00000  0.11090  0.50000  Biso   1.000  H
  C47      1.0000 0.61350  0.00000  0.25000  Biso   1.000  C
  C48      1.0000 0.46970  0.00000  0.25000  Biso   1.000  C
  C49      1.0000 0.20300  0.00000  0.25000  Biso   1.000  C
  H59      1.0000 0.11090  0.00000  0.25000  Biso   1.000  H
  C50      1.0000 0.38650  0.00000  0.75000  Biso   1.000  C
  C51      1.0000 0.53030  0.00000  0.75000  Biso   1.000  C
  C52      1.0000 0.79700  0.00000  0.75000  Biso   1.000  C
  H60      1.0000 0.88910  0.00000  0.75000  Biso   1.000  H
