data_image0
_cell_length_a       10.7326
_cell_length_b       23.2562
_cell_length_c       9.7635
_cell_angle_alpha    90
_cell_angle_beta     105.392
_cell_angle_gamma    90

_symmetry_space_group_name_H-M    "P 1"
_symmetry_int_tables_number       1

loop_
  _symmetry_equiv_pos_as_xyz
  'x, y, z'

loop_
  _atom_site_label
  _atom_site_occupancy
  _atom_site_fract_x
  _atom_site_fract_y
  _atom_site_fract_z
  _atom_site_thermal_displace_type
  _atom_site_B_iso_or_equiv
  _atom_site_type_symbol
  Zn1      1.0000 0.32959  0.10066  0.96839  Biso   1.000  Zn
  O1       1.0000 0.40038  0.05229  0.13505  Biso   1.000  O
  O2       1.0000 0.26170  0.08560  0.23870  Biso   1.000  O
  C1       1.0000 0.36561  0.06196  0.24440  Biso   1.000  C
  C2       1.0000 0.43555  0.02944  0.37701  Biso   1.000  C
  C3       1.0000 0.42158  0.04654  0.50908  Biso   1.000  C
  H1       1.0000 0.36820  0.07850  0.51550  Biso   1.000  H
  C4       1.0000 0.51446  0.98296  0.36862  Biso   1.000  C
  H2       1.0000 0.52480  0.97130  0.27900  Biso   1.000  H
  O3       1.0000 0.20189  0.04966  0.84342  Biso   1.000  O
  O4       1.0000 0.23223  0.10991  0.67895  Biso   1.000  O
  C5       1.0000 0.18044  0.06701  0.71436  Biso   1.000  C
  C6       1.0000 0.08696  0.03222  0.60389  Biso   1.000  C
  C7       1.0000 0.08403  0.03845  0.46020  Biso   1.000  C
  H3       1.0000 0.14100  0.06470  0.43300  Biso   1.000  H
  C8       1.0000 0.00239  0.99383  0.64239  Biso   1.000  C
  H4       1.0000 0.00380  0.98970  0.73960  Biso   1.000  H
  N1       1.0000 0.50307  0.11060  0.92546  Biso   1.000  N
  N2       1.0000 0.70333  0.09420  0.92016  Biso   1.000  N
  N3       1.0000 0.14021  0.24236  0.42133  Biso   1.000  N
  N4       1.0000 0.26240  0.31933  0.47139  Biso   1.000  N
  C9       1.0000 0.60756  0.07871  0.97698  Biso   1.000  C
  H5       1.0000 0.61370  0.04890  0.04500  Biso   1.000  H
  C10      1.0000 0.53481  0.14817  0.83110  Biso   1.000  C
  H6       1.0000 0.47870  0.17630  0.77690  Biso   1.000  H
  C11      1.0000 0.65880  0.13869  0.82760  Biso   1.000  C
  H7       1.0000 0.70540  0.15880  0.77240  Biso   1.000  H
  C12      1.0000 0.83288  0.06813  0.95210  Biso   1.000  C
  H8       1.0000 0.84680  0.05130  0.86420  Biso   1.000  H
  H9       1.0000 0.83840  0.03670  0.02180  Biso   1.000  H
  C13      1.0000 0.93836  0.11220  0.01190  Biso   1.000  C
  H10      1.0000 0.93560  0.14230  0.93940  Biso   1.000  H
  H11      1.0000 0.02350  0.09300  0.03100  Biso   1.000  H
  C14      1.0000 0.92610  0.14087  0.14830  Biso   1.000  C
  H12      1.0000 0.92140  0.11080  0.21860  Biso   1.000  H
  H13      1.0000 0.84470  0.16320  0.12770  Biso   1.000  H
  C15      1.0000 0.03958  0.18090  0.21250  Biso   1.000  C
  H14      1.0000 0.12170  0.15950  0.22590  Biso   1.000  H
  H15      1.0000 0.03990  0.21310  0.14610  Biso   1.000  H
  C16      1.0000 0.03080  0.20478  0.35410  Biso   1.000  C
  H16      1.0000 0.94940  0.22680  0.33960  Biso   1.000  H
  H17      1.0000 0.02760  0.17240  0.41890  Biso   1.000  H
  C17      1.0000 0.24140  0.22841  0.53450  Biso   1.000  C
  H18      1.0000 0.25680  0.19240  0.58210  Biso   1.000  H
  C18      1.0000 0.31550  0.27645  0.56490  Biso   1.000  C
  H19      1.0000 0.39250  0.27980  0.63970  Biso   1.000  H
  C19      1.0000 0.15598  0.29731  0.38620  Biso   1.000  C
  H20      1.0000 0.09870  0.31750  0.31070  Biso   1.000  H
  O5       1.0000 0.31850  0.11100  0.26500  Biso   1.000  O
  Zn2      1.0000 0.67041  0.60066  0.53161  Biso   1.000  Zn
  O6       1.0000 0.59962  0.55229  0.36495  Biso   1.000  O
  O7       1.0000 0.73830  0.58560  0.26130  Biso   1.000  O
  C20      1.0000 0.63439  0.56196  0.25560  Biso   1.000  C
  C21      1.0000 0.56445  0.52944  0.12299  Biso   1.000  C
  C22      1.0000 0.57842  0.54654  0.99092  Biso   1.000  C
  H21      1.0000 0.63180  0.57850  0.98450  Biso   1.000  H
  C23      1.0000 0.48554  0.48296  0.13138  Biso   1.000  C
  H22      1.0000 0.47520  0.47130  0.22100  Biso   1.000  H
  O8       1.0000 0.79811  0.54966  0.65658  Biso   1.000  O
  O9       1.0000 0.76777  0.60991  0.82105  Biso   1.000  O
  C24      1.0000 0.81956  0.56701  0.78564  Biso   1.000  C
  C25      1.0000 0.91304  0.53222  0.89611  Biso   1.000  C
  C26      1.0000 0.91597  0.53845  0.03980  Biso   1.000  C
  H23      1.0000 0.85900  0.56470  0.06700  Biso   1.000  H
  C27      1.0000 0.99761  0.49383  0.85761  Biso   1.000  C
  H24      1.0000 0.99620  0.48970  0.76040  Biso   1.000  H
  N5       1.0000 0.49693  0.61060  0.57454  Biso   1.000  N
  N6       1.0000 0.29667  0.59420  0.57984  Biso   1.000  N
  N7       1.0000 0.85979  0.74236  0.07867  Biso   1.000  N
  N8       1.0000 0.73760  0.81933  0.02861  Biso   1.000  N
  C28      1.0000 0.39244  0.57871  0.52302  Biso   1.000  C
  H25      1.0000 0.38630  0.54890  0.45500  Biso   1.000  H
  C29      1.0000 0.46519  0.64817  0.66890  Biso   1.000  C
  H26      1.0000 0.52130  0.67630  0.72310  Biso   1.000  H
  C30      1.0000 0.34120  0.63869  0.67240  Biso   1.000  C
  H27      1.0000 0.29460  0.65880  0.72760  Biso   1.000  H
  C31      1.0000 0.16712  0.56813  0.54790  Biso   1.000  C
  H28      1.0000 0.15320  0.55130  0.63580  Biso   1.000  H
  H29      1.0000 0.16160  0.53670  0.47820  Biso   1.000  H
  C32      1.0000 0.06164  0.61220  0.48810  Biso   1.000  C
  H30      1.0000 0.06440  0.64230  0.56060  Biso   1.000  H
  H31      1.0000 0.97650  0.59300  0.46900  Biso   1.000  H
  C33      1.0000 0.07390  0.64087  0.35170  Biso   1.000  C
  H32      1.0000 0.07860  0.61080  0.28140  Biso   1.000  H
  H33      1.0000 0.15530  0.66320  0.37230  Biso   1.000  H
  C34      1.0000 0.96042  0.68090  0.28750  Biso   1.000  C
  H34      1.0000 0.87830  0.65950  0.27410  Biso   1.000  H
  H35      1.0000 0.96010  0.71310  0.35390  Biso   1.000  H
  C35      1.0000 0.96920  0.70478  0.14590  Biso   1.000  C
  H36      1.0000 0.05060  0.72680  0.16040  Biso   1.000  H
  H37      1.0000 0.97240  0.67240  0.08110  Biso   1.000  H
  C36      1.0000 0.75860  0.72841  0.96550  Biso   1.000  C
  H38      1.0000 0.74320  0.69240  0.91790  Biso   1.000  H
  C37      1.0000 0.68450  0.77645  0.93510  Biso   1.000  C
  H39      1.0000 0.60750  0.77980  0.86030  Biso   1.000  H
  C38      1.0000 0.84402  0.79731  0.11380  Biso   1.000  C
  H40      1.0000 0.90130  0.81750  0.18930  Biso   1.000  H
  O10      1.0000 0.68150  0.61100  0.23500  Biso   1.000  O
  Zn3      1.0000 0.67041  0.89934  0.03161  Biso   1.000  Zn
  O11      1.0000 0.59962  0.94771  0.86495  Biso   1.000  O
  O12      1.0000 0.73830  0.91440  0.76130  Biso   1.000  O
  C39      1.0000 0.63439  0.93804  0.75560  Biso   1.000  C
  C40      1.0000 0.56445  0.97056  0.62299  Biso   1.000  C
  C41      1.0000 0.57842  0.95346  0.49092  Biso   1.000  C
  H41      1.0000 0.63180  0.92150  0.48450  Biso   1.000  H
  C42      1.0000 0.48554  0.01704  0.63138  Biso   1.000  C
  H42      1.0000 0.47520  0.02870  0.72100  Biso   1.000  H
  O13      1.0000 0.79811  0.95034  0.15658  Biso   1.000  O
  O14      1.0000 0.76777  0.89009  0.32105  Biso   1.000  O
  C43      1.0000 0.81956  0.93299  0.28564  Biso   1.000  C
  C44      1.0000 0.91304  0.96778  0.39611  Biso   1.000  C
  C45      1.0000 0.91597  0.96155  0.53980  Biso   1.000  C
  H43      1.0000 0.85900  0.93530  0.56700  Biso   1.000  H
  C46      1.0000 0.99761  0.00617  0.35761  Biso   1.000  C
  H44      1.0000 0.99620  0.01030  0.26040  Biso   1.000  H
  N9       1.0000 0.49693  0.88940  0.07454  Biso   1.000  N
  N10      1.0000 0.29667  0.90580  0.07984  Biso   1.000  N
  N11      1.0000 0.85979  0.75764  0.57867  Biso   1.000  N
  N12      1.0000 0.73760  0.68067  0.52861  Biso   1.000  N
  C47      1.0000 0.39244  0.92129  0.02302  Biso   1.000  C
  H45      1.0000 0.38630  0.95110  0.95500  Biso   1.000  H
  C48      1.0000 0.46519  0.85183  0.16890  Biso   1.000  C
  H46      1.0000 0.52130  0.82370  0.22310  Biso   1.000  H
  C49      1.0000 0.34120  0.86131  0.17240  Biso   1.000  C
  H47      1.0000 0.29460  0.84120  0.22760  Biso   1.000  H
  C50      1.0000 0.16712  0.93187  0.04790  Biso   1.000  C
  H48      1.0000 0.15320  0.94870  0.13580  Biso   1.000  H
  H49      1.0000 0.16160  0.96330  0.97820  Biso   1.000  H
  C51      1.0000 0.06164  0.88780  0.98810  Biso   1.000  C
  H50      1.0000 0.06440  0.85770  0.06060  Biso   1.000  H
  H51      1.0000 0.97650  0.90700  0.96900  Biso   1.000  H
  C52      1.0000 0.07390  0.85913  0.85170  Biso   1.000  C
  H52      1.0000 0.07860  0.88920  0.78140  Biso   1.000  H
  H53      1.0000 0.15530  0.83680  0.87230  Biso   1.000  H
  C53      1.0000 0.96042  0.81910  0.78750  Biso   1.000  C
  H54      1.0000 0.87830  0.84050  0.77410  Biso   1.000  H
  H55      1.0000 0.96010  0.78690  0.85390  Biso   1.000  H
  C54      1.0000 0.96920  0.79522  0.64590  Biso   1.000  C
  H56      1.0000 0.05060  0.77320  0.66040  Biso   1.000  H
  H57      1.0000 0.97240  0.82760  0.58110  Biso   1.000  H
  C55      1.0000 0.75860  0.77159  0.46550  Biso   1.000  C
  H58      1.0000 0.74320  0.80760  0.41790  Biso   1.000  H
  C56      1.0000 0.68450  0.72355  0.43510  Biso   1.000  C
  H59      1.0000 0.60750  0.72020  0.36030  Biso   1.000  H
  C57      1.0000 0.84402  0.70269  0.61380  Biso   1.000  C
  H60      1.0000 0.90130  0.68250  0.68930  Biso   1.000  H
  O15      1.0000 0.68150  0.88900  0.73500  Biso   1.000  O
  Zn4      1.0000 0.32959  0.39934  0.46839  Biso   1.000  Zn
  O16      1.0000 0.40038  0.44771  0.63505  Biso   1.000  O
  O17      1.0000 0.26170  0.41440  0.73870  Biso   1.000  O
  C58      1.0000 0.36561  0.43804  0.74440  Biso   1.000  C
  C59      1.0000 0.43555  0.47056  0.87701  Biso   1.000  C
  C60      1.0000 0.42158  0.45346  0.00908  Biso   1.000  C
  H61      1.0000 0.36820  0.42150  0.01550  Biso   1.000  H
  C61      1.0000 0.51446  0.51704  0.86862  Biso   1.000  C
  H62      1.0000 0.52480  0.52870  0.77900  Biso   1.000  H
  O18      1.0000 0.20189  0.45034  0.34342  Biso   1.000  O
  O19      1.0000 0.23223  0.39009  0.17895  Biso   1.000  O
  C62      1.0000 0.18044  0.43299  0.21436  Biso   1.000  C
  C63      1.0000 0.08696  0.46778  0.10389  Biso   1.000  C
  C64      1.0000 0.08403  0.46155  0.96020  Biso   1.000  C
  H63      1.0000 0.14100  0.43530  0.93300  Biso   1.000  H
  C65      1.0000 0.00239  0.50617  0.14239  Biso   1.000  C
  H64      1.0000 0.00380  0.51030  0.23960  Biso   1.000  H
  N13      1.0000 0.50307  0.38940  0.42546  Biso   1.000  N
  N14      1.0000 0.70333  0.40580  0.42016  Biso   1.000  N
  N15      1.0000 0.14021  0.25764  0.92133  Biso   1.000  N
  N16      1.0000 0.26240  0.18067  0.97139  Biso   1.000  N
  C66      1.0000 0.60756  0.42129  0.47698  Biso   1.000  C
  H65      1.0000 0.61370  0.45110  0.54500  Biso   1.000  H
  C67      1.0000 0.53481  0.35183  0.33110  Biso   1.000  C
  H66      1.0000 0.47870  0.32370  0.27690  Biso   1.000  H
  C68      1.0000 0.65880  0.36131  0.32760  Biso   1.000  C
  H67      1.0000 0.70540  0.34120  0.27240  Biso   1.000  H
  C69      1.0000 0.83288  0.43187  0.45210  Biso   1.000  C
  H68      1.0000 0.84680  0.44870  0.36420  Biso   1.000  H
  H69      1.0000 0.83840  0.46330  0.52180  Biso   1.000  H
  C70      1.0000 0.93836  0.38780  0.51190  Biso   1.000  C
  H70      1.0000 0.93560  0.35770  0.43940  Biso   1.000  H
  H71      1.0000 0.02350  0.40700  0.53100  Biso   1.000  H
  C71      1.0000 0.92610  0.35913  0.64830  Biso   1.000  C
  H72      1.0000 0.92140  0.38920  0.71860  Biso   1.000  H
  H73      1.0000 0.84470  0.33680  0.62770  Biso   1.000  H
  C72      1.0000 0.03958  0.31910  0.71250  Biso   1.000  C
  H74      1.0000 0.12170  0.34050  0.72590  Biso   1.000  H
  H75      1.0000 0.03990  0.28690  0.64610  Biso   1.000  H
  C73      1.0000 0.03080  0.29522  0.85410  Biso   1.000  C
  H76      1.0000 0.94940  0.27320  0.83960  Biso   1.000  H
  H77      1.0000 0.02760  0.32760  0.91890  Biso   1.000  H
  C74      1.0000 0.24140  0.27159  0.03450  Biso   1.000  C
  H78      1.0000 0.25680  0.30760  0.08210  Biso   1.000  H
  C75      1.0000 0.31550  0.22355  0.06490  Biso   1.000  C
  H79      1.0000 0.39250  0.22020  0.13970  Biso   1.000  H
  C76      1.0000 0.15598  0.20269  0.88620  Biso   1.000  C
  H80      1.0000 0.09870  0.18250  0.81070  Biso   1.000  H
  O20      1.0000 0.31850  0.38900  0.76500  Biso   1.000  O
