data_image0
_cell_length_a       13.745
_cell_length_b       22.346
_cell_length_c       22.592
_cell_angle_alpha    90
_cell_angle_beta     90
_cell_angle_gamma    90

_symmetry_space_group_name_H-M    "P 1"
_symmetry_int_tables_number       1

loop_
  _symmetry_equiv_pos_as_xyz
  'x, y, z'

loop_
  _atom_site_label
  _atom_site_occupancy
  _atom_site_fract_x
  _atom_site_fract_y
  _atom_site_fract_z
  _atom_site_thermal_displace_type
  _atom_site_B_iso_or_equiv
  _atom_site_type_symbol
  Mn1      1.0000 0.82973  0.99513  0.17733  Biso   1.000  Mn
  Mn2      1.0000 0.71820  0.12232  0.17888  Biso   1.000  Mn
  Mn3      1.0000 0.63109  0.00993  0.11174  Biso   1.000  Mn
  O1       1.0000 0.71040  0.03820  0.18810  Biso   1.000  O
  O2       1.0000 0.95080  0.95660  0.16820  Biso   1.000  O
  O3       1.0000 0.77280  0.96990  0.10650  Biso   1.000  O
  O4       1.0000 0.72620  0.20640  0.17430  Biso   1.000  O
  O5       1.0000 0.64690  0.10930  0.10960  Biso   1.000  O
  O6       1.0000 0.54460  0.98800  0.18870  Biso   1.000  O
  N1       1.0000 0.87650  0.09280  0.14870  Biso   1.000  N
  N2       1.0000 0.92280  0.10880  0.10760  Biso   1.000  N
  N3       1.0000 0.97160  0.12360  0.06750  Biso   1.000  N
  N4       1.0000 0.55220  0.99070  0.03570  Biso   1.000  N
  C1       1.0000 0.12270  0.16820  0.27150  Biso   1.000  C
  C2       1.0000 0.98970  0.92930  0.11470  Biso   1.000  C
  C3       1.0000 0.92640  0.94270  0.06470  Biso   1.000  C
  C4       1.0000 0.81340  0.93250  0.05990  Biso   1.000  C
  C5       1.0000 0.08210  0.94410  0.10320  Biso   1.000  C
  C6       1.0000 0.77100  0.94140  0.00660  Biso   1.000  C
  C7       1.0000 0.68820  0.24160  0.12410  Biso   1.000  C
  C8       1.0000 0.67440  0.20660  0.07750  Biso   1.000  C
  C9       1.0000 0.62100  0.15850  0.07130  Biso   1.000  C
  C10      1.0000 0.71260  0.29850  0.13370  Biso   1.000  C
  C11      1.0000 0.56750  0.14060  0.02450  Biso   1.000  C
  C12      1.0000 0.45490  0.95280  0.19380  Biso   1.000  C
  C13      1.0000 0.39630  0.96390  0.14860  Biso   1.000  C
  Mn4      1.0000 0.17027  0.00487  0.67733  Biso   1.000  Mn
  Mn5      1.0000 0.28180  0.87768  0.67888  Biso   1.000  Mn
  Mn6      1.0000 0.36891  0.99007  0.61174  Biso   1.000  Mn
  O7       1.0000 0.28960  0.96180  0.68810  Biso   1.000  O
  O8       1.0000 0.04920  0.04340  0.66820  Biso   1.000  O
  O9       1.0000 0.22720  0.03010  0.60650  Biso   1.000  O
  O10      1.0000 0.27380  0.79360  0.67430  Biso   1.000  O
  O11      1.0000 0.35310  0.89070  0.60960  Biso   1.000  O
  O12      1.0000 0.45540  0.01200  0.68870  Biso   1.000  O
  N5       1.0000 0.12350  0.90720  0.64870  Biso   1.000  N
  N6       1.0000 0.07720  0.89120  0.60760  Biso   1.000  N
  N7       1.0000 0.02840  0.87640  0.56750  Biso   1.000  N
  N8       1.0000 0.44780  0.00930  0.53570  Biso   1.000  N
  C14      1.0000 0.87730  0.83180  0.77150  Biso   1.000  C
  C15      1.0000 0.01030  0.07070  0.61470  Biso   1.000  C
  C16      1.0000 0.07360  0.05730  0.56470  Biso   1.000  C
  C17      1.0000 0.18660  0.06750  0.55990  Biso   1.000  C
  C18      1.0000 0.91790  0.05590  0.60320  Biso   1.000  C
  C19      1.0000 0.22900  0.05860  0.50660  Biso   1.000  C
  C20      1.0000 0.31180  0.75840  0.62410  Biso   1.000  C
  C21      1.0000 0.32560  0.79340  0.57750  Biso   1.000  C
  C22      1.0000 0.37900  0.84150  0.57130  Biso   1.000  C
  C23      1.0000 0.28740  0.70150  0.63370  Biso   1.000  C
  C24      1.0000 0.43250  0.85940  0.52450  Biso   1.000  C
  C25      1.0000 0.54510  0.04720  0.69380  Biso   1.000  C
  C26      1.0000 0.60370  0.03610  0.64860  Biso   1.000  C
  Mn7      1.0000 0.17027  0.49513  0.32267  Biso   1.000  Mn
  Mn8      1.0000 0.28180  0.62232  0.32112  Biso   1.000  Mn
  Mn9      1.0000 0.36891  0.50993  0.38826  Biso   1.000  Mn
  O13      1.0000 0.28960  0.53820  0.31190  Biso   1.000  O
  O14      1.0000 0.04920  0.45660  0.33180  Biso   1.000  O
  O15      1.0000 0.22720  0.46990  0.39350  Biso   1.000  O
  O16      1.0000 0.27380  0.70640  0.32570  Biso   1.000  O
  O17      1.0000 0.35310  0.60930  0.39040  Biso   1.000  O
  O18      1.0000 0.45540  0.48800  0.31130  Biso   1.000  O
  N9       1.0000 0.12350  0.59280  0.35130  Biso   1.000  N
  N10      1.0000 0.07720  0.60880  0.39240  Biso   1.000  N
  N11      1.0000 0.02840  0.62360  0.43250  Biso   1.000  N
  N12      1.0000 0.44780  0.49070  0.46430  Biso   1.000  N
  C27      1.0000 0.87730  0.66820  0.22850  Biso   1.000  C
  C28      1.0000 0.01030  0.42930  0.38530  Biso   1.000  C
  C29      1.0000 0.07360  0.44270  0.43530  Biso   1.000  C
  C30      1.0000 0.18660  0.43250  0.44010  Biso   1.000  C
  C31      1.0000 0.91790  0.44410  0.39680  Biso   1.000  C
  C32      1.0000 0.22900  0.44140  0.49340  Biso   1.000  C
  C33      1.0000 0.31180  0.74160  0.37590  Biso   1.000  C
  C34      1.0000 0.32560  0.70660  0.42250  Biso   1.000  C
  C35      1.0000 0.37900  0.65850  0.42870  Biso   1.000  C
  C36      1.0000 0.28740  0.79850  0.36630  Biso   1.000  C
  C37      1.0000 0.43250  0.64060  0.47550  Biso   1.000  C
  C38      1.0000 0.54510  0.45280  0.30620  Biso   1.000  C
  C39      1.0000 0.60370  0.46390  0.35140  Biso   1.000  C
  Mn10     1.0000 0.82973  0.50487  0.82267  Biso   1.000  Mn
  Mn11     1.0000 0.71820  0.37768  0.82112  Biso   1.000  Mn
  Mn12     1.0000 0.63109  0.49007  0.88826  Biso   1.000  Mn
  O19      1.0000 0.71040  0.46180  0.81190  Biso   1.000  O
  O20      1.0000 0.95080  0.54340  0.83180  Biso   1.000  O
  O21      1.0000 0.77280  0.53010  0.89350  Biso   1.000  O
  O22      1.0000 0.72620  0.29360  0.82570  Biso   1.000  O
  O23      1.0000 0.64690  0.39070  0.89040  Biso   1.000  O
  O24      1.0000 0.54460  0.51200  0.81130  Biso   1.000  O
  N13      1.0000 0.87650  0.40720  0.85130  Biso   1.000  N
  N14      1.0000 0.92280  0.39120  0.89240  Biso   1.000  N
  N15      1.0000 0.97160  0.37640  0.93250  Biso   1.000  N
  N16      1.0000 0.55220  0.50930  0.96430  Biso   1.000  N
  C40      1.0000 0.12270  0.33180  0.72850  Biso   1.000  C
  C41      1.0000 0.98970  0.57070  0.88530  Biso   1.000  C
  C42      1.0000 0.92640  0.55730  0.93530  Biso   1.000  C
  C43      1.0000 0.81340  0.56750  0.94010  Biso   1.000  C
  C44      1.0000 0.08210  0.55590  0.89680  Biso   1.000  C
  C45      1.0000 0.77100  0.55860  0.99340  Biso   1.000  C
  C46      1.0000 0.68820  0.25840  0.87590  Biso   1.000  C
  C47      1.0000 0.67440  0.29340  0.92250  Biso   1.000  C
  C48      1.0000 0.62100  0.34150  0.92870  Biso   1.000  C
  C49      1.0000 0.71260  0.20150  0.86630  Biso   1.000  C
  C50      1.0000 0.56750  0.35940  0.97550  Biso   1.000  C
  C51      1.0000 0.45490  0.54720  0.80620  Biso   1.000  C
  C52      1.0000 0.39630  0.53610  0.85140  Biso   1.000  C
  Mn13     1.0000 0.17027  0.00487  0.82267  Biso   1.000  Mn
  Mn14     1.0000 0.28180  0.87768  0.82112  Biso   1.000  Mn
  Mn15     1.0000 0.36891  0.99007  0.88826  Biso   1.000  Mn
  O25      1.0000 0.28960  0.96180  0.81190  Biso   1.000  O
  O26      1.0000 0.04920  0.04340  0.83180  Biso   1.000  O
  O27      1.0000 0.22720  0.03010  0.89350  Biso   1.000  O
  O28      1.0000 0.27380  0.79360  0.82570  Biso   1.000  O
  O29      1.0000 0.35310  0.89070  0.89040  Biso   1.000  O
  O30      1.0000 0.45540  0.01200  0.81130  Biso   1.000  O
  N17      1.0000 0.12350  0.90720  0.85130  Biso   1.000  N
  N18      1.0000 0.07720  0.89120  0.89240  Biso   1.000  N
  N19      1.0000 0.02840  0.87640  0.93250  Biso   1.000  N
  N20      1.0000 0.44780  0.00930  0.96430  Biso   1.000  N
  C53      1.0000 0.87730  0.83180  0.72850  Biso   1.000  C
  C54      1.0000 0.01030  0.07070  0.88530  Biso   1.000  C
  C55      1.0000 0.07360  0.05730  0.93530  Biso   1.000  C
  C56      1.0000 0.18660  0.06750  0.94010  Biso   1.000  C
  C57      1.0000 0.91790  0.05590  0.89680  Biso   1.000  C
  C58      1.0000 0.22900  0.05860  0.99340  Biso   1.000  C
  C59      1.0000 0.31180  0.75840  0.87590  Biso   1.000  C
  C60      1.0000 0.32560  0.79340  0.92250  Biso   1.000  C
  C61      1.0000 0.37900  0.84150  0.92870  Biso   1.000  C
  C62      1.0000 0.28740  0.70150  0.86630  Biso   1.000  C
  C63      1.0000 0.43250  0.85940  0.97550  Biso   1.000  C
  C64      1.0000 0.54510  0.04720  0.80620  Biso   1.000  C
  C65      1.0000 0.60370  0.03610  0.85140  Biso   1.000  C
  Mn16     1.0000 0.82973  0.99513  0.32267  Biso   1.000  Mn
  Mn17     1.0000 0.71820  0.12232  0.32112  Biso   1.000  Mn
  Mn18     1.0000 0.63109  0.00993  0.38826  Biso   1.000  Mn
  O31      1.0000 0.71040  0.03820  0.31190  Biso   1.000  O
  O32      1.0000 0.95080  0.95660  0.33180  Biso   1.000  O
  O33      1.0000 0.77280  0.96990  0.39350  Biso   1.000  O
  O34      1.0000 0.72620  0.20640  0.32570  Biso   1.000  O
  O35      1.0000 0.64690  0.10930  0.39040  Biso   1.000  O
  O36      1.0000 0.54460  0.98800  0.31130  Biso   1.000  O
  N21      1.0000 0.87650  0.09280  0.35130  Biso   1.000  N
  N22      1.0000 0.92280  0.10880  0.39240  Biso   1.000  N
  N23      1.0000 0.97160  0.12360  0.43250  Biso   1.000  N
  N24      1.0000 0.55220  0.99070  0.46430  Biso   1.000  N
  C66      1.0000 0.12270  0.16820  0.22850  Biso   1.000  C
  C67      1.0000 0.98970  0.92930  0.38530  Biso   1.000  C
  C68      1.0000 0.92640  0.94270  0.43530  Biso   1.000  C
  C69      1.0000 0.81340  0.93250  0.44010  Biso   1.000  C
  C70      1.0000 0.08210  0.94410  0.39680  Biso   1.000  C
  C71      1.0000 0.77100  0.94140  0.49340  Biso   1.000  C
  C72      1.0000 0.68820  0.24160  0.37590  Biso   1.000  C
  C73      1.0000 0.67440  0.20660  0.42250  Biso   1.000  C
  C74      1.0000 0.62100  0.15850  0.42870  Biso   1.000  C
  C75      1.0000 0.71260  0.29850  0.36630  Biso   1.000  C
  C76      1.0000 0.56750  0.14060  0.47550  Biso   1.000  C
  C77      1.0000 0.45490  0.95280  0.30620  Biso   1.000  C
  C78      1.0000 0.39630  0.96390  0.35140  Biso   1.000  C
  Mn19     1.0000 0.82973  0.50487  0.67733  Biso   1.000  Mn
  Mn20     1.0000 0.71820  0.37768  0.67888  Biso   1.000  Mn
  Mn21     1.0000 0.63109  0.49007  0.61174  Biso   1.000  Mn
  O37      1.0000 0.71040  0.46180  0.68810  Biso   1.000  O
  O38      1.0000 0.95080  0.54340  0.66820  Biso   1.000  O
  O39      1.0000 0.77280  0.53010  0.60650  Biso   1.000  O
  O40      1.0000 0.72620  0.29360  0.67430  Biso   1.000  O
  O41      1.0000 0.64690  0.39070  0.60960  Biso   1.000  O
  O42      1.0000 0.54460  0.51200  0.68870  Biso   1.000  O
  N25      1.0000 0.87650  0.40720  0.64870  Biso   1.000  N
  N26      1.0000 0.92280  0.39120  0.60760  Biso   1.000  N
  N27      1.0000 0.97160  0.37640  0.56750  Biso   1.000  N
  N28      1.0000 0.55220  0.50930  0.53570  Biso   1.000  N
  C79      1.0000 0.12270  0.33180  0.77150  Biso   1.000  C
  C80      1.0000 0.98970  0.57070  0.61470  Biso   1.000  C
  C81      1.0000 0.92640  0.55730  0.56470  Biso   1.000  C
  C82      1.0000 0.81340  0.56750  0.55990  Biso   1.000  C
  C83      1.0000 0.08210  0.55590  0.60320  Biso   1.000  C
  C84      1.0000 0.77100  0.55860  0.50660  Biso   1.000  C
  C85      1.0000 0.68820  0.25840  0.62410  Biso   1.000  C
  C86      1.0000 0.67440  0.29340  0.57750  Biso   1.000  C
  C87      1.0000 0.62100  0.34150  0.57130  Biso   1.000  C
  C88      1.0000 0.71260  0.20150  0.63370  Biso   1.000  C
  C89      1.0000 0.56750  0.35940  0.52450  Biso   1.000  C
  C90      1.0000 0.45490  0.54720  0.69380  Biso   1.000  C
  C91      1.0000 0.39630  0.53610  0.64860  Biso   1.000  C
  Mn22     1.0000 0.17027  0.49513  0.17733  Biso   1.000  Mn
  Mn23     1.0000 0.28180  0.62232  0.17888  Biso   1.000  Mn
  Mn24     1.0000 0.36891  0.50993  0.11174  Biso   1.000  Mn
  O43      1.0000 0.28960  0.53820  0.18810  Biso   1.000  O
  O44      1.0000 0.04920  0.45660  0.16820  Biso   1.000  O
  O45      1.0000 0.22720  0.46990  0.10650  Biso   1.000  O
  O46      1.0000 0.27380  0.70640  0.17430  Biso   1.000  O
  O47      1.0000 0.35310  0.60930  0.10960  Biso   1.000  O
  O48      1.0000 0.45540  0.48800  0.18870  Biso   1.000  O
  N29      1.0000 0.12350  0.59280  0.14870  Biso   1.000  N
  N30      1.0000 0.07720  0.60880  0.10760  Biso   1.000  N
  N31      1.0000 0.02840  0.62360  0.06750  Biso   1.000  N
  N32      1.0000 0.44780  0.49070  0.03570  Biso   1.000  N
  C92      1.0000 0.87730  0.66820  0.27150  Biso   1.000  C
  C93      1.0000 0.01030  0.42930  0.11470  Biso   1.000  C
  C94      1.0000 0.07360  0.44270  0.06470  Biso   1.000  C
  C95      1.0000 0.18660  0.43250  0.05990  Biso   1.000  C
  C96      1.0000 0.91790  0.44410  0.10320  Biso   1.000  C
  C97      1.0000 0.22900  0.44140  0.00660  Biso   1.000  C
  C98      1.0000 0.31180  0.74160  0.12410  Biso   1.000  C
  C99      1.0000 0.32560  0.70660  0.07750  Biso   1.000  C
  C100     1.0000 0.37900  0.65850  0.07130  Biso   1.000  C
  C101     1.0000 0.28740  0.79850  0.13370  Biso   1.000  C
  C102     1.0000 0.43250  0.64060  0.02450  Biso   1.000  C
  C103     1.0000 0.54510  0.45280  0.19380  Biso   1.000  C
  C104     1.0000 0.60370  0.46390  0.14860  Biso   1.000  C
  Mn25     1.0000 0.92142  0.10540  0.25000  Biso   1.000  Mn
  Mn26     1.0000 0.62591  0.01044  0.25000  Biso   1.000  Mn
  Mn27     1.0000 0.02230  0.97947  0.25000  Biso   1.000  Mn
  Mn28     1.0000 0.81261  0.22937  0.25000  Biso   1.000  Mn
  O49      1.0000 0.88470  0.02310  0.25000  Biso   1.000  O
  O50      1.0000 0.79160  0.13470  0.25000  Biso   1.000  O
  O51      1.0000 0.04880  0.07350  0.25000  Biso   1.000  O
  O52      1.0000 0.95500  0.18730  0.25000  Biso   1.000  O
  N33      1.0000 0.58930  0.11420  0.25000  Biso   1.000  N
  N34      1.0000 0.51440  0.13420  0.25000  Biso   1.000  N
  N35      1.0000 0.42700  0.15140  0.25000  Biso   1.000  N
  N36      1.0000 0.14130  0.92210  0.25000  Biso   1.000  N
  N37      1.0000 0.16090  0.87310  0.25000  Biso   1.000  N
  N38      1.0000 0.81070  0.32270  0.25000  Biso   1.000  N
  C105     1.0000 0.14350  0.10850  0.25000  Biso   1.000  C
  C106     1.0000 0.04730  0.21030  0.25000  Biso   1.000  C
  C107     1.0000 0.21370  0.07350  0.25000  Biso   1.000  C
  C108     1.0000 0.05140  0.27070  0.25000  Biso   1.000  C
  C109     1.0000 0.40970  0.97740  0.25000  Biso   1.000  C
  Mn29     1.0000 0.07858  0.89460  0.75000  Biso   1.000  Mn
  Mn30     1.0000 0.37409  0.98956  0.75000  Biso   1.000  Mn
  Mn31     1.0000 0.97770  0.02053  0.75000  Biso   1.000  Mn
  Mn32     1.0000 0.18739  0.77063  0.75000  Biso   1.000  Mn
  O53      1.0000 0.11530  0.97690  0.75000  Biso   1.000  O
  O54      1.0000 0.20840  0.86530  0.75000  Biso   1.000  O
  O55      1.0000 0.95120  0.92650  0.75000  Biso   1.000  O
  O56      1.0000 0.04500  0.81270  0.75000  Biso   1.000  O
  N39      1.0000 0.41070  0.88580  0.75000  Biso   1.000  N
  N40      1.0000 0.48560  0.86580  0.75000  Biso   1.000  N
  N41      1.0000 0.57300  0.84860  0.75000  Biso   1.000  N
  N42      1.0000 0.85870  0.07790  0.75000  Biso   1.000  N
  N43      1.0000 0.83910  0.12690  0.75000  Biso   1.000  N
  N44      1.0000 0.18930  0.67730  0.75000  Biso   1.000  N
  C110     1.0000 0.85650  0.89150  0.75000  Biso   1.000  C
  C111     1.0000 0.95270  0.78970  0.75000  Biso   1.000  C
  C112     1.0000 0.78630  0.92650  0.75000  Biso   1.000  C
  C113     1.0000 0.94860  0.72930  0.75000  Biso   1.000  C
  C114     1.0000 0.59030  0.02260  0.75000  Biso   1.000  C
  Mn33     1.0000 0.07858  0.60540  0.25000  Biso   1.000  Mn
  Mn34     1.0000 0.37409  0.51044  0.25000  Biso   1.000  Mn
  Mn35     1.0000 0.97770  0.47947  0.25000  Biso   1.000  Mn
  Mn36     1.0000 0.18739  0.72937  0.25000  Biso   1.000  Mn
  O57      1.0000 0.11530  0.52310  0.25000  Biso   1.000  O
  O58      1.0000 0.20840  0.63470  0.25000  Biso   1.000  O
  O59      1.0000 0.95120  0.57350  0.25000  Biso   1.000  O
  O60      1.0000 0.04500  0.68730  0.25000  Biso   1.000  O
  N45      1.0000 0.41070  0.61420  0.25000  Biso   1.000  N
  N46      1.0000 0.48560  0.63420  0.25000  Biso   1.000  N
  N47      1.0000 0.57300  0.65140  0.25000  Biso   1.000  N
  N48      1.0000 0.85870  0.42210  0.25000  Biso   1.000  N
  N49      1.0000 0.83910  0.37310  0.25000  Biso   1.000  N
  N50      1.0000 0.18930  0.82270  0.25000  Biso   1.000  N
  C115     1.0000 0.85650  0.60850  0.25000  Biso   1.000  C
  C116     1.0000 0.95270  0.71030  0.25000  Biso   1.000  C
  C117     1.0000 0.78630  0.57350  0.25000  Biso   1.000  C
  C118     1.0000 0.94860  0.77070  0.25000  Biso   1.000  C
  C119     1.0000 0.59030  0.47740  0.25000  Biso   1.000  C
  Mn37     1.0000 0.92142  0.39460  0.75000  Biso   1.000  Mn
  Mn38     1.0000 0.62591  0.48956  0.75000  Biso   1.000  Mn
  Mn39     1.0000 0.02230  0.52053  0.75000  Biso   1.000  Mn
  Mn40     1.0000 0.81261  0.27063  0.75000  Biso   1.000  Mn
  O61      1.0000 0.88470  0.47690  0.75000  Biso   1.000  O
  O62      1.0000 0.79160  0.36530  0.75000  Biso   1.000  O
  O63      1.0000 0.04880  0.42650  0.75000  Biso   1.000  O
  O64      1.0000 0.95500  0.31270  0.75000  Biso   1.000  O
  N51      1.0000 0.58930  0.38580  0.75000  Biso   1.000  N
  N52      1.0000 0.51440  0.36580  0.75000  Biso   1.000  N
  N53      1.0000 0.42700  0.34860  0.75000  Biso   1.000  N
  N54      1.0000 0.14130  0.57790  0.75000  Biso   1.000  N
  N55      1.0000 0.16090  0.62690  0.75000  Biso   1.000  N
  N56      1.0000 0.81070  0.17730  0.75000  Biso   1.000  N
  C120     1.0000 0.14350  0.39150  0.75000  Biso   1.000  C
  C121     1.0000 0.04730  0.28970  0.75000  Biso   1.000  C
  C122     1.0000 0.21370  0.42650  0.75000  Biso   1.000  C
  C123     1.0000 0.05140  0.22930  0.75000  Biso   1.000  C
  C124     1.0000 0.40970  0.52260  0.75000  Biso   1.000  C
  N57      1.0000 0.50000  0.00000  0.00000  Biso   1.000  N
  N58      1.0000 0.50000  0.00000  0.50000  Biso   1.000  N
  N59      1.0000 0.50000  0.50000  0.50000  Biso   1.000  N
  N60      1.0000 0.50000  0.50000  0.00000  Biso   1.000  N
