data_image0
_cell_length_a       6.9117
_cell_length_b       34.4333
_cell_length_c       13.1416
_cell_angle_alpha    90
_cell_angle_beta     90
_cell_angle_gamma    90

_symmetry_space_group_name_H-M    "P 1"
_symmetry_int_tables_number       1

loop_
  _symmetry_equiv_pos_as_xyz
  'x, y, z'

loop_
  _atom_site_label
  _atom_site_occupancy
  _atom_site_fract_x
  _atom_site_fract_y
  _atom_site_fract_z
  _atom_site_thermal_displace_type
  _atom_site_B_iso_or_equiv
  _atom_site_type_symbol
  Eu1      1.0000 0.12040  0.48230  0.87240  Biso   1.000  Eu
  Eu2      1.0000 0.59970  0.02140  0.63370  Biso   1.000  Eu
  N1       1.0000 0.83120  0.30440  0.14490  Biso   1.000  N
  N2       1.0000 0.51300  0.30430  0.93790  Biso   1.000  N
  O1       1.0000 0.97970  0.42970  0.97210  Biso   1.000  O
  O2       1.0000 0.87100  0.45040  0.12340  Biso   1.000  O
  O3       1.0000 0.40050  0.44610  0.88370  Biso   1.000  O
  O4       1.0000 0.56000  0.42810  0.74300  Biso   1.000  O
  O5       1.0000 0.77270  0.49810  0.79200  Biso   1.000  O
  O6       1.0000 0.80630  0.50480  0.95620  Biso   1.000  O
  C1       1.0000 0.91500  0.42460  0.05860  Biso   1.000  C
  C2       1.0000 0.88000  0.38210  0.08980  Biso   1.000  C
  C3       1.0000 0.78900  0.37260  0.17870  Biso   1.000  C
  H1       1.0000 0.74380  0.39230  0.22360  Biso   1.000  H
  C4       1.0000 0.94500  0.35250  0.02520  Biso   1.000  C
  H2       1.0000 0.00760  0.35820  0.96260  Biso   1.000  H
  C5       1.0000 0.76400  0.33320  0.20200  Biso   1.000  C
  H3       1.0000 0.69550  0.32670  0.26220  Biso   1.000  H
  C6       1.0000 0.91400  0.31440  0.05650  Biso   1.000  C
  H4       1.0000 0.95420  0.29420  0.01220  Biso   1.000  H
  C7       1.0000 0.48300  0.42230  0.83010  Biso   1.000  C
  C8       1.0000 0.50100  0.38130  0.86850  Biso   1.000  C
  C9       1.0000 0.42200  0.37080  0.96070  Biso   1.000  C
  H5       1.0000 0.35940  0.38960  0.00210  Biso   1.000  H
  C10      1.0000 0.59100  0.35270  0.81190  Biso   1.000  C
  H6       1.0000 0.64250  0.35860  0.74670  Biso   1.000  H
  C11      1.0000 0.43500  0.33210  0.99290  Biso   1.000  C
  H7       1.0000 0.38570  0.32560  0.05810  Biso   1.000  H
  C12      1.0000 0.60600  0.31520  0.85140  Biso   1.000  C
  H8       1.0000 0.68390  0.29670  0.81680  Biso   1.000  H
  C13      1.0000 0.70700  0.51320  0.87670  Biso   1.000  C
  C14      1.0000 0.58100  0.54070  0.87800  Biso   1.000  C
  C15      1.0000 0.00600  0.98530  0.62300  Biso   1.000  C
  Eu3      1.0000 0.37960  0.51770  0.37240  Biso   1.000  Eu
  Eu4      1.0000 0.90030  0.97860  0.13370  Biso   1.000  Eu
  N3       1.0000 0.66880  0.69560  0.64490  Biso   1.000  N
  N4       1.0000 0.98700  0.69570  0.43790  Biso   1.000  N
  O7       1.0000 0.52030  0.57030  0.47210  Biso   1.000  O
  O8       1.0000 0.62900  0.54960  0.62340  Biso   1.000  O
  O9       1.0000 0.09950  0.55390  0.38370  Biso   1.000  O
  O10      1.0000 0.94000  0.57190  0.24300  Biso   1.000  O
  O11      1.0000 0.72730  0.50190  0.29200  Biso   1.000  O
  O12      1.0000 0.69370  0.49520  0.45620  Biso   1.000  O
  C16      1.0000 0.58500  0.57540  0.55860  Biso   1.000  C
  C17      1.0000 0.62000  0.61790  0.58980  Biso   1.000  C
  C18      1.0000 0.71100  0.62740  0.67870  Biso   1.000  C
  H9       1.0000 0.75620  0.60770  0.72360  Biso   1.000  H
  C19      1.0000 0.55500  0.64750  0.52520  Biso   1.000  C
  H10      1.0000 0.49240  0.64180  0.46260  Biso   1.000  H
  C20      1.0000 0.73600  0.66680  0.70200  Biso   1.000  C
  H11      1.0000 0.80450  0.67330  0.76220  Biso   1.000  H
  C21      1.0000 0.58600  0.68560  0.55650  Biso   1.000  C
  H12      1.0000 0.54580  0.70580  0.51220  Biso   1.000  H
  C22      1.0000 0.01700  0.57770  0.33010  Biso   1.000  C
  C23      1.0000 0.99900  0.61870  0.36850  Biso   1.000  C
  C24      1.0000 0.07800  0.62920  0.46070  Biso   1.000  C
  H13      1.0000 0.14060  0.61040  0.50210  Biso   1.000  H
  C25      1.0000 0.90900  0.64730  0.31190  Biso   1.000  C
  H14      1.0000 0.85750  0.64140  0.24670  Biso   1.000  H
  C26      1.0000 0.06500  0.66790  0.49290  Biso   1.000  C
  H15      1.0000 0.11430  0.67440  0.55810  Biso   1.000  H
  C27      1.0000 0.89400  0.68480  0.35140  Biso   1.000  C
  H16      1.0000 0.81610  0.70330  0.31680  Biso   1.000  H
  C28      1.0000 0.79300  0.48680  0.37670  Biso   1.000  C
  C29      1.0000 0.91900  0.45930  0.37800  Biso   1.000  C
  C30      1.0000 0.49400  0.01470  0.12300  Biso   1.000  C
  Eu5      1.0000 0.87960  0.98230  0.12760  Biso   1.000  Eu
  Eu6      1.0000 0.40030  0.52140  0.36630  Biso   1.000  Eu
  N5       1.0000 0.16880  0.80440  0.85510  Biso   1.000  N
  N6       1.0000 0.48700  0.80430  0.06210  Biso   1.000  N
  O13      1.0000 0.02030  0.92970  0.02790  Biso   1.000  O
  O14      1.0000 0.12900  0.95040  0.87660  Biso   1.000  O
  O15      1.0000 0.59950  0.94610  0.11630  Biso   1.000  O
  O16      1.0000 0.44000  0.92810  0.25700  Biso   1.000  O
  O17      1.0000 0.22730  0.99810  0.20800  Biso   1.000  O
  O18      1.0000 0.19370  0.00480  0.04380  Biso   1.000  O
  C31      1.0000 0.08500  0.92460  0.94140  Biso   1.000  C
  C32      1.0000 0.12000  0.88210  0.91020  Biso   1.000  C
  C33      1.0000 0.21100  0.87260  0.82130  Biso   1.000  C
  H17      1.0000 0.25620  0.89230  0.77640  Biso   1.000  H
  C34      1.0000 0.05500  0.85250  0.97480  Biso   1.000  C
  H18      1.0000 0.99240  0.85820  0.03740  Biso   1.000  H
  C35      1.0000 0.23600  0.83320  0.79800  Biso   1.000  C
  H19      1.0000 0.30450  0.82670  0.73780  Biso   1.000  H
  C36      1.0000 0.08600  0.81440  0.94350  Biso   1.000  C
  H20      1.0000 0.04580  0.79420  0.98780  Biso   1.000  H
  C37      1.0000 0.51700  0.92230  0.16990  Biso   1.000  C
  C38      1.0000 0.49900  0.88130  0.13150  Biso   1.000  C
  C39      1.0000 0.57800  0.87080  0.03930  Biso   1.000  C
  H21      1.0000 0.64060  0.88960  0.99790  Biso   1.000  H
  C40      1.0000 0.40900  0.85270  0.18810  Biso   1.000  C
  H22      1.0000 0.35750  0.85860  0.25330  Biso   1.000  H
  C41      1.0000 0.56500  0.83210  0.00710  Biso   1.000  C
  H23      1.0000 0.61430  0.82560  0.94190  Biso   1.000  H
  C42      1.0000 0.39400  0.81520  0.14860  Biso   1.000  C
  H24      1.0000 0.31610  0.79670  0.18320  Biso   1.000  H
  C43      1.0000 0.29300  0.01320  0.12330  Biso   1.000  C
  C44      1.0000 0.41900  0.04070  0.12200  Biso   1.000  C
  C45      1.0000 0.99400  0.48530  0.37700  Biso   1.000  C
  Eu7      1.0000 0.62040  0.01770  0.62760  Biso   1.000  Eu
  Eu8      1.0000 0.09970  0.47860  0.86630  Biso   1.000  Eu
  N7       1.0000 0.33120  0.19560  0.35510  Biso   1.000  N
  N8       1.0000 0.01300  0.19570  0.56210  Biso   1.000  N
  O19      1.0000 0.47970  0.07030  0.52790  Biso   1.000  O
  O20      1.0000 0.37100  0.04960  0.37660  Biso   1.000  O
  O21      1.0000 0.90050  0.05390  0.61630  Biso   1.000  O
  O22      1.0000 0.06000  0.07190  0.75700  Biso   1.000  O
  O23      1.0000 0.27270  0.00190  0.70800  Biso   1.000  O
  O24      1.0000 0.30630  0.99520  0.54380  Biso   1.000  O
  C46      1.0000 0.41500  0.07540  0.44140  Biso   1.000  C
  C47      1.0000 0.38000  0.11790  0.41020  Biso   1.000  C
  C48      1.0000 0.28900  0.12740  0.32130  Biso   1.000  C
  H25      1.0000 0.24380  0.10770  0.27640  Biso   1.000  H
  C49      1.0000 0.44500  0.14750  0.47480  Biso   1.000  C
  H26      1.0000 0.50760  0.14180  0.53740  Biso   1.000  H
  C50      1.0000 0.26400  0.16680  0.29800  Biso   1.000  C
  H27      1.0000 0.19550  0.17330  0.23780  Biso   1.000  H
  C51      1.0000 0.41400  0.18560  0.44350  Biso   1.000  C
  H28      1.0000 0.45420  0.20580  0.48780  Biso   1.000  H
  C52      1.0000 0.98300  0.07770  0.66990  Biso   1.000  C
  C53      1.0000 0.00100  0.11870  0.63150  Biso   1.000  C
  C54      1.0000 0.92200  0.12920  0.53930  Biso   1.000  C
  H29      1.0000 0.85940  0.11040  0.49790  Biso   1.000  H
  C55      1.0000 0.09100  0.14730  0.68810  Biso   1.000  C
  H30      1.0000 0.14250  0.14140  0.75330  Biso   1.000  H
  C56      1.0000 0.93500  0.16790  0.50710  Biso   1.000  C
  H31      1.0000 0.88570  0.17440  0.44190  Biso   1.000  H
  C57      1.0000 0.10600  0.18480  0.64860  Biso   1.000  C
  H32      1.0000 0.18390  0.20330  0.68320  Biso   1.000  H
  C58      1.0000 0.20700  0.98680  0.62330  Biso   1.000  C
  C59      1.0000 0.08100  0.95930  0.62200  Biso   1.000  C
  C60      1.0000 0.50600  0.51470  0.87700  Biso   1.000  C
  Eu9      1.0000 0.87960  0.51770  0.12760  Biso   1.000  Eu
  Eu10     1.0000 0.40030  0.97860  0.36630  Biso   1.000  Eu
  N9       1.0000 0.16880  0.69560  0.85510  Biso   1.000  N
  N10      1.0000 0.48700  0.69570  0.06210  Biso   1.000  N
  O25      1.0000 0.02030  0.57030  0.02790  Biso   1.000  O
  O26      1.0000 0.12900  0.54960  0.87660  Biso   1.000  O
  O27      1.0000 0.59950  0.55390  0.11630  Biso   1.000  O
  O28      1.0000 0.44000  0.57190  0.25700  Biso   1.000  O
  O29      1.0000 0.22730  0.50190  0.20800  Biso   1.000  O
  O30      1.0000 0.19370  0.49520  0.04380  Biso   1.000  O
  C61      1.0000 0.08500  0.57540  0.94140  Biso   1.000  C
  C62      1.0000 0.12000  0.61790  0.91020  Biso   1.000  C
  C63      1.0000 0.21100  0.62740  0.82130  Biso   1.000  C
  H33      1.0000 0.25620  0.60770  0.77640  Biso   1.000  H
  C64      1.0000 0.05500  0.64750  0.97480  Biso   1.000  C
  H34      1.0000 0.99240  0.64180  0.03740  Biso   1.000  H
  C65      1.0000 0.23600  0.66680  0.79800  Biso   1.000  C
  H35      1.0000 0.30450  0.67330  0.73780  Biso   1.000  H
  C66      1.0000 0.08600  0.68560  0.94350  Biso   1.000  C
  H36      1.0000 0.04580  0.70580  0.98780  Biso   1.000  H
  C67      1.0000 0.51700  0.57770  0.16990  Biso   1.000  C
  C68      1.0000 0.49900  0.61870  0.13150  Biso   1.000  C
  C69      1.0000 0.57800  0.62920  0.03930  Biso   1.000  C
  H37      1.0000 0.64060  0.61040  0.99790  Biso   1.000  H
  C70      1.0000 0.40900  0.64730  0.18810  Biso   1.000  C
  H38      1.0000 0.35750  0.64140  0.25330  Biso   1.000  H
  C71      1.0000 0.56500  0.66790  0.00710  Biso   1.000  C
  H39      1.0000 0.61430  0.67440  0.94190  Biso   1.000  H
  C72      1.0000 0.39400  0.68480  0.14860  Biso   1.000  C
  H40      1.0000 0.31610  0.70330  0.18320  Biso   1.000  H
  C73      1.0000 0.29300  0.48680  0.12330  Biso   1.000  C
  C74      1.0000 0.41900  0.45930  0.12200  Biso   1.000  C
  C75      1.0000 0.99400  0.01470  0.37700  Biso   1.000  C
  Eu11     1.0000 0.62040  0.48230  0.62760  Biso   1.000  Eu
  Eu12     1.0000 0.09970  0.02140  0.86630  Biso   1.000  Eu
  N11      1.0000 0.33120  0.30440  0.35510  Biso   1.000  N
  N12      1.0000 0.01300  0.30430  0.56210  Biso   1.000  N
  O31      1.0000 0.47970  0.42970  0.52790  Biso   1.000  O
  O32      1.0000 0.37100  0.45040  0.37660  Biso   1.000  O
  O33      1.0000 0.90050  0.44610  0.61630  Biso   1.000  O
  O34      1.0000 0.06000  0.42810  0.75700  Biso   1.000  O
  O35      1.0000 0.27270  0.49810  0.70800  Biso   1.000  O
  O36      1.0000 0.30630  0.50480  0.54380  Biso   1.000  O
  C76      1.0000 0.41500  0.42460  0.44140  Biso   1.000  C
  C77      1.0000 0.38000  0.38210  0.41020  Biso   1.000  C
  C78      1.0000 0.28900  0.37260  0.32130  Biso   1.000  C
  H41      1.0000 0.24380  0.39230  0.27640  Biso   1.000  H
  C79      1.0000 0.44500  0.35250  0.47480  Biso   1.000  C
  H42      1.0000 0.50760  0.35820  0.53740  Biso   1.000  H
  C80      1.0000 0.26400  0.33320  0.29800  Biso   1.000  C
  H43      1.0000 0.19550  0.32670  0.23780  Biso   1.000  H
  C81      1.0000 0.41400  0.31440  0.44350  Biso   1.000  C
  H44      1.0000 0.45420  0.29420  0.48780  Biso   1.000  H
  C82      1.0000 0.98300  0.42230  0.66990  Biso   1.000  C
  C83      1.0000 0.00100  0.38130  0.63150  Biso   1.000  C
  C84      1.0000 0.92200  0.37080  0.53930  Biso   1.000  C
  H45      1.0000 0.85940  0.38960  0.49790  Biso   1.000  H
  C85      1.0000 0.09100  0.35270  0.68810  Biso   1.000  C
  H46      1.0000 0.14250  0.35860  0.75330  Biso   1.000  H
  C86      1.0000 0.93500  0.33210  0.50710  Biso   1.000  C
  H47      1.0000 0.88570  0.32560  0.44190  Biso   1.000  H
  C87      1.0000 0.10600  0.31520  0.64860  Biso   1.000  C
  H48      1.0000 0.18390  0.29670  0.68320  Biso   1.000  H
  C88      1.0000 0.20700  0.51320  0.62330  Biso   1.000  C
  C89      1.0000 0.08100  0.54070  0.62200  Biso   1.000  C
  C90      1.0000 0.50600  0.98530  0.87700  Biso   1.000  C
  Eu13     1.0000 0.12040  0.01770  0.87240  Biso   1.000  Eu
  Eu14     1.0000 0.59970  0.47860  0.63370  Biso   1.000  Eu
  N13      1.0000 0.83120  0.19560  0.14490  Biso   1.000  N
  N14      1.0000 0.51300  0.19570  0.93790  Biso   1.000  N
  O37      1.0000 0.97970  0.07030  0.97210  Biso   1.000  O
  O38      1.0000 0.87100  0.04960  0.12340  Biso   1.000  O
  O39      1.0000 0.40050  0.05390  0.88370  Biso   1.000  O
  O40      1.0000 0.56000  0.07190  0.74300  Biso   1.000  O
  O41      1.0000 0.77270  0.00190  0.79200  Biso   1.000  O
  O42      1.0000 0.80630  0.99520  0.95620  Biso   1.000  O
  C91      1.0000 0.91500  0.07540  0.05860  Biso   1.000  C
  C92      1.0000 0.88000  0.11790  0.08980  Biso   1.000  C
  C93      1.0000 0.78900  0.12740  0.17870  Biso   1.000  C
  H49      1.0000 0.74380  0.10770  0.22360  Biso   1.000  H
  C94      1.0000 0.94500  0.14750  0.02520  Biso   1.000  C
  H50      1.0000 0.00760  0.14180  0.96260  Biso   1.000  H
  C95      1.0000 0.76400  0.16680  0.20200  Biso   1.000  C
  H51      1.0000 0.69550  0.17330  0.26220  Biso   1.000  H
  C96      1.0000 0.91400  0.18560  0.05650  Biso   1.000  C
  H52      1.0000 0.95420  0.20580  0.01220  Biso   1.000  H
  C97      1.0000 0.48300  0.07770  0.83010  Biso   1.000  C
  C98      1.0000 0.50100  0.11870  0.86850  Biso   1.000  C
  C99      1.0000 0.42200  0.12920  0.96070  Biso   1.000  C
  H53      1.0000 0.35940  0.11040  0.00210  Biso   1.000  H
  C100     1.0000 0.59100  0.14730  0.81190  Biso   1.000  C
  H54      1.0000 0.64250  0.14140  0.74670  Biso   1.000  H
  C101     1.0000 0.43500  0.16790  0.99290  Biso   1.000  C
  H55      1.0000 0.38570  0.17440  0.05810  Biso   1.000  H
  C102     1.0000 0.60600  0.18480  0.85140  Biso   1.000  C
  H56      1.0000 0.68390  0.20330  0.81680  Biso   1.000  H
  C103     1.0000 0.70700  0.98680  0.87670  Biso   1.000  C
  C104     1.0000 0.58100  0.95930  0.87800  Biso   1.000  C
  C105     1.0000 0.00600  0.51470  0.62300  Biso   1.000  C
  Eu15     1.0000 0.37960  0.98230  0.37240  Biso   1.000  Eu
  Eu16     1.0000 0.90030  0.52140  0.13370  Biso   1.000  Eu
  N15      1.0000 0.66880  0.80440  0.64490  Biso   1.000  N
  N16      1.0000 0.98700  0.80430  0.43790  Biso   1.000  N
  O43      1.0000 0.52030  0.92970  0.47210  Biso   1.000  O
  O44      1.0000 0.62900  0.95040  0.62340  Biso   1.000  O
  O45      1.0000 0.09950  0.94610  0.38370  Biso   1.000  O
  O46      1.0000 0.94000  0.92810  0.24300  Biso   1.000  O
  O47      1.0000 0.72730  0.99810  0.29200  Biso   1.000  O
  O48      1.0000 0.69370  0.00480  0.45620  Biso   1.000  O
  C106     1.0000 0.58500  0.92460  0.55860  Biso   1.000  C
  C107     1.0000 0.62000  0.88210  0.58980  Biso   1.000  C
  C108     1.0000 0.71100  0.87260  0.67870  Biso   1.000  C
  H57      1.0000 0.75620  0.89230  0.72360  Biso   1.000  H
  C109     1.0000 0.55500  0.85250  0.52520  Biso   1.000  C
  H58      1.0000 0.49240  0.85820  0.46260  Biso   1.000  H
  C110     1.0000 0.73600  0.83320  0.70200  Biso   1.000  C
  H59      1.0000 0.80450  0.82670  0.76220  Biso   1.000  H
  C111     1.0000 0.58600  0.81440  0.55650  Biso   1.000  C
  H60      1.0000 0.54580  0.79420  0.51220  Biso   1.000  H
  C112     1.0000 0.01700  0.92230  0.33010  Biso   1.000  C
  C113     1.0000 0.99900  0.88130  0.36850  Biso   1.000  C
  C114     1.0000 0.07800  0.87080  0.46070  Biso   1.000  C
  H61      1.0000 0.14060  0.88960  0.50210  Biso   1.000  H
  C115     1.0000 0.90900  0.85270  0.31190  Biso   1.000  C
  H62      1.0000 0.85750  0.85860  0.24670  Biso   1.000  H
  C116     1.0000 0.06500  0.83210  0.49290  Biso   1.000  C
  H63      1.0000 0.11430  0.82560  0.55810  Biso   1.000  H
  C117     1.0000 0.89400  0.81520  0.35140  Biso   1.000  C
  H64      1.0000 0.81610  0.79670  0.31680  Biso   1.000  H
  C118     1.0000 0.79300  0.01320  0.37670  Biso   1.000  C
  C119     1.0000 0.91900  0.04070  0.37800  Biso   1.000  C
  C120     1.0000 0.49400  0.48530  0.12300  Biso   1.000  C
  Cu1      1.0000 0.48400  0.25000  0.97530  Biso   1.000  Cu
  Cu2      1.0000 0.31220  0.25000  0.31850  Biso   1.000  Cu
  Cl1      1.0000 0.31200  0.25000  0.13620  Biso   1.000  Cl
  Cu3      1.0000 0.01600  0.75000  0.47530  Biso   1.000  Cu
  Cu4      1.0000 0.18780  0.75000  0.81850  Biso   1.000  Cu
  Cl2      1.0000 0.18800  0.75000  0.63620  Biso   1.000  Cl
  Cu5      1.0000 0.51600  0.75000  0.02470  Biso   1.000  Cu
  Cu6      1.0000 0.68780  0.75000  0.68150  Biso   1.000  Cu
  Cl3      1.0000 0.68800  0.75000  0.86380  Biso   1.000  Cl
  Cu7      1.0000 0.98400  0.25000  0.52470  Biso   1.000  Cu
  Cu8      1.0000 0.81220  0.25000  0.18150  Biso   1.000  Cu
  Cl4      1.0000 0.81200  0.25000  0.36380  Biso   1.000  Cl
