data_image0
_cell_length_a       6.8838
_cell_length_b       34.346
_cell_length_c       13.0916
_cell_angle_alpha    90
_cell_angle_beta     90
_cell_angle_gamma    90

_symmetry_space_group_name_H-M    "P 1"
_symmetry_int_tables_number       1

loop_
  _symmetry_equiv_pos_as_xyz
  'x, y, z'

loop_
  _atom_site_label
  _atom_site_occupancy
  _atom_site_fract_x
  _atom_site_fract_y
  _atom_site_fract_z
  _atom_site_thermal_displace_type
  _atom_site_B_iso_or_equiv
  _atom_site_type_symbol
  Gd1      1.0000 0.09660  0.51973  0.86860  Biso   1.000  Gd
  Gd2      1.0000 0.15010  0.51790  0.87300  Biso   1.000  Gd
  N1       1.0000 0.51500  0.69570  0.93760  Biso   1.000  N
  N2       1.0000 0.82830  0.69530  0.14350  Biso   1.000  N
  O1       1.0000 0.39780  0.55360  0.88400  Biso   1.000  O
  O2       1.0000 0.55850  0.57150  0.74290  Biso   1.000  O
  O3       1.0000 0.97600  0.57020  0.97030  Biso   1.000  O
  O4       1.0000 0.86950  0.55011  0.12340  Biso   1.000  O
  O5       1.0000 0.77140  0.50128  0.79090  Biso   1.000  O
  O6       1.0000 0.80850  0.49450  0.95550  Biso   1.000  O
  C1       1.0000 0.43670  0.66790  0.99400  Biso   1.000  C
  H1       1.0000 0.38850  0.67420  0.05830  Biso   1.000  H
  C2       1.0000 0.42370  0.62940  0.96050  Biso   1.000  C
  H2       1.0000 0.35990  0.61090  0.00010  Biso   1.000  H
  C3       1.0000 0.50400  0.61900  0.87040  Biso   1.000  C
  C4       1.0000 0.48380  0.57810  0.82980  Biso   1.000  C
  C5       1.0000 0.59500  0.64720  0.81340  Biso   1.000  C
  H3       1.0000 0.65190  0.64090  0.75110  Biso   1.000  H
  C6       1.0000 0.60000  0.68550  0.85000  Biso   1.000  C
  H4       1.0000 0.66480  0.70440  0.81210  Biso   1.000  H
  C7       1.0000 0.76680  0.66630  0.20300  Biso   1.000  C
  H5       1.0000 0.70550  0.67280  0.26390  Biso   1.000  H
  C8       1.0000 0.78800  0.62750  0.18010  Biso   1.000  C
  H6       1.0000 0.74410  0.60840  0.22490  Biso   1.000  H
  C9       1.0000 0.87620  0.61750  0.08900  Biso   1.000  C
  C10      1.0000 0.90820  0.57560  0.05800  Biso   1.000  C
  C11      1.0000 0.94150  0.64690  0.02590  Biso   1.000  C
  H7       1.0000 0.00210  0.64100  0.96430  Biso   1.000  H
  C12      1.0000 0.91540  0.68510  0.05580  Biso   1.000  C
  H8       1.0000 0.96040  0.70470  0.01290  Biso   1.000  H
  C13      1.0000 0.70700  0.48560  0.87540  Biso   1.000  C
  C14      1.0000 0.51500  0.48430  0.87900  Biso   1.000  C
  C15      1.0000 0.57200  0.45760  0.87500  Biso   1.000  C
  Gd3      1.0000 0.40340  0.48027  0.36860  Biso   1.000  Gd
  Gd4      1.0000 0.34990  0.48210  0.37300  Biso   1.000  Gd
  N3       1.0000 0.98500  0.30430  0.43760  Biso   1.000  N
  N4       1.0000 0.67170  0.30470  0.64350  Biso   1.000  N
  O7       1.0000 0.10220  0.44640  0.38400  Biso   1.000  O
  O8       1.0000 0.94150  0.42850  0.24290  Biso   1.000  O
  O9       1.0000 0.52400  0.42980  0.47030  Biso   1.000  O
  O10      1.0000 0.63050  0.44989  0.62340  Biso   1.000  O
  O11      1.0000 0.72860  0.49872  0.29090  Biso   1.000  O
  O12      1.0000 0.69150  0.50550  0.45550  Biso   1.000  O
  C16      1.0000 0.06330  0.33210  0.49400  Biso   1.000  C
  H9       1.0000 0.11150  0.32580  0.55830  Biso   1.000  H
  C17      1.0000 0.07630  0.37060  0.46050  Biso   1.000  C
  H10      1.0000 0.14010  0.38910  0.50010  Biso   1.000  H
  C18      1.0000 0.99600  0.38100  0.37040  Biso   1.000  C
  C19      1.0000 0.01620  0.42190  0.32980  Biso   1.000  C
  C20      1.0000 0.90500  0.35280  0.31340  Biso   1.000  C
  H11      1.0000 0.84810  0.35910  0.25110  Biso   1.000  H
  C21      1.0000 0.90000  0.31450  0.35000  Biso   1.000  C
  H12      1.0000 0.83520  0.29560  0.31210  Biso   1.000  H
  C22      1.0000 0.73320  0.33370  0.70300  Biso   1.000  C
  H13      1.0000 0.79450  0.32720  0.76390  Biso   1.000  H
  C23      1.0000 0.71200  0.37250  0.68010  Biso   1.000  C
  H14      1.0000 0.75590  0.39160  0.72490  Biso   1.000  H
  C24      1.0000 0.62380  0.38250  0.58900  Biso   1.000  C
  C25      1.0000 0.59180  0.42440  0.55800  Biso   1.000  C
  C26      1.0000 0.55850  0.35310  0.52590  Biso   1.000  C
  H15      1.0000 0.49790  0.35900  0.46430  Biso   1.000  H
  C27      1.0000 0.58460  0.31490  0.55580  Biso   1.000  C
  H16      1.0000 0.53960  0.29530  0.51290  Biso   1.000  H
  C28      1.0000 0.79300  0.51440  0.37540  Biso   1.000  C
  C29      1.0000 0.98500  0.51570  0.37900  Biso   1.000  C
  C30      1.0000 0.92800  0.54240  0.37500  Biso   1.000  C
  Gd5      1.0000 0.90340  0.01973  0.13140  Biso   1.000  Gd
  Gd6      1.0000 0.84990  0.01790  0.12700  Biso   1.000  Gd
  N5       1.0000 0.48500  0.19570  0.06240  Biso   1.000  N
  N6       1.0000 0.17170  0.19530  0.85650  Biso   1.000  N
  O13      1.0000 0.60220  0.05360  0.11600  Biso   1.000  O
  O14      1.0000 0.44150  0.07150  0.25710  Biso   1.000  O
  O15      1.0000 0.02400  0.07020  0.02970  Biso   1.000  O
  O16      1.0000 0.13050  0.05011  0.87660  Biso   1.000  O
  O17      1.0000 0.22860  0.00128  0.20910  Biso   1.000  O
  O18      1.0000 0.19150  0.99450  0.04450  Biso   1.000  O
  C31      1.0000 0.56330  0.16790  0.00600  Biso   1.000  C
  H17      1.0000 0.61150  0.17420  0.94170  Biso   1.000  H
  C32      1.0000 0.57630  0.12940  0.03950  Biso   1.000  C
  H18      1.0000 0.64010  0.11090  0.99990  Biso   1.000  H
  C33      1.0000 0.49600  0.11900  0.12960  Biso   1.000  C
  C34      1.0000 0.51620  0.07810  0.17020  Biso   1.000  C
  C35      1.0000 0.40500  0.14720  0.18660  Biso   1.000  C
  H19      1.0000 0.34810  0.14090  0.24890  Biso   1.000  H
  C36      1.0000 0.40000  0.18550  0.15000  Biso   1.000  C
  H20      1.0000 0.33520  0.20440  0.18790  Biso   1.000  H
  C37      1.0000 0.23320  0.16630  0.79700  Biso   1.000  C
  H21      1.0000 0.29450  0.17280  0.73610  Biso   1.000  H
  C38      1.0000 0.21200  0.12750  0.81990  Biso   1.000  C
  H22      1.0000 0.25590  0.10840  0.77510  Biso   1.000  H
  C39      1.0000 0.12380  0.11750  0.91100  Biso   1.000  C
  C40      1.0000 0.09180  0.07560  0.94200  Biso   1.000  C
  C41      1.0000 0.05850  0.14690  0.97410  Biso   1.000  C
  H23      1.0000 0.99790  0.14100  0.03570  Biso   1.000  H
  C42      1.0000 0.08460  0.18510  0.94420  Biso   1.000  C
  H24      1.0000 0.03960  0.20470  0.98710  Biso   1.000  H
  C43      1.0000 0.29300  0.98560  0.12460  Biso   1.000  C
  C44      1.0000 0.48500  0.98430  0.12100  Biso   1.000  C
  C45      1.0000 0.42800  0.95760  0.12500  Biso   1.000  C
  Gd7      1.0000 0.59660  0.98027  0.63140  Biso   1.000  Gd
  Gd8      1.0000 0.65010  0.98210  0.62700  Biso   1.000  Gd
  N7       1.0000 0.01500  0.80430  0.56240  Biso   1.000  N
  N8       1.0000 0.32830  0.80470  0.35650  Biso   1.000  N
  O19      1.0000 0.89780  0.94640  0.61600  Biso   1.000  O
  O20      1.0000 0.05850  0.92850  0.75710  Biso   1.000  O
  O21      1.0000 0.47600  0.92980  0.52970  Biso   1.000  O
  O22      1.0000 0.36950  0.94989  0.37660  Biso   1.000  O
  O23      1.0000 0.27140  0.99872  0.70910  Biso   1.000  O
  O24      1.0000 0.30850  0.00550  0.54450  Biso   1.000  O
  C46      1.0000 0.93670  0.83210  0.50600  Biso   1.000  C
  H25      1.0000 0.88850  0.82580  0.44170  Biso   1.000  H
  C47      1.0000 0.92370  0.87060  0.53950  Biso   1.000  C
  H26      1.0000 0.85990  0.88910  0.49990  Biso   1.000  H
  C48      1.0000 0.00400  0.88100  0.62960  Biso   1.000  C
  C49      1.0000 0.98380  0.92190  0.67020  Biso   1.000  C
  C50      1.0000 0.09500  0.85280  0.68660  Biso   1.000  C
  H27      1.0000 0.15190  0.85910  0.74890  Biso   1.000  H
  C51      1.0000 0.10000  0.81450  0.65000  Biso   1.000  C
  H28      1.0000 0.16480  0.79560  0.68790  Biso   1.000  H
  C52      1.0000 0.26680  0.83370  0.29700  Biso   1.000  C
  H29      1.0000 0.20550  0.82720  0.23610  Biso   1.000  H
  C53      1.0000 0.28800  0.87250  0.31990  Biso   1.000  C
  H30      1.0000 0.24410  0.89160  0.27510  Biso   1.000  H
  C54      1.0000 0.37620  0.88250  0.41100  Biso   1.000  C
  C55      1.0000 0.40820  0.92440  0.44200  Biso   1.000  C
  C56      1.0000 0.44150  0.85310  0.47410  Biso   1.000  C
  H31      1.0000 0.50210  0.85900  0.53570  Biso   1.000  H
  C57      1.0000 0.41540  0.81490  0.44420  Biso   1.000  C
  H32      1.0000 0.46040  0.79530  0.48710  Biso   1.000  H
  C58      1.0000 0.20700  0.01440  0.62460  Biso   1.000  C
  C59      1.0000 0.01500  0.01570  0.62100  Biso   1.000  C
  C60      1.0000 0.07200  0.04240  0.62500  Biso   1.000  C
  Gd9      1.0000 0.90340  0.48027  0.13140  Biso   1.000  Gd
  Gd10     1.0000 0.84990  0.48210  0.12700  Biso   1.000  Gd
  N9       1.0000 0.48500  0.30430  0.06240  Biso   1.000  N
  N10      1.0000 0.17170  0.30470  0.85650  Biso   1.000  N
  O25      1.0000 0.60220  0.44640  0.11600  Biso   1.000  O
  O26      1.0000 0.44150  0.42850  0.25710  Biso   1.000  O
  O27      1.0000 0.02400  0.42980  0.02970  Biso   1.000  O
  O28      1.0000 0.13050  0.44989  0.87660  Biso   1.000  O
  O29      1.0000 0.22860  0.49872  0.20910  Biso   1.000  O
  O30      1.0000 0.19150  0.50550  0.04450  Biso   1.000  O
  C61      1.0000 0.56330  0.33210  0.00600  Biso   1.000  C
  H33      1.0000 0.61150  0.32580  0.94170  Biso   1.000  H
  C62      1.0000 0.57630  0.37060  0.03950  Biso   1.000  C
  H34      1.0000 0.64010  0.38910  0.99990  Biso   1.000  H
  C63      1.0000 0.49600  0.38100  0.12960  Biso   1.000  C
  C64      1.0000 0.51620  0.42190  0.17020  Biso   1.000  C
  C65      1.0000 0.40500  0.35280  0.18660  Biso   1.000  C
  H35      1.0000 0.34810  0.35910  0.24890  Biso   1.000  H
  C66      1.0000 0.40000  0.31450  0.15000  Biso   1.000  C
  H36      1.0000 0.33520  0.29560  0.18790  Biso   1.000  H
  C67      1.0000 0.23320  0.33370  0.79700  Biso   1.000  C
  H37      1.0000 0.29450  0.32720  0.73610  Biso   1.000  H
  C68      1.0000 0.21200  0.37250  0.81990  Biso   1.000  C
  H38      1.0000 0.25590  0.39160  0.77510  Biso   1.000  H
  C69      1.0000 0.12380  0.38250  0.91100  Biso   1.000  C
  C70      1.0000 0.09180  0.42440  0.94200  Biso   1.000  C
  C71      1.0000 0.05850  0.35310  0.97410  Biso   1.000  C
  H39      1.0000 0.99790  0.35900  0.03570  Biso   1.000  H
  C72      1.0000 0.08460  0.31490  0.94420  Biso   1.000  C
  H40      1.0000 0.03960  0.29530  0.98710  Biso   1.000  H
  C73      1.0000 0.29300  0.51440  0.12460  Biso   1.000  C
  C74      1.0000 0.48500  0.51570  0.12100  Biso   1.000  C
  C75      1.0000 0.42800  0.54240  0.12500  Biso   1.000  C
  Gd11     1.0000 0.59660  0.51973  0.63140  Biso   1.000  Gd
  Gd12     1.0000 0.65010  0.51790  0.62700  Biso   1.000  Gd
  N11      1.0000 0.01500  0.69570  0.56240  Biso   1.000  N
  N12      1.0000 0.32830  0.69530  0.35650  Biso   1.000  N
  O31      1.0000 0.89780  0.55360  0.61600  Biso   1.000  O
  O32      1.0000 0.05850  0.57150  0.75710  Biso   1.000  O
  O33      1.0000 0.47600  0.57020  0.52970  Biso   1.000  O
  O34      1.0000 0.36950  0.55011  0.37660  Biso   1.000  O
  O35      1.0000 0.27140  0.50128  0.70910  Biso   1.000  O
  O36      1.0000 0.30850  0.49450  0.54450  Biso   1.000  O
  C76      1.0000 0.93670  0.66790  0.50600  Biso   1.000  C
  H41      1.0000 0.88850  0.67420  0.44170  Biso   1.000  H
  C77      1.0000 0.92370  0.62940  0.53950  Biso   1.000  C
  H42      1.0000 0.85990  0.61090  0.49990  Biso   1.000  H
  C78      1.0000 0.00400  0.61900  0.62960  Biso   1.000  C
  C79      1.0000 0.98380  0.57810  0.67020  Biso   1.000  C
  C80      1.0000 0.09500  0.64720  0.68660  Biso   1.000  C
  H43      1.0000 0.15190  0.64090  0.74890  Biso   1.000  H
  C81      1.0000 0.10000  0.68550  0.65000  Biso   1.000  C
  H44      1.0000 0.16480  0.70440  0.68790  Biso   1.000  H
  C82      1.0000 0.26680  0.66630  0.29700  Biso   1.000  C
  H45      1.0000 0.20550  0.67280  0.23610  Biso   1.000  H
  C83      1.0000 0.28800  0.62750  0.31990  Biso   1.000  C
  H46      1.0000 0.24410  0.60840  0.27510  Biso   1.000  H
  C84      1.0000 0.37620  0.61750  0.41100  Biso   1.000  C
  C85      1.0000 0.40820  0.57560  0.44200  Biso   1.000  C
  C86      1.0000 0.44150  0.64690  0.47410  Biso   1.000  C
  H47      1.0000 0.50210  0.64100  0.53570  Biso   1.000  H
  C87      1.0000 0.41540  0.68510  0.44420  Biso   1.000  C
  H48      1.0000 0.46040  0.70470  0.48710  Biso   1.000  H
  C88      1.0000 0.20700  0.48560  0.62460  Biso   1.000  C
  C89      1.0000 0.01500  0.48430  0.62100  Biso   1.000  C
  C90      1.0000 0.07200  0.45760  0.62500  Biso   1.000  C
  Gd13     1.0000 0.09660  0.98027  0.86860  Biso   1.000  Gd
  Gd14     1.0000 0.15010  0.98210  0.87300  Biso   1.000  Gd
  N13      1.0000 0.51500  0.80430  0.93760  Biso   1.000  N
  N14      1.0000 0.82830  0.80470  0.14350  Biso   1.000  N
  O37      1.0000 0.39780  0.94640  0.88400  Biso   1.000  O
  O38      1.0000 0.55850  0.92850  0.74290  Biso   1.000  O
  O39      1.0000 0.97600  0.92980  0.97030  Biso   1.000  O
  O40      1.0000 0.86950  0.94989  0.12340  Biso   1.000  O
  O41      1.0000 0.77140  0.99872  0.79090  Biso   1.000  O
  O42      1.0000 0.80850  0.00550  0.95550  Biso   1.000  O
  C91      1.0000 0.43670  0.83210  0.99400  Biso   1.000  C
  H49      1.0000 0.38850  0.82580  0.05830  Biso   1.000  H
  C92      1.0000 0.42370  0.87060  0.96050  Biso   1.000  C
  H50      1.0000 0.35990  0.88910  0.00010  Biso   1.000  H
  C93      1.0000 0.50400  0.88100  0.87040  Biso   1.000  C
  C94      1.0000 0.48380  0.92190  0.82980  Biso   1.000  C
  C95      1.0000 0.59500  0.85280  0.81340  Biso   1.000  C
  H51      1.0000 0.65190  0.85910  0.75110  Biso   1.000  H
  C96      1.0000 0.60000  0.81450  0.85000  Biso   1.000  C
  H52      1.0000 0.66480  0.79560  0.81210  Biso   1.000  H
  C97      1.0000 0.76680  0.83370  0.20300  Biso   1.000  C
  H53      1.0000 0.70550  0.82720  0.26390  Biso   1.000  H
  C98      1.0000 0.78800  0.87250  0.18010  Biso   1.000  C
  H54      1.0000 0.74410  0.89160  0.22490  Biso   1.000  H
  C99      1.0000 0.87620  0.88250  0.08900  Biso   1.000  C
  C100     1.0000 0.90820  0.92440  0.05800  Biso   1.000  C
  C101     1.0000 0.94150  0.85310  0.02590  Biso   1.000  C
  H55      1.0000 0.00210  0.85900  0.96430  Biso   1.000  H
  C102     1.0000 0.91540  0.81490  0.05580  Biso   1.000  C
  H56      1.0000 0.96040  0.79530  0.01290  Biso   1.000  H
  C103     1.0000 0.70700  0.01440  0.87540  Biso   1.000  C
  C104     1.0000 0.51500  0.01570  0.87900  Biso   1.000  C
  C105     1.0000 0.57200  0.04240  0.87500  Biso   1.000  C
  Gd15     1.0000 0.40340  0.01973  0.36860  Biso   1.000  Gd
  Gd16     1.0000 0.34990  0.01790  0.37300  Biso   1.000  Gd
  N15      1.0000 0.98500  0.19570  0.43760  Biso   1.000  N
  N16      1.0000 0.67170  0.19530  0.64350  Biso   1.000  N
  O43      1.0000 0.10220  0.05360  0.38400  Biso   1.000  O
  O44      1.0000 0.94150  0.07150  0.24290  Biso   1.000  O
  O45      1.0000 0.52400  0.07020  0.47030  Biso   1.000  O
  O46      1.0000 0.63050  0.05011  0.62340  Biso   1.000  O
  O47      1.0000 0.72860  0.00128  0.29090  Biso   1.000  O
  O48      1.0000 0.69150  0.99450  0.45550  Biso   1.000  O
  C106     1.0000 0.06330  0.16790  0.49400  Biso   1.000  C
  H57      1.0000 0.11150  0.17420  0.55830  Biso   1.000  H
  C107     1.0000 0.07630  0.12940  0.46050  Biso   1.000  C
  H58      1.0000 0.14010  0.11090  0.50010  Biso   1.000  H
  C108     1.0000 0.99600  0.11900  0.37040  Biso   1.000  C
  C109     1.0000 0.01620  0.07810  0.32980  Biso   1.000  C
  C110     1.0000 0.90500  0.14720  0.31340  Biso   1.000  C
  H59      1.0000 0.84810  0.14090  0.25110  Biso   1.000  H
  C111     1.0000 0.90000  0.18550  0.35000  Biso   1.000  C
  H60      1.0000 0.83520  0.20440  0.31210  Biso   1.000  H
  C112     1.0000 0.73320  0.16630  0.70300  Biso   1.000  C
  H61      1.0000 0.79450  0.17280  0.76390  Biso   1.000  H
  C113     1.0000 0.71200  0.12750  0.68010  Biso   1.000  C
  H62      1.0000 0.75590  0.10840  0.72490  Biso   1.000  H
  C114     1.0000 0.62380  0.11750  0.58900  Biso   1.000  C
  C115     1.0000 0.59180  0.07560  0.55800  Biso   1.000  C
  C116     1.0000 0.55850  0.14690  0.52590  Biso   1.000  C
  H63      1.0000 0.49790  0.14100  0.46430  Biso   1.000  H
  C117     1.0000 0.58460  0.18510  0.55580  Biso   1.000  C
  H64      1.0000 0.53960  0.20470  0.51290  Biso   1.000  H
  C118     1.0000 0.79300  0.98560  0.37540  Biso   1.000  C
  C119     1.0000 0.98500  0.98430  0.37900  Biso   1.000  C
  C120     1.0000 0.92800  0.95760  0.37500  Biso   1.000  C
  Cu1      1.0000 0.48350  0.75000  0.97540  Biso   1.000  Cu
  Cu2      1.0000 0.31460  0.75000  0.31907  Biso   1.000  Cu
  Cl1      1.0000 0.26620  0.75000  0.13000  Biso   1.000  Cl
  Cl2      1.0000 0.37880  0.75000  0.14530  Biso   1.000  Cl
  Cu3      1.0000 0.01650  0.25000  0.47540  Biso   1.000  Cu
  Cu4      1.0000 0.18540  0.25000  0.81907  Biso   1.000  Cu
  Cl3      1.0000 0.23380  0.25000  0.63000  Biso   1.000  Cl
  Cl4      1.0000 0.12120  0.25000  0.64530  Biso   1.000  Cl
  Cu5      1.0000 0.51650  0.25000  0.02460  Biso   1.000  Cu
  Cu6      1.0000 0.68540  0.25000  0.68093  Biso   1.000  Cu
  Cl5      1.0000 0.73380  0.25000  0.87000  Biso   1.000  Cl
  Cl6      1.0000 0.62120  0.25000  0.85470  Biso   1.000  Cl
  Cu7      1.0000 0.98350  0.75000  0.52460  Biso   1.000  Cu
  Cu8      1.0000 0.81460  0.75000  0.18093  Biso   1.000  Cu
  Cl7      1.0000 0.76620  0.75000  0.37000  Biso   1.000  Cl
  Cl8      1.0000 0.87880  0.75000  0.35470  Biso   1.000  Cl
