data_image0
_cell_length_a       10.092
_cell_length_b       21.818
_cell_length_c       6.523
_cell_angle_alpha    90
_cell_angle_beta     90
_cell_angle_gamma    90

_symmetry_space_group_name_H-M    "P 1"
_symmetry_int_tables_number       1

loop_
  _symmetry_equiv_pos_as_xyz
  'x, y, z'

loop_
  _atom_site_label
  _atom_site_occupancy
  _atom_site_fract_x
  _atom_site_fract_y
  _atom_site_fract_z
  _atom_site_thermal_displace_type
  _atom_site_B_iso_or_equiv
  _atom_site_type_symbol
  N1       1.0000 0.98710  0.71649  0.68920  Biso   1.000  N
  H1       1.0000 0.76630  0.61490  0.62040  Biso   1.000  H
  C1       1.0000 0.84200  0.72725  0.68380  Biso   1.000  C
  H2       1.0000 0.80200  0.70930  0.80500  Biso   1.000  H
  H3       1.0000 0.82520  0.77100  0.68710  Biso   1.000  H
  C2       1.0000 0.00910  0.64909  0.68370  Biso   1.000  C
  H4       1.0000 0.10360  0.64080  0.68540  Biso   1.000  H
  H5       1.0000 0.97040  0.63060  0.80490  Biso   1.000  H
  O1       1.0000 0.38400  0.65070  0.55100  Biso   1.000  O
  O2       1.0000 0.46900  0.62720  0.74100  Biso   1.000  O
  O3       1.0000 0.58900  0.35510  0.43400  Biso   1.000  O
  O4       1.0000 0.51900  0.36870  0.74400  Biso   1.000  O
  C3       1.0000 0.40500  0.61330  0.41300  Biso   1.000  C
  C4       1.0000 0.35730  0.54660  0.41300  Biso   1.000  C
  H6       1.0000 0.30950  0.53930  0.53930  Biso   1.000  H
  H7       1.0000 0.29580  0.54070  0.30010  Biso   1.000  H
  C5       1.0000 0.46760  0.49990  0.39600  Biso   1.000  C
  H8       1.0000 0.51640  0.50790  0.27040  Biso   1.000  H
  H9       1.0000 0.42890  0.45930  0.38390  Biso   1.000  H
  C6       1.0000 0.56450  0.49990  0.57500  Biso   1.000  C
  H10      1.0000 0.51520  0.49880  0.70290  Biso   1.000  H
  H11      1.0000 0.61560  0.53760  0.57280  Biso   1.000  H
  C7       1.0000 0.65890  0.44540  0.56700  Biso   1.000  C
  H12      1.0000 0.72350  0.44840  0.67650  Biso   1.000  H
  H13      1.0000 0.70610  0.44520  0.43720  Biso   1.000  H
  C8       1.0000 0.58000  0.38560  0.59100  Biso   1.000  C
  N2       1.0000 0.01290  0.28351  0.68920  Biso   1.000  N
  H14      1.0000 0.23370  0.38510  0.62040  Biso   1.000  H
  C9       1.0000 0.15800  0.27275  0.68380  Biso   1.000  C
  H15      1.0000 0.19800  0.29070  0.80500  Biso   1.000  H
  H16      1.0000 0.17480  0.22900  0.68710  Biso   1.000  H
  C10      1.0000 0.99090  0.35091  0.68370  Biso   1.000  C
  H17      1.0000 0.89640  0.35920  0.68540  Biso   1.000  H
  H18      1.0000 0.02960  0.36940  0.80490  Biso   1.000  H
  O5       1.0000 0.61600  0.34930  0.55100  Biso   1.000  O
  O6       1.0000 0.53100  0.37280  0.74100  Biso   1.000  O
  O7       1.0000 0.41100  0.64490  0.43400  Biso   1.000  O
  O8       1.0000 0.48100  0.63130  0.74400  Biso   1.000  O
  C11      1.0000 0.59500  0.38670  0.41300  Biso   1.000  C
  C12      1.0000 0.64270  0.45340  0.41300  Biso   1.000  C
  H19      1.0000 0.69050  0.46070  0.53930  Biso   1.000  H
  H20      1.0000 0.70420  0.45930  0.30010  Biso   1.000  H
  C13      1.0000 0.53240  0.50010  0.39600  Biso   1.000  C
  H21      1.0000 0.48360  0.49210  0.27040  Biso   1.000  H
  H22      1.0000 0.57110  0.54070  0.38390  Biso   1.000  H
  C14      1.0000 0.43550  0.50010  0.57500  Biso   1.000  C
  H23      1.0000 0.48480  0.50120  0.70290  Biso   1.000  H
  H24      1.0000 0.38440  0.46240  0.57280  Biso   1.000  H
  C15      1.0000 0.34110  0.55460  0.56700  Biso   1.000  C
  H25      1.0000 0.27650  0.55160  0.67650  Biso   1.000  H
  H26      1.0000 0.29390  0.55480  0.43720  Biso   1.000  H
  C16      1.0000 0.42000  0.61440  0.59100  Biso   1.000  C
  N3       1.0000 0.51290  0.21649  0.81080  Biso   1.000  N
  H27      1.0000 0.73370  0.11490  0.87960  Biso   1.000  H
  C17      1.0000 0.65800  0.22725  0.81620  Biso   1.000  C
  H28      1.0000 0.69800  0.20930  0.69500  Biso   1.000  H
  H29      1.0000 0.67480  0.27100  0.81290  Biso   1.000  H
  C18      1.0000 0.49090  0.14909  0.81630  Biso   1.000  C
  H30      1.0000 0.39640  0.14080  0.81460  Biso   1.000  H
  H31      1.0000 0.52960  0.13060  0.69510  Biso   1.000  H
  O9       1.0000 0.11600  0.15070  0.94900  Biso   1.000  O
  O10      1.0000 0.03100  0.12720  0.75900  Biso   1.000  O
  O11      1.0000 0.91100  0.85510  0.06600  Biso   1.000  O
  O12      1.0000 0.98100  0.86870  0.75600  Biso   1.000  O
  C19      1.0000 0.09500  0.11330  0.08700  Biso   1.000  C
  C20      1.0000 0.14270  0.04660  0.08700  Biso   1.000  C
  H32      1.0000 0.19050  0.03930  0.96070  Biso   1.000  H
  H33      1.0000 0.20420  0.04070  0.19990  Biso   1.000  H
  C21      1.0000 0.03240  0.99990  0.10400  Biso   1.000  C
  H34      1.0000 0.98360  0.00790  0.22960  Biso   1.000  H
  H35      1.0000 0.07110  0.95930  0.11610  Biso   1.000  H
  C22      1.0000 0.93550  0.99990  0.92500  Biso   1.000  C
  H36      1.0000 0.98480  0.99880  0.79710  Biso   1.000  H
  H37      1.0000 0.88440  0.03760  0.92720  Biso   1.000  H
  C23      1.0000 0.84110  0.94540  0.93300  Biso   1.000  C
  H38      1.0000 0.77650  0.94840  0.82350  Biso   1.000  H
  H39      1.0000 0.79390  0.94520  0.06280  Biso   1.000  H
  C24      1.0000 0.92000  0.88560  0.90900  Biso   1.000  C
  N4       1.0000 0.48710  0.78351  0.81080  Biso   1.000  N
  H40      1.0000 0.26630  0.88510  0.87960  Biso   1.000  H
  C25      1.0000 0.34200  0.77275  0.81620  Biso   1.000  C
  H41      1.0000 0.30200  0.79070  0.69500  Biso   1.000  H
  H42      1.0000 0.32520  0.72900  0.81290  Biso   1.000  H
  C26      1.0000 0.50910  0.85091  0.81630  Biso   1.000  C
  H43      1.0000 0.60360  0.85920  0.81460  Biso   1.000  H
  H44      1.0000 0.47040  0.86940  0.69510  Biso   1.000  H
  O13      1.0000 0.88400  0.84930  0.94900  Biso   1.000  O
  O14      1.0000 0.96900  0.87280  0.75900  Biso   1.000  O
  O15      1.0000 0.08900  0.14490  0.06600  Biso   1.000  O
  O16      1.0000 0.01900  0.13130  0.75600  Biso   1.000  O
  C27      1.0000 0.90500  0.88670  0.08700  Biso   1.000  C
  C28      1.0000 0.85730  0.95340  0.08700  Biso   1.000  C
  H45      1.0000 0.80950  0.96070  0.96070  Biso   1.000  H
  H46      1.0000 0.79580  0.95930  0.19990  Biso   1.000  H
  C29      1.0000 0.96760  0.00010  0.10400  Biso   1.000  C
  H47      1.0000 0.01640  0.99210  0.22960  Biso   1.000  H
  H48      1.0000 0.92890  0.04070  0.11610  Biso   1.000  H
  C30      1.0000 0.06450  0.00010  0.92500  Biso   1.000  C
  H49      1.0000 0.01520  0.00120  0.79710  Biso   1.000  H
  H50      1.0000 0.11560  0.96240  0.92720  Biso   1.000  H
  C31      1.0000 0.15890  0.05460  0.93300  Biso   1.000  C
  H51      1.0000 0.22350  0.05160  0.82350  Biso   1.000  H
  H52      1.0000 0.20610  0.05480  0.06280  Biso   1.000  H
  C32      1.0000 0.08000  0.11440  0.90900  Biso   1.000  C
  N5       1.0000 0.01290  0.28351  0.31080  Biso   1.000  N
  H53      1.0000 0.23370  0.38510  0.37960  Biso   1.000  H
  C33      1.0000 0.15800  0.27275  0.31620  Biso   1.000  C
  H54      1.0000 0.19800  0.29070  0.19500  Biso   1.000  H
  H55      1.0000 0.17480  0.22900  0.31290  Biso   1.000  H
  C34      1.0000 0.99090  0.35091  0.31630  Biso   1.000  C
  H56      1.0000 0.89640  0.35920  0.31460  Biso   1.000  H
  H57      1.0000 0.02960  0.36940  0.19510  Biso   1.000  H
  O17      1.0000 0.61600  0.34930  0.44900  Biso   1.000  O
  O18      1.0000 0.53100  0.37280  0.25900  Biso   1.000  O
  O19      1.0000 0.41100  0.64490  0.56600  Biso   1.000  O
  O20      1.0000 0.48100  0.63130  0.25600  Biso   1.000  O
  C35      1.0000 0.59500  0.38670  0.58700  Biso   1.000  C
  C36      1.0000 0.64270  0.45340  0.58700  Biso   1.000  C
  H58      1.0000 0.69050  0.46070  0.46070  Biso   1.000  H
  H59      1.0000 0.70420  0.45930  0.69990  Biso   1.000  H
  C37      1.0000 0.53240  0.50010  0.60400  Biso   1.000  C
  H60      1.0000 0.48360  0.49210  0.72960  Biso   1.000  H
  H61      1.0000 0.57110  0.54070  0.61610  Biso   1.000  H
  C38      1.0000 0.43550  0.50010  0.42500  Biso   1.000  C
  H62      1.0000 0.48480  0.50120  0.29710  Biso   1.000  H
  H63      1.0000 0.38440  0.46240  0.42720  Biso   1.000  H
  C39      1.0000 0.34110  0.55460  0.43300  Biso   1.000  C
  H64      1.0000 0.27650  0.55160  0.32350  Biso   1.000  H
  H65      1.0000 0.29390  0.55480  0.56280  Biso   1.000  H
  C40      1.0000 0.42000  0.61440  0.40900  Biso   1.000  C
  N6       1.0000 0.98710  0.71649  0.31080  Biso   1.000  N
  H66      1.0000 0.76630  0.61490  0.37960  Biso   1.000  H
  C41      1.0000 0.84200  0.72725  0.31620  Biso   1.000  C
  H67      1.0000 0.80200  0.70930  0.19500  Biso   1.000  H
  H68      1.0000 0.82520  0.77100  0.31290  Biso   1.000  H
  C42      1.0000 0.00910  0.64909  0.31630  Biso   1.000  C
  H69      1.0000 0.10360  0.64080  0.31460  Biso   1.000  H
  H70      1.0000 0.97040  0.63060  0.19510  Biso   1.000  H
  O21      1.0000 0.38400  0.65070  0.44900  Biso   1.000  O
  O22      1.0000 0.46900  0.62720  0.25900  Biso   1.000  O
  O23      1.0000 0.58900  0.35510  0.56600  Biso   1.000  O
  O24      1.0000 0.51900  0.36870  0.25600  Biso   1.000  O
  C43      1.0000 0.40500  0.61330  0.58700  Biso   1.000  C
  C44      1.0000 0.35730  0.54660  0.58700  Biso   1.000  C
  H71      1.0000 0.30950  0.53930  0.46070  Biso   1.000  H
  H72      1.0000 0.29580  0.54070  0.69990  Biso   1.000  H
  C45      1.0000 0.46760  0.49990  0.60400  Biso   1.000  C
  H73      1.0000 0.51640  0.50790  0.72960  Biso   1.000  H
  H74      1.0000 0.42890  0.45930  0.61610  Biso   1.000  H
  C46      1.0000 0.56450  0.49990  0.42500  Biso   1.000  C
  H75      1.0000 0.51520  0.49880  0.29710  Biso   1.000  H
  H76      1.0000 0.61560  0.53760  0.42720  Biso   1.000  H
  C47      1.0000 0.65890  0.44540  0.43300  Biso   1.000  C
  H77      1.0000 0.72350  0.44840  0.32350  Biso   1.000  H
  H78      1.0000 0.70610  0.44520  0.56280  Biso   1.000  H
  C48      1.0000 0.58000  0.38560  0.40900  Biso   1.000  C
  N7       1.0000 0.48710  0.78351  0.18920  Biso   1.000  N
  H79      1.0000 0.26630  0.88510  0.12040  Biso   1.000  H
  C49      1.0000 0.34200  0.77275  0.18380  Biso   1.000  C
  H80      1.0000 0.30200  0.79070  0.30500  Biso   1.000  H
  H81      1.0000 0.32520  0.72900  0.18710  Biso   1.000  H
  C50      1.0000 0.50910  0.85091  0.18370  Biso   1.000  C
  H82      1.0000 0.60360  0.85920  0.18540  Biso   1.000  H
  H83      1.0000 0.47040  0.86940  0.30490  Biso   1.000  H
  O25      1.0000 0.88400  0.84930  0.05100  Biso   1.000  O
  O26      1.0000 0.96900  0.87280  0.24100  Biso   1.000  O
  O27      1.0000 0.08900  0.14490  0.93400  Biso   1.000  O
  O28      1.0000 0.01900  0.13130  0.24400  Biso   1.000  O
  C51      1.0000 0.90500  0.88670  0.91300  Biso   1.000  C
  C52      1.0000 0.85730  0.95340  0.91300  Biso   1.000  C
  H84      1.0000 0.80950  0.96070  0.03930  Biso   1.000  H
  H85      1.0000 0.79580  0.95930  0.80010  Biso   1.000  H
  C53      1.0000 0.96760  0.00010  0.89600  Biso   1.000  C
  H86      1.0000 0.01640  0.99210  0.77040  Biso   1.000  H
  H87      1.0000 0.92890  0.04070  0.88390  Biso   1.000  H
  C54      1.0000 0.06450  0.00010  0.07500  Biso   1.000  C
  H88      1.0000 0.01520  0.00120  0.20290  Biso   1.000  H
  H89      1.0000 0.11560  0.96240  0.07280  Biso   1.000  H
  C55      1.0000 0.15890  0.05460  0.06700  Biso   1.000  C
  H90      1.0000 0.22350  0.05160  0.17650  Biso   1.000  H
  H91      1.0000 0.20610  0.05480  0.93720  Biso   1.000  H
  C56      1.0000 0.08000  0.11440  0.09100  Biso   1.000  C
  N8       1.0000 0.51290  0.21649  0.18920  Biso   1.000  N
  H92      1.0000 0.73370  0.11490  0.12040  Biso   1.000  H
  C57      1.0000 0.65800  0.22725  0.18380  Biso   1.000  C
  H93      1.0000 0.69800  0.20930  0.30500  Biso   1.000  H
  H94      1.0000 0.67480  0.27100  0.18710  Biso   1.000  H
  C58      1.0000 0.49090  0.14909  0.18370  Biso   1.000  C
  H95      1.0000 0.39640  0.14080  0.18540  Biso   1.000  H
  H96      1.0000 0.52960  0.13060  0.30490  Biso   1.000  H
  O29      1.0000 0.11600  0.15070  0.05100  Biso   1.000  O
  O30      1.0000 0.03100  0.12720  0.24100  Biso   1.000  O
  O31      1.0000 0.91100  0.85510  0.93400  Biso   1.000  O
  O32      1.0000 0.98100  0.86870  0.24400  Biso   1.000  O
  C59      1.0000 0.09500  0.11330  0.91300  Biso   1.000  C
  C60      1.0000 0.14270  0.04660  0.91300  Biso   1.000  C
  H97      1.0000 0.19050  0.03930  0.03930  Biso   1.000  H
  H98      1.0000 0.20420  0.04070  0.80010  Biso   1.000  H
  C61      1.0000 0.03240  0.99990  0.89600  Biso   1.000  C
  H99      1.0000 0.98360  0.00790  0.77040  Biso   1.000  H
  H100     1.0000 0.07110  0.95930  0.88390  Biso   1.000  H
  C62      1.0000 0.93550  0.99990  0.07500  Biso   1.000  C
  H101     1.0000 0.98480  0.99880  0.20290  Biso   1.000  H
  H102     1.0000 0.88440  0.03760  0.07280  Biso   1.000  H
  C63      1.0000 0.84110  0.94540  0.06700  Biso   1.000  C
  H103     1.0000 0.77650  0.94840  0.17650  Biso   1.000  H
  H104     1.0000 0.79390  0.94520  0.93720  Biso   1.000  H
  C64      1.0000 0.92000  0.88560  0.09100  Biso   1.000  C
  Ag1      1.0000 0.55524  0.72995  0.50000  Biso   1.000  Ag
  N9       1.0000 0.77940  0.70070  0.50000  Biso   1.000  N
  N10      1.0000 0.95000  0.62150  0.50000  Biso   1.000  N
  C65      1.0000 0.80610  0.63340  0.50000  Biso   1.000  C
  C66      1.0000 0.04440  0.74350  0.50000  Biso   1.000  C
  H105     1.0000 0.02820  0.78730  0.50000  Biso   1.000  H
  H106     1.0000 0.13960  0.73720  0.50000  Biso   1.000  H
  Ag2      1.0000 0.44476  0.27005  0.50000  Biso   1.000  Ag
  N11      1.0000 0.22060  0.29930  0.50000  Biso   1.000  N
  N12      1.0000 0.05000  0.37850  0.50000  Biso   1.000  N
  C67      1.0000 0.19390  0.36660  0.50000  Biso   1.000  C
  C68      1.0000 0.95560  0.25650  0.50000  Biso   1.000  C
  H107     1.0000 0.97180  0.21270  0.50000  Biso   1.000  H
  H108     1.0000 0.86040  0.26280  0.50000  Biso   1.000  H
  Ag3      1.0000 0.94476  0.22995  0.00000  Biso   1.000  Ag
  N13      1.0000 0.72060  0.20070  0.00000  Biso   1.000  N
  N14      1.0000 0.55000  0.12150  0.00000  Biso   1.000  N
  C69      1.0000 0.69390  0.13340  0.00000  Biso   1.000  C
  C70      1.0000 0.45560  0.24350  0.00000  Biso   1.000  C
  H109     1.0000 0.47180  0.28730  0.00000  Biso   1.000  H
  H110     1.0000 0.36040  0.23720  0.00000  Biso   1.000  H
  Ag4      1.0000 0.05524  0.77005  0.00000  Biso   1.000  Ag
  N15      1.0000 0.27940  0.79930  0.00000  Biso   1.000  N
  N16      1.0000 0.45000  0.87850  0.00000  Biso   1.000  N
  C71      1.0000 0.30610  0.86660  0.00000  Biso   1.000  C
  C72      1.0000 0.54440  0.75650  0.00000  Biso   1.000  C
  H111     1.0000 0.52820  0.71270  0.00000  Biso   1.000  H
  H112     1.0000 0.63960  0.76280  0.00000  Biso   1.000  H
