data_image0
_cell_length_a       7.59
_cell_length_b       7.59
_cell_length_c       7.725
_cell_angle_alpha    90
_cell_angle_beta     90
_cell_angle_gamma    90

_symmetry_space_group_name_H-M    "P 1"
_symmetry_int_tables_number       1

loop_
  _symmetry_equiv_pos_as_xyz
  'x, y, z'

loop_
  _atom_site_label
  _atom_site_occupancy
  _atom_site_fract_x
  _atom_site_fract_y
  _atom_site_fract_z
  _atom_site_thermal_displace_type
  _atom_site_B_iso_or_equiv
  _atom_site_type_symbol
  Cd1      1.0000 0.00000  0.00000  0.00000  Biso   1.000  Cd
  Ni1      1.0000 0.50000  0.50000  0.00000  Biso   1.000  Ni
  N1       1.0000 0.22100  0.22100  0.00000  Biso   1.000  N
  C1       1.0000 0.32790  0.32790  0.00000  Biso   1.000  C
  N2       1.0000 0.77900  0.77900  0.00000  Biso   1.000  N
  C2       1.0000 0.67210  0.67210  0.00000  Biso   1.000  C
  N3       1.0000 0.77900  0.22100  0.00000  Biso   1.000  N
  C3       1.0000 0.67210  0.32790  0.00000  Biso   1.000  C
  N4       1.0000 0.22100  0.77900  0.00000  Biso   1.000  N
  C4       1.0000 0.32790  0.67210  0.00000  Biso   1.000  C
  N5       1.0000 0.03300  0.00000  0.29900  Biso   1.000  N
  C5       1.0000 0.89200  0.00000  0.40200  Biso   1.000  C
  N6       1.0000 0.96700  0.00000  0.29900  Biso   1.000  N
  C6       1.0000 0.10800  0.00000  0.40200  Biso   1.000  C
  N7       1.0000 0.00000  0.03300  0.29900  Biso   1.000  N
  C7       1.0000 0.00000  0.89200  0.40200  Biso   1.000  C
  N8       1.0000 0.00000  0.96700  0.29900  Biso   1.000  N
  C8       1.0000 0.00000  0.10800  0.40200  Biso   1.000  C
  N9       1.0000 0.96700  0.00000  0.70100  Biso   1.000  N
  C9       1.0000 0.10800  0.00000  0.59800  Biso   1.000  C
  N10      1.0000 0.03300  0.00000  0.70100  Biso   1.000  N
  C10      1.0000 0.89200  0.00000  0.59800  Biso   1.000  C
  N11      1.0000 0.00000  0.03300  0.70100  Biso   1.000  N
  C11      1.0000 0.00000  0.89200  0.59800  Biso   1.000  C
  N12      1.0000 0.00000  0.96700  0.70100  Biso   1.000  N
  C12      1.0000 0.00000  0.10800  0.59800  Biso   1.000  C
