data_image0
_cell_length_a       25.7718
_cell_length_b       25.7718
_cell_length_c       25.7718
_cell_angle_alpha    90
_cell_angle_beta     90
_cell_angle_gamma    90

_symmetry_space_group_name_H-M    "P 1"
_symmetry_int_tables_number       1

loop_
  _symmetry_equiv_pos_as_xyz
  'x, y, z'

loop_
  _atom_site_label
  _atom_site_occupancy
  _atom_site_fract_x
  _atom_site_fract_y
  _atom_site_fract_z
  _atom_site_thermal_displace_type
  _atom_site_B_iso_or_equiv
  _atom_site_type_symbol
  C1       1.0000 0.20990  0.23550  0.02630  Biso   1.000  C
  Br1      1.0000 0.13640  0.21420  0.05160  Biso   1.000  Br
  C2       1.0000 0.20990  0.73550  0.52630  Biso   1.000  C
  Br2      1.0000 0.13640  0.71420  0.55160  Biso   1.000  Br
  C3       1.0000 0.70990  0.23550  0.52630  Biso   1.000  C
  Br3      1.0000 0.63640  0.21420  0.55160  Biso   1.000  Br
  C4       1.0000 0.70990  0.73550  0.02630  Biso   1.000  C
  Br4      1.0000 0.63640  0.71420  0.05160  Biso   1.000  Br
  C5       1.0000 0.79010  0.76450  0.02630  Biso   1.000  C
  Br5      1.0000 0.86360  0.78580  0.05160  Biso   1.000  Br
  C6       1.0000 0.79010  0.26450  0.52630  Biso   1.000  C
  Br6      1.0000 0.86360  0.28580  0.55160  Biso   1.000  Br
  C7       1.0000 0.29010  0.76450  0.52630  Biso   1.000  C
  Br7      1.0000 0.36360  0.78580  0.55160  Biso   1.000  Br
  C8       1.0000 0.29010  0.26450  0.02630  Biso   1.000  C
  Br8      1.0000 0.36360  0.28580  0.05160  Biso   1.000  Br
  C9       1.0000 0.79010  0.23550  0.97370  Biso   1.000  C
  Br9      1.0000 0.86360  0.21420  0.94840  Biso   1.000  Br
  C10      1.0000 0.79010  0.73550  0.47370  Biso   1.000  C
  Br10     1.0000 0.86360  0.71420  0.44840  Biso   1.000  Br
  C11      1.0000 0.29010  0.23550  0.47370  Biso   1.000  C
  Br11     1.0000 0.36360  0.21420  0.44840  Biso   1.000  Br
  C12      1.0000 0.29010  0.73550  0.97370  Biso   1.000  C
  Br12     1.0000 0.36360  0.71420  0.94840  Biso   1.000  Br
  C13      1.0000 0.20990  0.76450  0.97370  Biso   1.000  C
  Br13     1.0000 0.13640  0.78580  0.94840  Biso   1.000  Br
  C14      1.0000 0.20990  0.26450  0.47370  Biso   1.000  C
  Br14     1.0000 0.13640  0.28580  0.44840  Biso   1.000  Br
  C15      1.0000 0.70990  0.76450  0.47370  Biso   1.000  C
  Br15     1.0000 0.63640  0.78580  0.44840  Biso   1.000  Br
  C16      1.0000 0.70990  0.26450  0.97370  Biso   1.000  C
  Br16     1.0000 0.63640  0.28580  0.94840  Biso   1.000  Br
  C17      1.0000 0.02630  0.20990  0.23550  Biso   1.000  C
  Br17     1.0000 0.05160  0.13640  0.21420  Biso   1.000  Br
  C18      1.0000 0.02630  0.70990  0.73550  Biso   1.000  C
  Br18     1.0000 0.05160  0.63640  0.71420  Biso   1.000  Br
  C19      1.0000 0.52630  0.20990  0.73550  Biso   1.000  C
  Br19     1.0000 0.55160  0.13640  0.71420  Biso   1.000  Br
  C20      1.0000 0.52630  0.70990  0.23550  Biso   1.000  C
  Br20     1.0000 0.55160  0.63640  0.21420  Biso   1.000  Br
  C21      1.0000 0.02630  0.79010  0.76450  Biso   1.000  C
  Br21     1.0000 0.05160  0.86360  0.78580  Biso   1.000  Br
  C22      1.0000 0.02630  0.29010  0.26450  Biso   1.000  C
  Br22     1.0000 0.05160  0.36360  0.28580  Biso   1.000  Br
  C23      1.0000 0.52630  0.79010  0.26450  Biso   1.000  C
  Br23     1.0000 0.55160  0.86360  0.28580  Biso   1.000  Br
  C24      1.0000 0.52630  0.29010  0.76450  Biso   1.000  C
  Br24     1.0000 0.55160  0.36360  0.78580  Biso   1.000  Br
  C25      1.0000 0.97370  0.79010  0.23550  Biso   1.000  C
  Br25     1.0000 0.94840  0.86360  0.21420  Biso   1.000  Br
  C26      1.0000 0.97370  0.29010  0.73550  Biso   1.000  C
  Br26     1.0000 0.94840  0.36360  0.71420  Biso   1.000  Br
  C27      1.0000 0.47370  0.79010  0.73550  Biso   1.000  C
  Br27     1.0000 0.44840  0.86360  0.71420  Biso   1.000  Br
  C28      1.0000 0.47370  0.29010  0.23550  Biso   1.000  C
  Br28     1.0000 0.44840  0.36360  0.21420  Biso   1.000  Br
  C29      1.0000 0.97370  0.20990  0.76450  Biso   1.000  C
  Br29     1.0000 0.94840  0.13640  0.78580  Biso   1.000  Br
  C30      1.0000 0.97370  0.70990  0.26450  Biso   1.000  C
  Br30     1.0000 0.94840  0.63640  0.28580  Biso   1.000  Br
  C31      1.0000 0.47370  0.20990  0.26450  Biso   1.000  C
  Br31     1.0000 0.44840  0.13640  0.28580  Biso   1.000  Br
  C32      1.0000 0.47370  0.70990  0.76450  Biso   1.000  C
  Br32     1.0000 0.44840  0.63640  0.78580  Biso   1.000  Br
  C33      1.0000 0.23550  0.02630  0.20990  Biso   1.000  C
  Br33     1.0000 0.21420  0.05160  0.13640  Biso   1.000  Br
  C34      1.0000 0.23550  0.52630  0.70990  Biso   1.000  C
  Br34     1.0000 0.21420  0.55160  0.63640  Biso   1.000  Br
  C35      1.0000 0.73550  0.02630  0.70990  Biso   1.000  C
  Br35     1.0000 0.71420  0.05160  0.63640  Biso   1.000  Br
  C36      1.0000 0.73550  0.52630  0.20990  Biso   1.000  C
  Br36     1.0000 0.71420  0.55160  0.13640  Biso   1.000  Br
  C37      1.0000 0.76450  0.02630  0.79010  Biso   1.000  C
  Br37     1.0000 0.78580  0.05160  0.86360  Biso   1.000  Br
  C38      1.0000 0.76450  0.52630  0.29010  Biso   1.000  C
  Br38     1.0000 0.78580  0.55160  0.36360  Biso   1.000  Br
  C39      1.0000 0.26450  0.02630  0.29010  Biso   1.000  C
  Br39     1.0000 0.28580  0.05160  0.36360  Biso   1.000  Br
  C40      1.0000 0.26450  0.52630  0.79010  Biso   1.000  C
  Br40     1.0000 0.28580  0.55160  0.86360  Biso   1.000  Br
  C41      1.0000 0.23550  0.97370  0.79010  Biso   1.000  C
  Br41     1.0000 0.21420  0.94840  0.86360  Biso   1.000  Br
  C42      1.0000 0.23550  0.47370  0.29010  Biso   1.000  C
  Br42     1.0000 0.21420  0.44840  0.36360  Biso   1.000  Br
  C43      1.0000 0.73550  0.97370  0.29010  Biso   1.000  C
  Br43     1.0000 0.71420  0.94840  0.36360  Biso   1.000  Br
  C44      1.0000 0.73550  0.47370  0.79010  Biso   1.000  C
  Br44     1.0000 0.71420  0.44840  0.86360  Biso   1.000  Br
  C45      1.0000 0.76450  0.97370  0.20990  Biso   1.000  C
  Br45     1.0000 0.78580  0.94840  0.13640  Biso   1.000  Br
  C46      1.0000 0.76450  0.47370  0.70990  Biso   1.000  C
  Br46     1.0000 0.78580  0.44840  0.63640  Biso   1.000  Br
  C47      1.0000 0.26450  0.97370  0.70990  Biso   1.000  C
  Br47     1.0000 0.28580  0.94840  0.63640  Biso   1.000  Br
  C48      1.0000 0.26450  0.47370  0.20990  Biso   1.000  C
  Br48     1.0000 0.28580  0.44840  0.13640  Biso   1.000  Br
  C49      1.0000 0.23550  0.20990  0.97370  Biso   1.000  C
  Br49     1.0000 0.21420  0.13640  0.94840  Biso   1.000  Br
  C50      1.0000 0.23550  0.70990  0.47370  Biso   1.000  C
  Br50     1.0000 0.21420  0.63640  0.44840  Biso   1.000  Br
  C51      1.0000 0.73550  0.20990  0.47370  Biso   1.000  C
  Br51     1.0000 0.71420  0.13640  0.44840  Biso   1.000  Br
  C52      1.0000 0.73550  0.70990  0.97370  Biso   1.000  C
  Br52     1.0000 0.71420  0.63640  0.94840  Biso   1.000  Br
  C53      1.0000 0.76450  0.79010  0.97370  Biso   1.000  C
  Br53     1.0000 0.78580  0.86360  0.94840  Biso   1.000  Br
  C54      1.0000 0.76450  0.29010  0.47370  Biso   1.000  C
  Br54     1.0000 0.78580  0.36360  0.44840  Biso   1.000  Br
  C55      1.0000 0.26450  0.79010  0.47370  Biso   1.000  C
  Br55     1.0000 0.28580  0.86360  0.44840  Biso   1.000  Br
  C56      1.0000 0.26450  0.29010  0.97370  Biso   1.000  C
  Br56     1.0000 0.28580  0.36360  0.94840  Biso   1.000  Br
  C57      1.0000 0.23550  0.79010  0.02630  Biso   1.000  C
  Br57     1.0000 0.21420  0.86360  0.05160  Biso   1.000  Br
  C58      1.0000 0.23550  0.29010  0.52630  Biso   1.000  C
  Br58     1.0000 0.21420  0.36360  0.55160  Biso   1.000  Br
  C59      1.0000 0.73550  0.79010  0.52630  Biso   1.000  C
  Br59     1.0000 0.71420  0.86360  0.55160  Biso   1.000  Br
  C60      1.0000 0.73550  0.29010  0.02630  Biso   1.000  C
  Br60     1.0000 0.71420  0.36360  0.05160  Biso   1.000  Br
  C61      1.0000 0.76450  0.20990  0.02630  Biso   1.000  C
  Br61     1.0000 0.78580  0.13640  0.05160  Biso   1.000  Br
  C62      1.0000 0.76450  0.70990  0.52630  Biso   1.000  C
  Br62     1.0000 0.78580  0.63640  0.55160  Biso   1.000  Br
  C63      1.0000 0.26450  0.20990  0.52630  Biso   1.000  C
  Br63     1.0000 0.28580  0.13640  0.55160  Biso   1.000  Br
  C64      1.0000 0.26450  0.70990  0.02630  Biso   1.000  C
  Br64     1.0000 0.28580  0.63640  0.05160  Biso   1.000  Br
  C65      1.0000 0.20990  0.02630  0.76450  Biso   1.000  C
  Br65     1.0000 0.13640  0.05160  0.78580  Biso   1.000  Br
  C66      1.0000 0.20990  0.52630  0.26450  Biso   1.000  C
  Br66     1.0000 0.13640  0.55160  0.28580  Biso   1.000  Br
  C67      1.0000 0.70990  0.02630  0.26450  Biso   1.000  C
  Br67     1.0000 0.63640  0.05160  0.28580  Biso   1.000  Br
  C68      1.0000 0.70990  0.52630  0.76450  Biso   1.000  C
  Br68     1.0000 0.63640  0.55160  0.78580  Biso   1.000  Br
  C69      1.0000 0.79010  0.02630  0.23550  Biso   1.000  C
  Br69     1.0000 0.86360  0.05160  0.21420  Biso   1.000  Br
  C70      1.0000 0.79010  0.52630  0.73550  Biso   1.000  C
  Br70     1.0000 0.86360  0.55160  0.71420  Biso   1.000  Br
  C71      1.0000 0.29010  0.02630  0.73550  Biso   1.000  C
  Br71     1.0000 0.36360  0.05160  0.71420  Biso   1.000  Br
  C72      1.0000 0.29010  0.52630  0.23550  Biso   1.000  C
  Br72     1.0000 0.36360  0.55160  0.21420  Biso   1.000  Br
  C73      1.0000 0.79010  0.97370  0.76450  Biso   1.000  C
  Br73     1.0000 0.86360  0.94840  0.78580  Biso   1.000  Br
  C74      1.0000 0.79010  0.47370  0.26450  Biso   1.000  C
  Br74     1.0000 0.86360  0.44840  0.28580  Biso   1.000  Br
  C75      1.0000 0.29010  0.97370  0.26450  Biso   1.000  C
  Br75     1.0000 0.36360  0.94840  0.28580  Biso   1.000  Br
  C76      1.0000 0.29010  0.47370  0.76450  Biso   1.000  C
  Br76     1.0000 0.36360  0.44840  0.78580  Biso   1.000  Br
  C77      1.0000 0.20990  0.97370  0.23550  Biso   1.000  C
  Br77     1.0000 0.13640  0.94840  0.21420  Biso   1.000  Br
  C78      1.0000 0.20990  0.47370  0.73550  Biso   1.000  C
  Br78     1.0000 0.13640  0.44840  0.71420  Biso   1.000  Br
  C79      1.0000 0.70990  0.97370  0.73550  Biso   1.000  C
  Br79     1.0000 0.63640  0.94840  0.71420  Biso   1.000  Br
  C80      1.0000 0.70990  0.47370  0.23550  Biso   1.000  C
  Br80     1.0000 0.63640  0.44840  0.21420  Biso   1.000  Br
  C81      1.0000 0.02630  0.23550  0.79010  Biso   1.000  C
  Br81     1.0000 0.05160  0.21420  0.86360  Biso   1.000  Br
  C82      1.0000 0.02630  0.73550  0.29010  Biso   1.000  C
  Br82     1.0000 0.05160  0.71420  0.36360  Biso   1.000  Br
  C83      1.0000 0.52630  0.23550  0.29010  Biso   1.000  C
  Br83     1.0000 0.55160  0.21420  0.36360  Biso   1.000  Br
  C84      1.0000 0.52630  0.73550  0.79010  Biso   1.000  C
  Br84     1.0000 0.55160  0.71420  0.86360  Biso   1.000  Br
  C85      1.0000 0.02630  0.76450  0.20990  Biso   1.000  C
  Br85     1.0000 0.05160  0.78580  0.13640  Biso   1.000  Br
  C86      1.0000 0.02630  0.26450  0.70990  Biso   1.000  C
  Br86     1.0000 0.05160  0.28580  0.63640  Biso   1.000  Br
  C87      1.0000 0.52630  0.76450  0.70990  Biso   1.000  C
  Br87     1.0000 0.55160  0.78580  0.63640  Biso   1.000  Br
  C88      1.0000 0.52630  0.26450  0.20990  Biso   1.000  C
  Br88     1.0000 0.55160  0.28580  0.13640  Biso   1.000  Br
  C89      1.0000 0.97370  0.23550  0.20990  Biso   1.000  C
  Br89     1.0000 0.94840  0.21420  0.13640  Biso   1.000  Br
  C90      1.0000 0.97370  0.73550  0.70990  Biso   1.000  C
  Br90     1.0000 0.94840  0.71420  0.63640  Biso   1.000  Br
  C91      1.0000 0.47370  0.23550  0.70990  Biso   1.000  C
  Br91     1.0000 0.44840  0.21420  0.63640  Biso   1.000  Br
  C92      1.0000 0.47370  0.73550  0.20990  Biso   1.000  C
  Br92     1.0000 0.44840  0.71420  0.13640  Biso   1.000  Br
  C93      1.0000 0.97370  0.76450  0.79010  Biso   1.000  C
  Br93     1.0000 0.94840  0.78580  0.86360  Biso   1.000  Br
  C94      1.0000 0.97370  0.26450  0.29010  Biso   1.000  C
  Br94     1.0000 0.94840  0.28580  0.36360  Biso   1.000  Br
  C95      1.0000 0.47370  0.76450  0.29010  Biso   1.000  C
  Br95     1.0000 0.44840  0.78580  0.36360  Biso   1.000  Br
  C96      1.0000 0.47370  0.26450  0.79010  Biso   1.000  C
  Br96     1.0000 0.44840  0.28580  0.86360  Biso   1.000  Br
  C97      1.0000 0.79010  0.76450  0.97370  Biso   1.000  C
  Br97     1.0000 0.86360  0.78580  0.94840  Biso   1.000  Br
  C98      1.0000 0.79010  0.26450  0.47370  Biso   1.000  C
  Br98     1.0000 0.86360  0.28580  0.44840  Biso   1.000  Br
  C99      1.0000 0.29010  0.76450  0.47370  Biso   1.000  C
  Br99     1.0000 0.36360  0.78580  0.44840  Biso   1.000  Br
  C100     1.0000 0.29010  0.26450  0.97370  Biso   1.000  C
  Br100    1.0000 0.36360  0.28580  0.94840  Biso   1.000  Br
  C101     1.0000 0.20990  0.23550  0.97370  Biso   1.000  C
  Br101    1.0000 0.13640  0.21420  0.94840  Biso   1.000  Br
  C102     1.0000 0.20990  0.73550  0.47370  Biso   1.000  C
  Br102    1.0000 0.13640  0.71420  0.44840  Biso   1.000  Br
  C103     1.0000 0.70990  0.23550  0.47370  Biso   1.000  C
  Br103    1.0000 0.63640  0.21420  0.44840  Biso   1.000  Br
  C104     1.0000 0.70990  0.73550  0.97370  Biso   1.000  C
  Br104    1.0000 0.63640  0.71420  0.94840  Biso   1.000  Br
  C105     1.0000 0.20990  0.76450  0.02630  Biso   1.000  C
  Br105    1.0000 0.13640  0.78580  0.05160  Biso   1.000  Br
  C106     1.0000 0.20990  0.26450  0.52630  Biso   1.000  C
  Br106    1.0000 0.13640  0.28580  0.55160  Biso   1.000  Br
  C107     1.0000 0.70990  0.76450  0.52630  Biso   1.000  C
  Br107    1.0000 0.63640  0.78580  0.55160  Biso   1.000  Br
  C108     1.0000 0.70990  0.26450  0.02630  Biso   1.000  C
  Br108    1.0000 0.63640  0.28580  0.05160  Biso   1.000  Br
  C109     1.0000 0.79010  0.23550  0.02630  Biso   1.000  C
  Br109    1.0000 0.86360  0.21420  0.05160  Biso   1.000  Br
  C110     1.0000 0.79010  0.73550  0.52630  Biso   1.000  C
  Br110    1.0000 0.86360  0.71420  0.55160  Biso   1.000  Br
  C111     1.0000 0.29010  0.23550  0.52630  Biso   1.000  C
  Br111    1.0000 0.36360  0.21420  0.55160  Biso   1.000  Br
  C112     1.0000 0.29010  0.73550  0.02630  Biso   1.000  C
  Br112    1.0000 0.36360  0.71420  0.05160  Biso   1.000  Br
  C113     1.0000 0.97370  0.79010  0.76450  Biso   1.000  C
  Br113    1.0000 0.94840  0.86360  0.78580  Biso   1.000  Br
  C114     1.0000 0.97370  0.29010  0.26450  Biso   1.000  C
  Br114    1.0000 0.94840  0.36360  0.28580  Biso   1.000  Br
  C115     1.0000 0.47370  0.79010  0.26450  Biso   1.000  C
  Br115    1.0000 0.44840  0.86360  0.28580  Biso   1.000  Br
  C116     1.0000 0.47370  0.29010  0.76450  Biso   1.000  C
  Br116    1.0000 0.44840  0.36360  0.78580  Biso   1.000  Br
  C117     1.0000 0.97370  0.20990  0.23550  Biso   1.000  C
  Br117    1.0000 0.94840  0.13640  0.21420  Biso   1.000  Br
  C118     1.0000 0.97370  0.70990  0.73550  Biso   1.000  C
  Br118    1.0000 0.94840  0.63640  0.71420  Biso   1.000  Br
  C119     1.0000 0.47370  0.20990  0.73550  Biso   1.000  C
  Br119    1.0000 0.44840  0.13640  0.71420  Biso   1.000  Br
  C120     1.0000 0.47370  0.70990  0.23550  Biso   1.000  C
  Br120    1.0000 0.44840  0.63640  0.21420  Biso   1.000  Br
  C121     1.0000 0.02630  0.20990  0.76450  Biso   1.000  C
  Br121    1.0000 0.05160  0.13640  0.78580  Biso   1.000  Br
  C122     1.0000 0.02630  0.70990  0.26450  Biso   1.000  C
  Br122    1.0000 0.05160  0.63640  0.28580  Biso   1.000  Br
  C123     1.0000 0.52630  0.20990  0.26450  Biso   1.000  C
  Br123    1.0000 0.55160  0.13640  0.28580  Biso   1.000  Br
  C124     1.0000 0.52630  0.70990  0.76450  Biso   1.000  C
  Br124    1.0000 0.55160  0.63640  0.78580  Biso   1.000  Br
  C125     1.0000 0.02630  0.79010  0.23550  Biso   1.000  C
  Br125    1.0000 0.05160  0.86360  0.21420  Biso   1.000  Br
  C126     1.0000 0.02630  0.29010  0.73550  Biso   1.000  C
  Br126    1.0000 0.05160  0.36360  0.71420  Biso   1.000  Br
  C127     1.0000 0.52630  0.79010  0.73550  Biso   1.000  C
  Br127    1.0000 0.55160  0.86360  0.71420  Biso   1.000  Br
  C128     1.0000 0.52630  0.29010  0.23550  Biso   1.000  C
  Br128    1.0000 0.55160  0.36360  0.21420  Biso   1.000  Br
  C129     1.0000 0.76450  0.97370  0.79010  Biso   1.000  C
  Br129    1.0000 0.78580  0.94840  0.86360  Biso   1.000  Br
  C130     1.0000 0.76450  0.47370  0.29010  Biso   1.000  C
  Br130    1.0000 0.78580  0.44840  0.36360  Biso   1.000  Br
  C131     1.0000 0.26450  0.97370  0.29010  Biso   1.000  C
  Br131    1.0000 0.28580  0.94840  0.36360  Biso   1.000  Br
  C132     1.0000 0.26450  0.47370  0.79010  Biso   1.000  C
  Br132    1.0000 0.28580  0.44840  0.86360  Biso   1.000  Br
  C133     1.0000 0.23550  0.97370  0.20990  Biso   1.000  C
  Br133    1.0000 0.21420  0.94840  0.13640  Biso   1.000  Br
  C134     1.0000 0.23550  0.47370  0.70990  Biso   1.000  C
  Br134    1.0000 0.21420  0.44840  0.63640  Biso   1.000  Br
  C135     1.0000 0.73550  0.97370  0.70990  Biso   1.000  C
  Br135    1.0000 0.71420  0.94840  0.63640  Biso   1.000  Br
  C136     1.0000 0.73550  0.47370  0.20990  Biso   1.000  C
  Br136    1.0000 0.71420  0.44840  0.13640  Biso   1.000  Br
  C137     1.0000 0.76450  0.02630  0.20990  Biso   1.000  C
  Br137    1.0000 0.78580  0.05160  0.13640  Biso   1.000  Br
  C138     1.0000 0.76450  0.52630  0.70990  Biso   1.000  C
  Br138    1.0000 0.78580  0.55160  0.63640  Biso   1.000  Br
  C139     1.0000 0.26450  0.02630  0.70990  Biso   1.000  C
  Br139    1.0000 0.28580  0.05160  0.63640  Biso   1.000  Br
  C140     1.0000 0.26450  0.52630  0.20990  Biso   1.000  C
  Br140    1.0000 0.28580  0.55160  0.13640  Biso   1.000  Br
  C141     1.0000 0.23550  0.02630  0.79010  Biso   1.000  C
  Br141    1.0000 0.21420  0.05160  0.86360  Biso   1.000  Br
  C142     1.0000 0.23550  0.52630  0.29010  Biso   1.000  C
  Br142    1.0000 0.21420  0.55160  0.36360  Biso   1.000  Br
  C143     1.0000 0.73550  0.02630  0.29010  Biso   1.000  C
  Br143    1.0000 0.71420  0.05160  0.36360  Biso   1.000  Br
  C144     1.0000 0.73550  0.52630  0.79010  Biso   1.000  C
  Br144    1.0000 0.71420  0.55160  0.86360  Biso   1.000  Br
  C145     1.0000 0.76450  0.79010  0.02630  Biso   1.000  C
  Br145    1.0000 0.78580  0.86360  0.05160  Biso   1.000  Br
  C146     1.0000 0.76450  0.29010  0.52630  Biso   1.000  C
  Br146    1.0000 0.78580  0.36360  0.55160  Biso   1.000  Br
  C147     1.0000 0.26450  0.79010  0.52630  Biso   1.000  C
  Br147    1.0000 0.28580  0.86360  0.55160  Biso   1.000  Br
  C148     1.0000 0.26450  0.29010  0.02630  Biso   1.000  C
  Br148    1.0000 0.28580  0.36360  0.05160  Biso   1.000  Br
  C149     1.0000 0.23550  0.20990  0.02630  Biso   1.000  C
  Br149    1.0000 0.21420  0.13640  0.05160  Biso   1.000  Br
  C150     1.0000 0.23550  0.70990  0.52630  Biso   1.000  C
  Br150    1.0000 0.21420  0.63640  0.55160  Biso   1.000  Br
  C151     1.0000 0.73550  0.20990  0.52630  Biso   1.000  C
  Br151    1.0000 0.71420  0.13640  0.55160  Biso   1.000  Br
  C152     1.0000 0.73550  0.70990  0.02630  Biso   1.000  C
  Br152    1.0000 0.71420  0.63640  0.05160  Biso   1.000  Br
  C153     1.0000 0.76450  0.20990  0.97370  Biso   1.000  C
  Br153    1.0000 0.78580  0.13640  0.94840  Biso   1.000  Br
  C154     1.0000 0.76450  0.70990  0.47370  Biso   1.000  C
  Br154    1.0000 0.78580  0.63640  0.44840  Biso   1.000  Br
  C155     1.0000 0.26450  0.20990  0.47370  Biso   1.000  C
  Br155    1.0000 0.28580  0.13640  0.44840  Biso   1.000  Br
  C156     1.0000 0.26450  0.70990  0.97370  Biso   1.000  C
  Br156    1.0000 0.28580  0.63640  0.94840  Biso   1.000  Br
  C157     1.0000 0.23550  0.79010  0.97370  Biso   1.000  C
  Br157    1.0000 0.21420  0.86360  0.94840  Biso   1.000  Br
  C158     1.0000 0.23550  0.29010  0.47370  Biso   1.000  C
  Br158    1.0000 0.21420  0.36360  0.44840  Biso   1.000  Br
  C159     1.0000 0.73550  0.79010  0.47370  Biso   1.000  C
  Br159    1.0000 0.71420  0.86360  0.44840  Biso   1.000  Br
  C160     1.0000 0.73550  0.29010  0.97370  Biso   1.000  C
  Br160    1.0000 0.71420  0.36360  0.94840  Biso   1.000  Br
  C161     1.0000 0.79010  0.97370  0.23550  Biso   1.000  C
  Br161    1.0000 0.86360  0.94840  0.21420  Biso   1.000  Br
  C162     1.0000 0.79010  0.47370  0.73550  Biso   1.000  C
  Br162    1.0000 0.86360  0.44840  0.71420  Biso   1.000  Br
  C163     1.0000 0.29010  0.97370  0.73550  Biso   1.000  C
  Br163    1.0000 0.36360  0.94840  0.71420  Biso   1.000  Br
  C164     1.0000 0.29010  0.47370  0.23550  Biso   1.000  C
  Br164    1.0000 0.36360  0.44840  0.21420  Biso   1.000  Br
  C165     1.0000 0.20990  0.97370  0.76450  Biso   1.000  C
  Br165    1.0000 0.13640  0.94840  0.78580  Biso   1.000  Br
  C166     1.0000 0.20990  0.47370  0.26450  Biso   1.000  C
  Br166    1.0000 0.13640  0.44840  0.28580  Biso   1.000  Br
  C167     1.0000 0.70990  0.97370  0.26450  Biso   1.000  C
  Br167    1.0000 0.63640  0.94840  0.28580  Biso   1.000  Br
  C168     1.0000 0.70990  0.47370  0.76450  Biso   1.000  C
  Br168    1.0000 0.63640  0.44840  0.78580  Biso   1.000  Br
  C169     1.0000 0.20990  0.02630  0.23550  Biso   1.000  C
  Br169    1.0000 0.13640  0.05160  0.21420  Biso   1.000  Br
  C170     1.0000 0.20990  0.52630  0.73550  Biso   1.000  C
  Br170    1.0000 0.13640  0.55160  0.71420  Biso   1.000  Br
  C171     1.0000 0.70990  0.02630  0.73550  Biso   1.000  C
  Br171    1.0000 0.63640  0.05160  0.71420  Biso   1.000  Br
  C172     1.0000 0.70990  0.52630  0.23550  Biso   1.000  C
  Br172    1.0000 0.63640  0.55160  0.21420  Biso   1.000  Br
  C173     1.0000 0.79010  0.02630  0.76450  Biso   1.000  C
  Br173    1.0000 0.86360  0.05160  0.78580  Biso   1.000  Br
  C174     1.0000 0.79010  0.52630  0.26450  Biso   1.000  C
  Br174    1.0000 0.86360  0.55160  0.28580  Biso   1.000  Br
  C175     1.0000 0.29010  0.02630  0.26450  Biso   1.000  C
  Br175    1.0000 0.36360  0.05160  0.28580  Biso   1.000  Br
  C176     1.0000 0.29010  0.52630  0.76450  Biso   1.000  C
  Br176    1.0000 0.36360  0.55160  0.78580  Biso   1.000  Br
  C177     1.0000 0.97370  0.76450  0.20990  Biso   1.000  C
  Br177    1.0000 0.94840  0.78580  0.13640  Biso   1.000  Br
  C178     1.0000 0.97370  0.26450  0.70990  Biso   1.000  C
  Br178    1.0000 0.94840  0.28580  0.63640  Biso   1.000  Br
  C179     1.0000 0.47370  0.76450  0.70990  Biso   1.000  C
  Br179    1.0000 0.44840  0.78580  0.63640  Biso   1.000  Br
  C180     1.0000 0.47370  0.26450  0.20990  Biso   1.000  C
  Br180    1.0000 0.44840  0.28580  0.13640  Biso   1.000  Br
  C181     1.0000 0.97370  0.23550  0.79010  Biso   1.000  C
  Br181    1.0000 0.94840  0.21420  0.86360  Biso   1.000  Br
  C182     1.0000 0.97370  0.73550  0.29010  Biso   1.000  C
  Br182    1.0000 0.94840  0.71420  0.36360  Biso   1.000  Br
  C183     1.0000 0.47370  0.23550  0.29010  Biso   1.000  C
  Br183    1.0000 0.44840  0.21420  0.36360  Biso   1.000  Br
  C184     1.0000 0.47370  0.73550  0.79010  Biso   1.000  C
  Br184    1.0000 0.44840  0.71420  0.86360  Biso   1.000  Br
  C185     1.0000 0.02630  0.76450  0.79010  Biso   1.000  C
  Br185    1.0000 0.05160  0.78580  0.86360  Biso   1.000  Br
  C186     1.0000 0.02630  0.26450  0.29010  Biso   1.000  C
  Br186    1.0000 0.05160  0.28580  0.36360  Biso   1.000  Br
  C187     1.0000 0.52630  0.76450  0.29010  Biso   1.000  C
  Br187    1.0000 0.55160  0.78580  0.36360  Biso   1.000  Br
  C188     1.0000 0.52630  0.26450  0.79010  Biso   1.000  C
  Br188    1.0000 0.55160  0.28580  0.86360  Biso   1.000  Br
  C189     1.0000 0.02630  0.23550  0.20990  Biso   1.000  C
  Br189    1.0000 0.05160  0.21420  0.13640  Biso   1.000  Br
  C190     1.0000 0.02630  0.73550  0.70990  Biso   1.000  C
  Br190    1.0000 0.05160  0.71420  0.63640  Biso   1.000  Br
  C191     1.0000 0.52630  0.23550  0.70990  Biso   1.000  C
  Br191    1.0000 0.55160  0.21420  0.63640  Biso   1.000  Br
  C192     1.0000 0.52630  0.73550  0.20990  Biso   1.000  C
  Br192    1.0000 0.55160  0.71420  0.13640  Biso   1.000  Br
  Zn1      1.0000 0.20659  0.20659  0.20659  Biso   1.000  Zn
  Zn2      1.0000 0.20659  0.70659  0.70659  Biso   1.000  Zn
  Zn3      1.0000 0.70659  0.20659  0.70659  Biso   1.000  Zn
  Zn4      1.0000 0.70659  0.70659  0.20659  Biso   1.000  Zn
  Zn5      1.0000 0.79341  0.79341  0.20659  Biso   1.000  Zn
  Zn6      1.0000 0.79341  0.29341  0.70659  Biso   1.000  Zn
  Zn7      1.0000 0.29341  0.79341  0.70659  Biso   1.000  Zn
  Zn8      1.0000 0.29341  0.29341  0.20659  Biso   1.000  Zn
  Zn9      1.0000 0.79341  0.20659  0.79341  Biso   1.000  Zn
  Zn10     1.0000 0.79341  0.70659  0.29341  Biso   1.000  Zn
  Zn11     1.0000 0.29341  0.20659  0.29341  Biso   1.000  Zn
  Zn12     1.0000 0.29341  0.70659  0.79341  Biso   1.000  Zn
  Zn13     1.0000 0.20659  0.79341  0.79341  Biso   1.000  Zn
  Zn14     1.0000 0.20659  0.29341  0.29341  Biso   1.000  Zn
  Zn15     1.0000 0.70659  0.79341  0.29341  Biso   1.000  Zn
  Zn16     1.0000 0.70659  0.29341  0.79341  Biso   1.000  Zn
  Zn17     1.0000 0.20659  0.20659  0.79341  Biso   1.000  Zn
  Zn18     1.0000 0.20659  0.70659  0.29341  Biso   1.000  Zn
  Zn19     1.0000 0.70659  0.20659  0.29341  Biso   1.000  Zn
  Zn20     1.0000 0.70659  0.70659  0.79341  Biso   1.000  Zn
  Zn21     1.0000 0.79341  0.79341  0.79341  Biso   1.000  Zn
  Zn22     1.0000 0.79341  0.29341  0.29341  Biso   1.000  Zn
  Zn23     1.0000 0.29341  0.79341  0.29341  Biso   1.000  Zn
  Zn24     1.0000 0.29341  0.29341  0.79341  Biso   1.000  Zn
  Zn25     1.0000 0.20659  0.79341  0.20659  Biso   1.000  Zn
  Zn26     1.0000 0.20659  0.29341  0.70659  Biso   1.000  Zn
  Zn27     1.0000 0.70659  0.79341  0.70659  Biso   1.000  Zn
  Zn28     1.0000 0.70659  0.29341  0.20659  Biso   1.000  Zn
  Zn29     1.0000 0.79341  0.20659  0.20659  Biso   1.000  Zn
  Zn30     1.0000 0.79341  0.70659  0.70659  Biso   1.000  Zn
  Zn31     1.0000 0.29341  0.20659  0.70659  Biso   1.000  Zn
  Zn32     1.0000 0.29341  0.70659  0.20659  Biso   1.000  Zn
  O1       1.0000 0.25000  0.25000  0.25000  Biso   1.000  O
  O2       1.0000 0.75000  0.75000  0.25000  Biso   1.000  O
  O3       1.0000 0.75000  0.25000  0.75000  Biso   1.000  O
  O4       1.0000 0.25000  0.75000  0.75000  Biso   1.000  O
  O5       1.0000 0.25000  0.25000  0.75000  Biso   1.000  O
  O6       1.0000 0.75000  0.75000  0.75000  Biso   1.000  O
  O7       1.0000 0.75000  0.25000  0.25000  Biso   1.000  O
  O8       1.0000 0.25000  0.75000  0.25000  Biso   1.000  O
  O9       1.0000 0.22000  0.22000  0.13380  Biso   1.000  O
  O10      1.0000 0.22000  0.72000  0.63380  Biso   1.000  O
  O11      1.0000 0.72000  0.22000  0.63380  Biso   1.000  O
  O12      1.0000 0.72000  0.72000  0.13380  Biso   1.000  O
  O13      1.0000 0.78000  0.78000  0.13380  Biso   1.000  O
  O14      1.0000 0.78000  0.28000  0.63380  Biso   1.000  O
  O15      1.0000 0.28000  0.78000  0.63380  Biso   1.000  O
  O16      1.0000 0.28000  0.28000  0.13380  Biso   1.000  O
  O17      1.0000 0.78000  0.22000  0.86620  Biso   1.000  O
  O18      1.0000 0.78000  0.72000  0.36620  Biso   1.000  O
  O19      1.0000 0.28000  0.22000  0.36620  Biso   1.000  O
  O20      1.0000 0.28000  0.72000  0.86620  Biso   1.000  O
  O21      1.0000 0.22000  0.78000  0.86620  Biso   1.000  O
  O22      1.0000 0.22000  0.28000  0.36620  Biso   1.000  O
  O23      1.0000 0.72000  0.78000  0.36620  Biso   1.000  O
  O24      1.0000 0.72000  0.28000  0.86620  Biso   1.000  O
  O25      1.0000 0.13380  0.22000  0.22000  Biso   1.000  O
  O26      1.0000 0.13380  0.72000  0.72000  Biso   1.000  O
  O27      1.0000 0.63380  0.22000  0.72000  Biso   1.000  O
  O28      1.0000 0.63380  0.72000  0.22000  Biso   1.000  O
  O29      1.0000 0.13380  0.78000  0.78000  Biso   1.000  O
  O30      1.0000 0.13380  0.28000  0.28000  Biso   1.000  O
  O31      1.0000 0.63380  0.78000  0.28000  Biso   1.000  O
  O32      1.0000 0.63380  0.28000  0.78000  Biso   1.000  O
  O33      1.0000 0.86620  0.78000  0.22000  Biso   1.000  O
  O34      1.0000 0.86620  0.28000  0.72000  Biso   1.000  O
  O35      1.0000 0.36620  0.78000  0.72000  Biso   1.000  O
  O36      1.0000 0.36620  0.28000  0.22000  Biso   1.000  O
  O37      1.0000 0.86620  0.22000  0.78000  Biso   1.000  O
  O38      1.0000 0.86620  0.72000  0.28000  Biso   1.000  O
  O39      1.0000 0.36620  0.22000  0.28000  Biso   1.000  O
  O40      1.0000 0.36620  0.72000  0.78000  Biso   1.000  O
  O41      1.0000 0.22000  0.13380  0.22000  Biso   1.000  O
  O42      1.0000 0.22000  0.63380  0.72000  Biso   1.000  O
  O43      1.0000 0.72000  0.13380  0.72000  Biso   1.000  O
  O44      1.0000 0.72000  0.63380  0.22000  Biso   1.000  O
  O45      1.0000 0.78000  0.13380  0.78000  Biso   1.000  O
  O46      1.0000 0.78000  0.63380  0.28000  Biso   1.000  O
  O47      1.0000 0.28000  0.13380  0.28000  Biso   1.000  O
  O48      1.0000 0.28000  0.63380  0.78000  Biso   1.000  O
  O49      1.0000 0.22000  0.86620  0.78000  Biso   1.000  O
  O50      1.0000 0.22000  0.36620  0.28000  Biso   1.000  O
  O51      1.0000 0.72000  0.86620  0.28000  Biso   1.000  O
  O52      1.0000 0.72000  0.36620  0.78000  Biso   1.000  O
  O53      1.0000 0.78000  0.86620  0.22000  Biso   1.000  O
  O54      1.0000 0.78000  0.36620  0.72000  Biso   1.000  O
  O55      1.0000 0.28000  0.86620  0.72000  Biso   1.000  O
  O56      1.0000 0.28000  0.36620  0.22000  Biso   1.000  O
  O57      1.0000 0.22000  0.22000  0.86620  Biso   1.000  O
  O58      1.0000 0.22000  0.72000  0.36620  Biso   1.000  O
  O59      1.0000 0.72000  0.22000  0.36620  Biso   1.000  O
  O60      1.0000 0.72000  0.72000  0.86620  Biso   1.000  O
  O61      1.0000 0.78000  0.78000  0.86620  Biso   1.000  O
  O62      1.0000 0.78000  0.28000  0.36620  Biso   1.000  O
  O63      1.0000 0.28000  0.78000  0.36620  Biso   1.000  O
  O64      1.0000 0.28000  0.28000  0.86620  Biso   1.000  O
  O65      1.0000 0.22000  0.78000  0.13380  Biso   1.000  O
  O66      1.0000 0.22000  0.28000  0.63380  Biso   1.000  O
  O67      1.0000 0.72000  0.78000  0.63380  Biso   1.000  O
  O68      1.0000 0.72000  0.28000  0.13380  Biso   1.000  O
  O69      1.0000 0.78000  0.22000  0.13380  Biso   1.000  O
  O70      1.0000 0.78000  0.72000  0.63380  Biso   1.000  O
  O71      1.0000 0.28000  0.22000  0.63380  Biso   1.000  O
  O72      1.0000 0.28000  0.72000  0.13380  Biso   1.000  O
  O73      1.0000 0.22000  0.13380  0.78000  Biso   1.000  O
  O74      1.0000 0.22000  0.63380  0.28000  Biso   1.000  O
  O75      1.0000 0.72000  0.13380  0.28000  Biso   1.000  O
  O76      1.0000 0.72000  0.63380  0.78000  Biso   1.000  O
  O77      1.0000 0.78000  0.13380  0.22000  Biso   1.000  O
  O78      1.0000 0.78000  0.63380  0.72000  Biso   1.000  O
  O79      1.0000 0.28000  0.13380  0.72000  Biso   1.000  O
  O80      1.0000 0.28000  0.63380  0.22000  Biso   1.000  O
  O81      1.0000 0.78000  0.86620  0.78000  Biso   1.000  O
  O82      1.0000 0.78000  0.36620  0.28000  Biso   1.000  O
  O83      1.0000 0.28000  0.86620  0.28000  Biso   1.000  O
  O84      1.0000 0.28000  0.36620  0.78000  Biso   1.000  O
  O85      1.0000 0.22000  0.86620  0.22000  Biso   1.000  O
  O86      1.0000 0.22000  0.36620  0.72000  Biso   1.000  O
  O87      1.0000 0.72000  0.86620  0.72000  Biso   1.000  O
  O88      1.0000 0.72000  0.36620  0.22000  Biso   1.000  O
  O89      1.0000 0.13380  0.22000  0.78000  Biso   1.000  O
  O90      1.0000 0.13380  0.72000  0.28000  Biso   1.000  O
  O91      1.0000 0.63380  0.22000  0.28000  Biso   1.000  O
  O92      1.0000 0.63380  0.72000  0.78000  Biso   1.000  O
  O93      1.0000 0.13380  0.78000  0.22000  Biso   1.000  O
  O94      1.0000 0.13380  0.28000  0.72000  Biso   1.000  O
  O95      1.0000 0.63380  0.78000  0.72000  Biso   1.000  O
  O96      1.0000 0.63380  0.28000  0.22000  Biso   1.000  O
  O97      1.0000 0.86620  0.22000  0.22000  Biso   1.000  O
  O98      1.0000 0.86620  0.72000  0.72000  Biso   1.000  O
  O99      1.0000 0.36620  0.22000  0.72000  Biso   1.000  O
  O100     1.0000 0.36620  0.72000  0.22000  Biso   1.000  O
  O101     1.0000 0.86620  0.78000  0.78000  Biso   1.000  O
  O102     1.0000 0.86620  0.28000  0.28000  Biso   1.000  O
  O103     1.0000 0.36620  0.78000  0.28000  Biso   1.000  O
  O104     1.0000 0.36620  0.28000  0.78000  Biso   1.000  O
  C193     1.0000 0.25000  0.25000  0.11060  Biso   1.000  C
  C194     1.0000 0.25000  0.25000  0.05500  Biso   1.000  C
  C195     1.0000 0.25000  0.75000  0.61060  Biso   1.000  C
  C196     1.0000 0.25000  0.75000  0.55500  Biso   1.000  C
  C197     1.0000 0.75000  0.75000  0.11060  Biso   1.000  C
  C198     1.0000 0.75000  0.75000  0.05500  Biso   1.000  C
  C199     1.0000 0.75000  0.25000  0.61060  Biso   1.000  C
  C200     1.0000 0.75000  0.25000  0.55500  Biso   1.000  C
  C201     1.0000 0.75000  0.25000  0.88940  Biso   1.000  C
  C202     1.0000 0.75000  0.25000  0.94500  Biso   1.000  C
  C203     1.0000 0.75000  0.75000  0.38940  Biso   1.000  C
  C204     1.0000 0.75000  0.75000  0.44500  Biso   1.000  C
  C205     1.0000 0.25000  0.25000  0.38940  Biso   1.000  C
  C206     1.0000 0.25000  0.25000  0.44500  Biso   1.000  C
  C207     1.0000 0.25000  0.75000  0.88940  Biso   1.000  C
  C208     1.0000 0.25000  0.75000  0.94500  Biso   1.000  C
  C209     1.0000 0.11060  0.25000  0.25000  Biso   1.000  C
  C210     1.0000 0.05500  0.25000  0.25000  Biso   1.000  C
  C211     1.0000 0.61060  0.25000  0.75000  Biso   1.000  C
  C212     1.0000 0.55500  0.25000  0.75000  Biso   1.000  C
  C213     1.0000 0.11060  0.75000  0.75000  Biso   1.000  C
  C214     1.0000 0.05500  0.75000  0.75000  Biso   1.000  C
  C215     1.0000 0.61060  0.75000  0.25000  Biso   1.000  C
  C216     1.0000 0.55500  0.75000  0.25000  Biso   1.000  C
  C217     1.0000 0.88940  0.75000  0.25000  Biso   1.000  C
  C218     1.0000 0.94500  0.75000  0.25000  Biso   1.000  C
  C219     1.0000 0.38940  0.75000  0.75000  Biso   1.000  C
  C220     1.0000 0.44500  0.75000  0.75000  Biso   1.000  C
  C221     1.0000 0.38940  0.25000  0.25000  Biso   1.000  C
  C222     1.0000 0.44500  0.25000  0.25000  Biso   1.000  C
  C223     1.0000 0.88940  0.25000  0.75000  Biso   1.000  C
  C224     1.0000 0.94500  0.25000  0.75000  Biso   1.000  C
  C225     1.0000 0.25000  0.11060  0.25000  Biso   1.000  C
  C226     1.0000 0.25000  0.05500  0.25000  Biso   1.000  C
  C227     1.0000 0.25000  0.61060  0.75000  Biso   1.000  C
  C228     1.0000 0.25000  0.55500  0.75000  Biso   1.000  C
  C229     1.0000 0.75000  0.11060  0.75000  Biso   1.000  C
  C230     1.0000 0.75000  0.05500  0.75000  Biso   1.000  C
  C231     1.0000 0.75000  0.61060  0.25000  Biso   1.000  C
  C232     1.0000 0.75000  0.55500  0.25000  Biso   1.000  C
  C233     1.0000 0.25000  0.88940  0.75000  Biso   1.000  C
  C234     1.0000 0.25000  0.94500  0.75000  Biso   1.000  C
  C235     1.0000 0.25000  0.38940  0.25000  Biso   1.000  C
  C236     1.0000 0.25000  0.44500  0.25000  Biso   1.000  C
  C237     1.0000 0.75000  0.88940  0.25000  Biso   1.000  C
  C238     1.0000 0.75000  0.94500  0.25000  Biso   1.000  C
  C239     1.0000 0.75000  0.38940  0.75000  Biso   1.000  C
  C240     1.0000 0.75000  0.44500  0.75000  Biso   1.000  C
  C241     1.0000 0.25000  0.25000  0.88940  Biso   1.000  C
  C242     1.0000 0.25000  0.25000  0.94500  Biso   1.000  C
  C243     1.0000 0.25000  0.75000  0.38940  Biso   1.000  C
  C244     1.0000 0.25000  0.75000  0.44500  Biso   1.000  C
  C245     1.0000 0.75000  0.75000  0.88940  Biso   1.000  C
  C246     1.0000 0.75000  0.75000  0.94500  Biso   1.000  C
  C247     1.0000 0.75000  0.25000  0.38940  Biso   1.000  C
  C248     1.0000 0.75000  0.25000  0.44500  Biso   1.000  C
  C249     1.0000 0.25000  0.75000  0.11060  Biso   1.000  C
  C250     1.0000 0.25000  0.75000  0.05500  Biso   1.000  C
  C251     1.0000 0.25000  0.25000  0.61060  Biso   1.000  C
  C252     1.0000 0.25000  0.25000  0.55500  Biso   1.000  C
  C253     1.0000 0.75000  0.25000  0.11060  Biso   1.000  C
  C254     1.0000 0.75000  0.25000  0.05500  Biso   1.000  C
  C255     1.0000 0.75000  0.75000  0.61060  Biso   1.000  C
  C256     1.0000 0.75000  0.75000  0.55500  Biso   1.000  C
  C257     1.0000 0.25000  0.11060  0.75000  Biso   1.000  C
  C258     1.0000 0.25000  0.05500  0.75000  Biso   1.000  C
  C259     1.0000 0.25000  0.61060  0.25000  Biso   1.000  C
  C260     1.0000 0.25000  0.55500  0.25000  Biso   1.000  C
  C261     1.0000 0.75000  0.11060  0.25000  Biso   1.000  C
  C262     1.0000 0.75000  0.05500  0.25000  Biso   1.000  C
  C263     1.0000 0.75000  0.61060  0.75000  Biso   1.000  C
  C264     1.0000 0.75000  0.55500  0.75000  Biso   1.000  C
  C265     1.0000 0.75000  0.88940  0.75000  Biso   1.000  C
  C266     1.0000 0.75000  0.94500  0.75000  Biso   1.000  C
  C267     1.0000 0.75000  0.38940  0.25000  Biso   1.000  C
  C268     1.0000 0.75000  0.44500  0.25000  Biso   1.000  C
  C269     1.0000 0.25000  0.88940  0.25000  Biso   1.000  C
  C270     1.0000 0.25000  0.94500  0.25000  Biso   1.000  C
  C271     1.0000 0.25000  0.38940  0.75000  Biso   1.000  C
  C272     1.0000 0.25000  0.44500  0.75000  Biso   1.000  C
  C273     1.0000 0.11060  0.25000  0.75000  Biso   1.000  C
  C274     1.0000 0.05500  0.25000  0.75000  Biso   1.000  C
  C275     1.0000 0.61060  0.25000  0.25000  Biso   1.000  C
  C276     1.0000 0.55500  0.25000  0.25000  Biso   1.000  C
  C277     1.0000 0.11060  0.75000  0.25000  Biso   1.000  C
  C278     1.0000 0.05500  0.75000  0.25000  Biso   1.000  C
  C279     1.0000 0.61060  0.75000  0.75000  Biso   1.000  C
  C280     1.0000 0.55500  0.75000  0.75000  Biso   1.000  C
  C281     1.0000 0.88940  0.25000  0.25000  Biso   1.000  C
  C282     1.0000 0.94500  0.25000  0.25000  Biso   1.000  C
  C283     1.0000 0.38940  0.25000  0.75000  Biso   1.000  C
  C284     1.0000 0.44500  0.25000  0.75000  Biso   1.000  C
  C285     1.0000 0.88940  0.75000  0.75000  Biso   1.000  C
  C286     1.0000 0.94500  0.75000  0.75000  Biso   1.000  C
  C287     1.0000 0.38940  0.75000  0.25000  Biso   1.000  C
  C288     1.0000 0.44500  0.75000  0.25000  Biso   1.000  C
