data_image0
_cell_length_a       30.0915
_cell_length_b       30.0915
_cell_length_c       30.0915
_cell_angle_alpha    90
_cell_angle_beta     90
_cell_angle_gamma    90

_symmetry_space_group_name_H-M    "P 1"
_symmetry_int_tables_number       1

loop_
  _symmetry_equiv_pos_as_xyz
  'x, y, z'

loop_
  _atom_site_label
  _atom_site_occupancy
  _atom_site_fract_x
  _atom_site_fract_y
  _atom_site_fract_z
  _atom_site_thermal_displace_type
  _atom_site_B_iso_or_equiv
  _atom_site_type_symbol
  Zn1      1.0000 0.21282  0.28718  0.21282  Biso   1.000  Zn
  Zn2      1.0000 0.78718  0.71282  0.21282  Biso   1.000  Zn
  Zn3      1.0000 0.28718  0.21282  0.21282  Biso   1.000  Zn
  Zn4      1.0000 0.78718  0.28718  0.78718  Biso   1.000  Zn
  Zn5      1.0000 0.28718  0.28718  0.28718  Biso   1.000  Zn
  Zn6      1.0000 0.21282  0.71282  0.78718  Biso   1.000  Zn
  Zn7      1.0000 0.21282  0.21282  0.28718  Biso   1.000  Zn
  Zn8      1.0000 0.21282  0.78718  0.71282  Biso   1.000  Zn
  Zn9      1.0000 0.78718  0.78718  0.28718  Biso   1.000  Zn
  Zn10     1.0000 0.78718  0.21282  0.71282  Biso   1.000  Zn
  Zn11     1.0000 0.28718  0.71282  0.71282  Biso   1.000  Zn
  Zn12     1.0000 0.71282  0.21282  0.78718  Biso   1.000  Zn
  Zn13     1.0000 0.71282  0.71282  0.28718  Biso   1.000  Zn
  Zn14     1.0000 0.28718  0.78718  0.78718  Biso   1.000  Zn
  Zn15     1.0000 0.71282  0.78718  0.21282  Biso   1.000  Zn
  Zn16     1.0000 0.71282  0.28718  0.71282  Biso   1.000  Zn
  Zn17     1.0000 0.28718  0.21282  0.78718  Biso   1.000  Zn
  Zn18     1.0000 0.28718  0.71282  0.28718  Biso   1.000  Zn
  Zn19     1.0000 0.71282  0.78718  0.78718  Biso   1.000  Zn
  Zn20     1.0000 0.71282  0.28718  0.28718  Biso   1.000  Zn
  Zn21     1.0000 0.21282  0.78718  0.28718  Biso   1.000  Zn
  Zn22     1.0000 0.21282  0.28718  0.78718  Biso   1.000  Zn
  Zn23     1.0000 0.28718  0.78718  0.21282  Biso   1.000  Zn
  Zn24     1.0000 0.28718  0.28718  0.71282  Biso   1.000  Zn
  Zn25     1.0000 0.71282  0.21282  0.21282  Biso   1.000  Zn
  Zn26     1.0000 0.71282  0.71282  0.71282  Biso   1.000  Zn
  Zn27     1.0000 0.21282  0.21282  0.71282  Biso   1.000  Zn
  Zn28     1.0000 0.78718  0.21282  0.28718  Biso   1.000  Zn
  Zn29     1.0000 0.78718  0.78718  0.71282  Biso   1.000  Zn
  Zn30     1.0000 0.78718  0.28718  0.21282  Biso   1.000  Zn
  Zn31     1.0000 0.21282  0.71282  0.21282  Biso   1.000  Zn
  Zn32     1.0000 0.78718  0.71282  0.78718  Biso   1.000  Zn
  O1       1.0000 0.25000  0.25000  0.25000  Biso   1.000  O
  O2       1.0000 0.75000  0.75000  0.25000  Biso   1.000  O
  O3       1.0000 0.75000  0.25000  0.75000  Biso   1.000  O
  O4       1.0000 0.25000  0.75000  0.75000  Biso   1.000  O
  O5       1.0000 0.25000  0.25000  0.75000  Biso   1.000  O
  O6       1.0000 0.75000  0.75000  0.75000  Biso   1.000  O
  O7       1.0000 0.75000  0.25000  0.25000  Biso   1.000  O
  O8       1.0000 0.25000  0.75000  0.25000  Biso   1.000  O
  O9       1.0000 0.15230  0.27540  0.22460  Biso   1.000  O
  C1       1.0000 0.06990  0.28200  0.21800  Biso   1.000  C
  C2       1.0000 0.02480  0.29050  0.20950  Biso   1.000  C
  C3       1.0000 0.99300  0.26590  0.23410  Biso   1.000  C
  C4       1.0000 0.05330  0.27300  0.22700  Biso   1.000  C
  O10      1.0000 0.65230  0.27540  0.72460  Biso   1.000  O
  C5       1.0000 0.56990  0.28200  0.71800  Biso   1.000  C
  C6       1.0000 0.52480  0.29050  0.70950  Biso   1.000  C
  C7       1.0000 0.49300  0.26590  0.73410  Biso   1.000  C
  C8       1.0000 0.55330  0.27300  0.72700  Biso   1.000  C
  O11      1.0000 0.84770  0.72460  0.22460  Biso   1.000  O
  C9       1.0000 0.93010  0.71800  0.21800  Biso   1.000  C
  C10      1.0000 0.97520  0.70950  0.20950  Biso   1.000  C
  C11      1.0000 0.00700  0.73410  0.23410  Biso   1.000  C
  C12      1.0000 0.94670  0.72700  0.22700  Biso   1.000  C
  O12      1.0000 0.34770  0.72460  0.72460  Biso   1.000  O
  C13      1.0000 0.43010  0.71800  0.71800  Biso   1.000  C
  C14      1.0000 0.47520  0.70950  0.70950  Biso   1.000  C
  C15      1.0000 0.50700  0.73410  0.73410  Biso   1.000  C
  C16      1.0000 0.44670  0.72700  0.72700  Biso   1.000  C
  O13      1.0000 0.34770  0.22460  0.22460  Biso   1.000  O
  C17      1.0000 0.43010  0.21800  0.21800  Biso   1.000  C
  C18      1.0000 0.47520  0.20950  0.20950  Biso   1.000  C
  C19      1.0000 0.50700  0.23410  0.23410  Biso   1.000  C
  C20      1.0000 0.44670  0.22700  0.22700  Biso   1.000  C
  O14      1.0000 0.84770  0.27540  0.77540  Biso   1.000  O
  C21      1.0000 0.93010  0.28200  0.78200  Biso   1.000  C
  C22      1.0000 0.97520  0.29050  0.79050  Biso   1.000  C
  C23      1.0000 0.00700  0.26590  0.76590  Biso   1.000  C
  C24      1.0000 0.94670  0.27300  0.77300  Biso   1.000  C
  O15      1.0000 0.34770  0.27540  0.27540  Biso   1.000  O
  C25      1.0000 0.43010  0.28200  0.28200  Biso   1.000  C
  C26      1.0000 0.47520  0.29050  0.29050  Biso   1.000  C
  C27      1.0000 0.50700  0.26590  0.26590  Biso   1.000  C
  C28      1.0000 0.44670  0.27300  0.27300  Biso   1.000  C
  O16      1.0000 0.15230  0.72460  0.77540  Biso   1.000  O
  C29      1.0000 0.06990  0.71800  0.78200  Biso   1.000  C
  C30      1.0000 0.02480  0.70950  0.79050  Biso   1.000  C
  C31      1.0000 0.99300  0.73410  0.76590  Biso   1.000  C
  C32      1.0000 0.05330  0.72700  0.77300  Biso   1.000  C
  O17      1.0000 0.15230  0.22460  0.27540  Biso   1.000  O
  C33      1.0000 0.06990  0.21800  0.28200  Biso   1.000  C
  C34      1.0000 0.02480  0.20950  0.29050  Biso   1.000  C
  C35      1.0000 0.99300  0.23410  0.26590  Biso   1.000  C
  C36      1.0000 0.05330  0.22700  0.27300  Biso   1.000  C
  O18      1.0000 0.65230  0.72460  0.27540  Biso   1.000  O
  C37      1.0000 0.56990  0.71800  0.28200  Biso   1.000  C
  C38      1.0000 0.52480  0.70950  0.29050  Biso   1.000  C
  C39      1.0000 0.49300  0.73410  0.26590  Biso   1.000  C
  C40      1.0000 0.55330  0.72700  0.27300  Biso   1.000  C
  O19      1.0000 0.22460  0.15230  0.27540  Biso   1.000  O
  C41      1.0000 0.21800  0.06990  0.28200  Biso   1.000  C
  C42      1.0000 0.20950  0.02480  0.29050  Biso   1.000  C
  C43      1.0000 0.23410  0.99300  0.26590  Biso   1.000  C
  C44      1.0000 0.22700  0.05330  0.27300  Biso   1.000  C
  O20      1.0000 0.22460  0.65230  0.77540  Biso   1.000  O
  C45      1.0000 0.21800  0.56990  0.78200  Biso   1.000  C
  C46      1.0000 0.20950  0.52480  0.79050  Biso   1.000  C
  C47      1.0000 0.23410  0.49300  0.76590  Biso   1.000  C
  C48      1.0000 0.22700  0.55330  0.77300  Biso   1.000  C
  O21      1.0000 0.22460  0.84770  0.72460  Biso   1.000  O
  C49      1.0000 0.21800  0.93010  0.71800  Biso   1.000  C
  C50      1.0000 0.20950  0.97520  0.70950  Biso   1.000  C
  C51      1.0000 0.23410  0.00700  0.73410  Biso   1.000  C
  C52      1.0000 0.22700  0.94670  0.72700  Biso   1.000  C
  O22      1.0000 0.22460  0.34770  0.22460  Biso   1.000  O
  C53      1.0000 0.21800  0.43010  0.21800  Biso   1.000  C
  C54      1.0000 0.20950  0.47520  0.20950  Biso   1.000  C
  C55      1.0000 0.23410  0.50700  0.23410  Biso   1.000  C
  C56      1.0000 0.22700  0.44670  0.22700  Biso   1.000  C
  O23      1.0000 0.77540  0.84770  0.27540  Biso   1.000  O
  C57      1.0000 0.78200  0.93010  0.28200  Biso   1.000  C
  C58      1.0000 0.79050  0.97520  0.29050  Biso   1.000  C
  C59      1.0000 0.76590  0.00700  0.26590  Biso   1.000  C
  C60      1.0000 0.77300  0.94670  0.27300  Biso   1.000  C
  O24      1.0000 0.77540  0.34770  0.77540  Biso   1.000  O
  C61      1.0000 0.78200  0.43010  0.78200  Biso   1.000  C
  C62      1.0000 0.79050  0.47520  0.79050  Biso   1.000  C
  C63      1.0000 0.76590  0.50700  0.76590  Biso   1.000  C
  C64      1.0000 0.77300  0.44670  0.77300  Biso   1.000  C
  O25      1.0000 0.27540  0.34770  0.27540  Biso   1.000  O
  C65      1.0000 0.28200  0.43010  0.28200  Biso   1.000  C
  C66      1.0000 0.29050  0.47520  0.29050  Biso   1.000  C
  C67      1.0000 0.26590  0.50700  0.26590  Biso   1.000  C
  C68      1.0000 0.27300  0.44670  0.27300  Biso   1.000  C
  O26      1.0000 0.77540  0.15230  0.72460  Biso   1.000  O
  C69      1.0000 0.78200  0.06990  0.71800  Biso   1.000  C
  C70      1.0000 0.79050  0.02480  0.70950  Biso   1.000  C
  C71      1.0000 0.76590  0.99300  0.73410  Biso   1.000  C
  C72      1.0000 0.77300  0.05330  0.72700  Biso   1.000  C
  O27      1.0000 0.77540  0.65230  0.22460  Biso   1.000  O
  C73      1.0000 0.78200  0.56990  0.21800  Biso   1.000  C
  C74      1.0000 0.79050  0.52480  0.20950  Biso   1.000  C
  C75      1.0000 0.76590  0.49300  0.23410  Biso   1.000  C
  C76      1.0000 0.77300  0.55330  0.22700  Biso   1.000  C
  O28      1.0000 0.27540  0.15230  0.22460  Biso   1.000  O
  C77      1.0000 0.28200  0.06990  0.21800  Biso   1.000  C
  C78      1.0000 0.29050  0.02480  0.20950  Biso   1.000  C
  C79      1.0000 0.26590  0.99300  0.23410  Biso   1.000  C
  C80      1.0000 0.27300  0.05330  0.22700  Biso   1.000  C
  O29      1.0000 0.27540  0.22460  0.15230  Biso   1.000  O
  C81      1.0000 0.28200  0.21800  0.06990  Biso   1.000  C
  C82      1.0000 0.29050  0.20950  0.02480  Biso   1.000  C
  C83      1.0000 0.26590  0.23410  0.99300  Biso   1.000  C
  C84      1.0000 0.27300  0.22700  0.05330  Biso   1.000  C
  O30      1.0000 0.27540  0.72460  0.65230  Biso   1.000  O
  C85      1.0000 0.28200  0.71800  0.56990  Biso   1.000  C
  C86      1.0000 0.29050  0.70950  0.52480  Biso   1.000  C
  C87      1.0000 0.26590  0.73410  0.49300  Biso   1.000  C
  C88      1.0000 0.27300  0.72700  0.55330  Biso   1.000  C
  O31      1.0000 0.72460  0.22460  0.84770  Biso   1.000  O
  C89      1.0000 0.71800  0.21800  0.93010  Biso   1.000  C
  C90      1.0000 0.70950  0.20950  0.97520  Biso   1.000  C
  C91      1.0000 0.73410  0.23410  0.00700  Biso   1.000  C
  C92      1.0000 0.72700  0.22700  0.94670  Biso   1.000  C
  O32      1.0000 0.72460  0.72460  0.34770  Biso   1.000  O
  C93      1.0000 0.71800  0.71800  0.43010  Biso   1.000  C
  C94      1.0000 0.70950  0.70950  0.47520  Biso   1.000  C
  C95      1.0000 0.73410  0.73410  0.50700  Biso   1.000  C
  C96      1.0000 0.72700  0.72700  0.44670  Biso   1.000  C
  O33      1.0000 0.22460  0.22460  0.34770  Biso   1.000  O
  C97      1.0000 0.21800  0.21800  0.43010  Biso   1.000  C
  C98      1.0000 0.20950  0.20950  0.47520  Biso   1.000  C
  C99      1.0000 0.23410  0.23410  0.50700  Biso   1.000  C
  C100     1.0000 0.22700  0.22700  0.44670  Biso   1.000  C
  O34      1.0000 0.27540  0.77540  0.84770  Biso   1.000  O
  C101     1.0000 0.28200  0.78200  0.93010  Biso   1.000  C
  C102     1.0000 0.29050  0.79050  0.97520  Biso   1.000  C
  C103     1.0000 0.26590  0.76590  0.00700  Biso   1.000  C
  C104     1.0000 0.27300  0.77300  0.94670  Biso   1.000  C
  O35      1.0000 0.27540  0.27540  0.34770  Biso   1.000  O
  C105     1.0000 0.28200  0.28200  0.43010  Biso   1.000  C
  C106     1.0000 0.29050  0.29050  0.47520  Biso   1.000  C
  C107     1.0000 0.26590  0.26590  0.50700  Biso   1.000  C
  C108     1.0000 0.27300  0.27300  0.44670  Biso   1.000  C
  O36      1.0000 0.72460  0.77540  0.15230  Biso   1.000  O
  C109     1.0000 0.71800  0.78200  0.06990  Biso   1.000  C
  C110     1.0000 0.70950  0.79050  0.02480  Biso   1.000  C
  C111     1.0000 0.73410  0.76590  0.99300  Biso   1.000  C
  C112     1.0000 0.72700  0.77300  0.05330  Biso   1.000  C
  O37      1.0000 0.72460  0.27540  0.65230  Biso   1.000  O
  C113     1.0000 0.71800  0.28200  0.56990  Biso   1.000  C
  C114     1.0000 0.70950  0.29050  0.52480  Biso   1.000  C
  C115     1.0000 0.73410  0.26590  0.49300  Biso   1.000  C
  C116     1.0000 0.72700  0.27300  0.55330  Biso   1.000  C
  O38      1.0000 0.22460  0.27540  0.15230  Biso   1.000  O
  C117     1.0000 0.21800  0.28200  0.06990  Biso   1.000  C
  C118     1.0000 0.20950  0.29050  0.02480  Biso   1.000  C
  C119     1.0000 0.23410  0.26590  0.99300  Biso   1.000  C
  C120     1.0000 0.22700  0.27300  0.05330  Biso   1.000  C
  O39      1.0000 0.27540  0.15230  0.77540  Biso   1.000  O
  C121     1.0000 0.28200  0.06990  0.78200  Biso   1.000  C
  C122     1.0000 0.29050  0.02480  0.79050  Biso   1.000  C
  C123     1.0000 0.26590  0.99300  0.76590  Biso   1.000  C
  C124     1.0000 0.27300  0.05330  0.77300  Biso   1.000  C
  O40      1.0000 0.27540  0.65230  0.27540  Biso   1.000  O
  C125     1.0000 0.28200  0.56990  0.28200  Biso   1.000  C
  C126     1.0000 0.29050  0.52480  0.29050  Biso   1.000  C
  C127     1.0000 0.26590  0.49300  0.26590  Biso   1.000  C
  C128     1.0000 0.27300  0.55330  0.27300  Biso   1.000  C
  O41      1.0000 0.72460  0.84770  0.77540  Biso   1.000  O
  C129     1.0000 0.71800  0.93010  0.78200  Biso   1.000  C
  C130     1.0000 0.70950  0.97520  0.79050  Biso   1.000  C
  C131     1.0000 0.73410  0.00700  0.76590  Biso   1.000  C
  C132     1.0000 0.72700  0.94670  0.77300  Biso   1.000  C
  O42      1.0000 0.72460  0.34770  0.27540  Biso   1.000  O
  C133     1.0000 0.71800  0.43010  0.28200  Biso   1.000  C
  C134     1.0000 0.70950  0.47520  0.29050  Biso   1.000  C
  C135     1.0000 0.73410  0.50700  0.26590  Biso   1.000  C
  C136     1.0000 0.72700  0.44670  0.27300  Biso   1.000  C
  O43      1.0000 0.22460  0.84770  0.27540  Biso   1.000  O
  C137     1.0000 0.21800  0.93010  0.28200  Biso   1.000  C
  C138     1.0000 0.20950  0.97520  0.29050  Biso   1.000  C
  C139     1.0000 0.23410  0.00700  0.26590  Biso   1.000  C
  C140     1.0000 0.22700  0.94670  0.27300  Biso   1.000  C
  O44      1.0000 0.27540  0.84770  0.22460  Biso   1.000  O
  C141     1.0000 0.28200  0.93010  0.21800  Biso   1.000  C
  C142     1.0000 0.29050  0.97520  0.20950  Biso   1.000  C
  C143     1.0000 0.26590  0.00700  0.23410  Biso   1.000  C
  C144     1.0000 0.27300  0.94670  0.22700  Biso   1.000  C
  O45      1.0000 0.27540  0.34770  0.72460  Biso   1.000  O
  C145     1.0000 0.28200  0.43010  0.71800  Biso   1.000  C
  C146     1.0000 0.29050  0.47520  0.70950  Biso   1.000  C
  C147     1.0000 0.26590  0.50700  0.73410  Biso   1.000  C
  C148     1.0000 0.27300  0.44670  0.72700  Biso   1.000  C
  O46      1.0000 0.72460  0.15230  0.22460  Biso   1.000  O
  C149     1.0000 0.71800  0.06990  0.21800  Biso   1.000  C
  C150     1.0000 0.70950  0.02480  0.20950  Biso   1.000  C
  C151     1.0000 0.73410  0.99300  0.23410  Biso   1.000  C
  C152     1.0000 0.72700  0.05330  0.22700  Biso   1.000  C
  O47      1.0000 0.72460  0.65230  0.72460  Biso   1.000  O
  C153     1.0000 0.71800  0.56990  0.71800  Biso   1.000  C
  C154     1.0000 0.70950  0.52480  0.70950  Biso   1.000  C
  C155     1.0000 0.73410  0.49300  0.73410  Biso   1.000  C
  C156     1.0000 0.72700  0.55330  0.72700  Biso   1.000  C
  O48      1.0000 0.22460  0.65230  0.22460  Biso   1.000  O
  C157     1.0000 0.21800  0.56990  0.21800  Biso   1.000  C
  C158     1.0000 0.20950  0.52480  0.20950  Biso   1.000  C
  C159     1.0000 0.23410  0.49300  0.23410  Biso   1.000  C
  C160     1.0000 0.22700  0.55330  0.22700  Biso   1.000  C
  O49      1.0000 0.15230  0.22460  0.72460  Biso   1.000  O
  C161     1.0000 0.06990  0.21800  0.71800  Biso   1.000  C
  C162     1.0000 0.02480  0.20950  0.70950  Biso   1.000  C
  C163     1.0000 0.99300  0.23410  0.73410  Biso   1.000  C
  C164     1.0000 0.05330  0.22700  0.72700  Biso   1.000  C
  O50      1.0000 0.65230  0.22460  0.22460  Biso   1.000  O
  C165     1.0000 0.56990  0.21800  0.21800  Biso   1.000  C
  C166     1.0000 0.52480  0.20950  0.20950  Biso   1.000  C
  C167     1.0000 0.49300  0.23410  0.23410  Biso   1.000  C
  C168     1.0000 0.55330  0.22700  0.22700  Biso   1.000  C
  O51      1.0000 0.84770  0.22460  0.27540  Biso   1.000  O
  C169     1.0000 0.93010  0.21800  0.28200  Biso   1.000  C
  C170     1.0000 0.97520  0.20950  0.29050  Biso   1.000  C
  C171     1.0000 0.00700  0.23410  0.26590  Biso   1.000  C
  C172     1.0000 0.94670  0.22700  0.27300  Biso   1.000  C
  O52      1.0000 0.34770  0.22460  0.77540  Biso   1.000  O
  C173     1.0000 0.43010  0.21800  0.78200  Biso   1.000  C
  C174     1.0000 0.47520  0.20950  0.79050  Biso   1.000  C
  C175     1.0000 0.50700  0.23410  0.76590  Biso   1.000  C
  C176     1.0000 0.44670  0.22700  0.77300  Biso   1.000  C
  O53      1.0000 0.84770  0.77540  0.72460  Biso   1.000  O
  C177     1.0000 0.93010  0.78200  0.71800  Biso   1.000  C
  C178     1.0000 0.97520  0.79050  0.70950  Biso   1.000  C
  C179     1.0000 0.00700  0.76590  0.73410  Biso   1.000  C
  C180     1.0000 0.94670  0.77300  0.72700  Biso   1.000  C
  O54      1.0000 0.84770  0.27540  0.22460  Biso   1.000  O
  C181     1.0000 0.93010  0.28200  0.21800  Biso   1.000  C
  C182     1.0000 0.97520  0.29050  0.20950  Biso   1.000  C
  C183     1.0000 0.00700  0.26590  0.23410  Biso   1.000  C
  C184     1.0000 0.94670  0.27300  0.22700  Biso   1.000  C
  O55      1.0000 0.34770  0.77540  0.22460  Biso   1.000  O
  C185     1.0000 0.43010  0.78200  0.21800  Biso   1.000  C
  C186     1.0000 0.47520  0.79050  0.20950  Biso   1.000  C
  C187     1.0000 0.50700  0.76590  0.23410  Biso   1.000  C
  C188     1.0000 0.44670  0.77300  0.22700  Biso   1.000  C
  O56      1.0000 0.15230  0.77540  0.27540  Biso   1.000  O
  C189     1.0000 0.06990  0.78200  0.28200  Biso   1.000  C
  C190     1.0000 0.02480  0.79050  0.29050  Biso   1.000  C
  C191     1.0000 0.99300  0.76590  0.26590  Biso   1.000  C
  C192     1.0000 0.05330  0.77300  0.27300  Biso   1.000  C
  O57      1.0000 0.65230  0.77540  0.77540  Biso   1.000  O
  C193     1.0000 0.56990  0.78200  0.78200  Biso   1.000  C
  C194     1.0000 0.52480  0.79050  0.79050  Biso   1.000  C
  C195     1.0000 0.49300  0.76590  0.76590  Biso   1.000  C
  C196     1.0000 0.55330  0.77300  0.77300  Biso   1.000  C
  O58      1.0000 0.65230  0.27540  0.27540  Biso   1.000  O
  C197     1.0000 0.56990  0.28200  0.28200  Biso   1.000  C
  C198     1.0000 0.52480  0.29050  0.29050  Biso   1.000  C
  C199     1.0000 0.49300  0.26590  0.26590  Biso   1.000  C
  C200     1.0000 0.55330  0.27300  0.27300  Biso   1.000  C
  O59      1.0000 0.22460  0.27540  0.84770  Biso   1.000  O
  C201     1.0000 0.21800  0.28200  0.93010  Biso   1.000  C
  C202     1.0000 0.20950  0.29050  0.97520  Biso   1.000  C
  C203     1.0000 0.23410  0.26590  0.00700  Biso   1.000  C
  C204     1.0000 0.22700  0.27300  0.94670  Biso   1.000  C
  O60      1.0000 0.22460  0.77540  0.34770  Biso   1.000  O
  C205     1.0000 0.21800  0.78200  0.43010  Biso   1.000  C
  C206     1.0000 0.20950  0.79050  0.47520  Biso   1.000  C
  C207     1.0000 0.23410  0.76590  0.50700  Biso   1.000  C
  C208     1.0000 0.22700  0.77300  0.44670  Biso   1.000  C
  O61      1.0000 0.22460  0.72460  0.15230  Biso   1.000  O
  C209     1.0000 0.21800  0.71800  0.06990  Biso   1.000  C
  C210     1.0000 0.20950  0.70950  0.02480  Biso   1.000  C
  C211     1.0000 0.23410  0.73410  0.99300  Biso   1.000  C
  C212     1.0000 0.22700  0.72700  0.05330  Biso   1.000  C
  O62      1.0000 0.22460  0.22460  0.65230  Biso   1.000  O
  C213     1.0000 0.21800  0.21800  0.56990  Biso   1.000  C
  C214     1.0000 0.20950  0.20950  0.52480  Biso   1.000  C
  C215     1.0000 0.23410  0.23410  0.49300  Biso   1.000  C
  C216     1.0000 0.22700  0.22700  0.55330  Biso   1.000  C
  O63      1.0000 0.77540  0.27540  0.15230  Biso   1.000  O
  C217     1.0000 0.78200  0.28200  0.06990  Biso   1.000  C
  C218     1.0000 0.79050  0.29050  0.02480  Biso   1.000  C
  C219     1.0000 0.76590  0.26590  0.99300  Biso   1.000  C
  C220     1.0000 0.77300  0.27300  0.05330  Biso   1.000  C
  O64      1.0000 0.77540  0.77540  0.65230  Biso   1.000  O
  C221     1.0000 0.78200  0.78200  0.56990  Biso   1.000  C
  C222     1.0000 0.79050  0.79050  0.52480  Biso   1.000  C
  C223     1.0000 0.76590  0.76590  0.49300  Biso   1.000  C
  C224     1.0000 0.77300  0.77300  0.55330  Biso   1.000  C
  O65      1.0000 0.27540  0.27540  0.65230  Biso   1.000  O
  C225     1.0000 0.28200  0.28200  0.56990  Biso   1.000  C
  C226     1.0000 0.29050  0.29050  0.52480  Biso   1.000  C
  C227     1.0000 0.26590  0.26590  0.49300  Biso   1.000  C
  C228     1.0000 0.27300  0.27300  0.55330  Biso   1.000  C
  O66      1.0000 0.77540  0.72460  0.84770  Biso   1.000  O
  C229     1.0000 0.78200  0.71800  0.93010  Biso   1.000  C
  C230     1.0000 0.79050  0.70950  0.97520  Biso   1.000  C
  C231     1.0000 0.76590  0.73410  0.00700  Biso   1.000  C
  C232     1.0000 0.77300  0.72700  0.94670  Biso   1.000  C
  O67      1.0000 0.77540  0.22460  0.34770  Biso   1.000  O
  C233     1.0000 0.78200  0.21800  0.43010  Biso   1.000  C
  C234     1.0000 0.79050  0.20950  0.47520  Biso   1.000  C
  C235     1.0000 0.76590  0.23410  0.50700  Biso   1.000  C
  C236     1.0000 0.77300  0.22700  0.44670  Biso   1.000  C
  O68      1.0000 0.27540  0.22460  0.84770  Biso   1.000  O
  C237     1.0000 0.28200  0.21800  0.93010  Biso   1.000  C
  C238     1.0000 0.29050  0.20950  0.97520  Biso   1.000  C
  C239     1.0000 0.26590  0.23410  0.00700  Biso   1.000  C
  C240     1.0000 0.27300  0.22700  0.94670  Biso   1.000  C
  O69      1.0000 0.84770  0.72460  0.77540  Biso   1.000  O
  C241     1.0000 0.93010  0.71800  0.78200  Biso   1.000  C
  C242     1.0000 0.97520  0.70950  0.79050  Biso   1.000  C
  C243     1.0000 0.00700  0.73410  0.76590  Biso   1.000  C
  C244     1.0000 0.94670  0.72700  0.77300  Biso   1.000  C
  O70      1.0000 0.34770  0.72460  0.27540  Biso   1.000  O
  C245     1.0000 0.43010  0.71800  0.28200  Biso   1.000  C
  C246     1.0000 0.47520  0.70950  0.29050  Biso   1.000  C
  C247     1.0000 0.50700  0.73410  0.26590  Biso   1.000  C
  C248     1.0000 0.44670  0.72700  0.27300  Biso   1.000  C
  O71      1.0000 0.15230  0.27540  0.77540  Biso   1.000  O
  C249     1.0000 0.06990  0.28200  0.78200  Biso   1.000  C
  C250     1.0000 0.02480  0.29050  0.79050  Biso   1.000  C
  C251     1.0000 0.99300  0.26590  0.76590  Biso   1.000  C
  C252     1.0000 0.05330  0.27300  0.77300  Biso   1.000  C
  O72      1.0000 0.15230  0.72460  0.22460  Biso   1.000  O
  C253     1.0000 0.06990  0.71800  0.21800  Biso   1.000  C
  C254     1.0000 0.02480  0.70950  0.20950  Biso   1.000  C
  C255     1.0000 0.99300  0.73410  0.23410  Biso   1.000  C
  C256     1.0000 0.05330  0.72700  0.22700  Biso   1.000  C
  O73      1.0000 0.65230  0.72460  0.72460  Biso   1.000  O
  C257     1.0000 0.56990  0.71800  0.71800  Biso   1.000  C
  C258     1.0000 0.52480  0.70950  0.70950  Biso   1.000  C
  C259     1.0000 0.49300  0.73410  0.73410  Biso   1.000  C
  C260     1.0000 0.55330  0.72700  0.72700  Biso   1.000  C
  O74      1.0000 0.34770  0.27540  0.72460  Biso   1.000  O
  C261     1.0000 0.43010  0.28200  0.71800  Biso   1.000  C
  C262     1.0000 0.47520  0.29050  0.70950  Biso   1.000  C
  C263     1.0000 0.50700  0.26590  0.73410  Biso   1.000  C
  C264     1.0000 0.44670  0.27300  0.72700  Biso   1.000  C
  O75      1.0000 0.77540  0.84770  0.72460  Biso   1.000  O
  C265     1.0000 0.78200  0.93010  0.71800  Biso   1.000  C
  C266     1.0000 0.79050  0.97520  0.70950  Biso   1.000  C
  C267     1.0000 0.76590  0.00700  0.73410  Biso   1.000  C
  C268     1.0000 0.77300  0.94670  0.72700  Biso   1.000  C
  O76      1.0000 0.77540  0.34770  0.22460  Biso   1.000  O
  C269     1.0000 0.78200  0.43010  0.21800  Biso   1.000  C
  C270     1.0000 0.79050  0.47520  0.20950  Biso   1.000  C
  C271     1.0000 0.76590  0.50700  0.23410  Biso   1.000  C
  C272     1.0000 0.77300  0.44670  0.22700  Biso   1.000  C
  O77      1.0000 0.77540  0.15230  0.27540  Biso   1.000  O
  C273     1.0000 0.78200  0.06990  0.28200  Biso   1.000  C
  C274     1.0000 0.79050  0.02480  0.29050  Biso   1.000  C
  C275     1.0000 0.76590  0.99300  0.26590  Biso   1.000  C
  C276     1.0000 0.77300  0.05330  0.27300  Biso   1.000  C
  O78      1.0000 0.77540  0.65230  0.77540  Biso   1.000  O
  C277     1.0000 0.78200  0.56990  0.78200  Biso   1.000  C
  C278     1.0000 0.79050  0.52480  0.79050  Biso   1.000  C
  C279     1.0000 0.76590  0.49300  0.76590  Biso   1.000  C
  C280     1.0000 0.77300  0.55330  0.77300  Biso   1.000  C
  O79      1.0000 0.22460  0.15230  0.72460  Biso   1.000  O
  C281     1.0000 0.21800  0.06990  0.71800  Biso   1.000  C
  C282     1.0000 0.20950  0.02480  0.70950  Biso   1.000  C
  C283     1.0000 0.23410  0.99300  0.73410  Biso   1.000  C
  C284     1.0000 0.22700  0.05330  0.72700  Biso   1.000  C
  O80      1.0000 0.22460  0.34770  0.77540  Biso   1.000  O
  C285     1.0000 0.21800  0.43010  0.78200  Biso   1.000  C
  C286     1.0000 0.20950  0.47520  0.79050  Biso   1.000  C
  C287     1.0000 0.23410  0.50700  0.76590  Biso   1.000  C
  C288     1.0000 0.22700  0.44670  0.77300  Biso   1.000  C
  O81      1.0000 0.72460  0.77540  0.84770  Biso   1.000  O
  C289     1.0000 0.71800  0.78200  0.93010  Biso   1.000  C
  C290     1.0000 0.70950  0.79050  0.97520  Biso   1.000  C
  C291     1.0000 0.73410  0.76590  0.00700  Biso   1.000  C
  C292     1.0000 0.72700  0.77300  0.94670  Biso   1.000  C
  O82      1.0000 0.72460  0.27540  0.34770  Biso   1.000  O
  C293     1.0000 0.71800  0.28200  0.43010  Biso   1.000  C
  C294     1.0000 0.70950  0.29050  0.47520  Biso   1.000  C
  C295     1.0000 0.73410  0.26590  0.50700  Biso   1.000  C
  C296     1.0000 0.72700  0.27300  0.44670  Biso   1.000  C
  O83      1.0000 0.27540  0.77540  0.15230  Biso   1.000  O
  C297     1.0000 0.28200  0.78200  0.06990  Biso   1.000  C
  C298     1.0000 0.29050  0.79050  0.02480  Biso   1.000  C
  C299     1.0000 0.26590  0.76590  0.99300  Biso   1.000  C
  C300     1.0000 0.27300  0.77300  0.05330  Biso   1.000  C
  O84      1.0000 0.72460  0.22460  0.15230  Biso   1.000  O
  C301     1.0000 0.71800  0.21800  0.06990  Biso   1.000  C
  C302     1.0000 0.70950  0.20950  0.02480  Biso   1.000  C
  C303     1.0000 0.73410  0.23410  0.99300  Biso   1.000  C
  C304     1.0000 0.72700  0.22700  0.05330  Biso   1.000  C
  O85      1.0000 0.72460  0.72460  0.65230  Biso   1.000  O
  C305     1.0000 0.71800  0.71800  0.56990  Biso   1.000  C
  C306     1.0000 0.70950  0.70950  0.52480  Biso   1.000  C
  C307     1.0000 0.73410  0.73410  0.49300  Biso   1.000  C
  C308     1.0000 0.72700  0.72700  0.55330  Biso   1.000  C
  O86      1.0000 0.27540  0.72460  0.34770  Biso   1.000  O
  C309     1.0000 0.28200  0.71800  0.43010  Biso   1.000  C
  C310     1.0000 0.29050  0.70950  0.47520  Biso   1.000  C
  C311     1.0000 0.26590  0.73410  0.50700  Biso   1.000  C
  C312     1.0000 0.27300  0.72700  0.44670  Biso   1.000  C
  O87      1.0000 0.72460  0.84770  0.22460  Biso   1.000  O
  C313     1.0000 0.71800  0.93010  0.21800  Biso   1.000  C
  C314     1.0000 0.70950  0.97520  0.20950  Biso   1.000  C
  C315     1.0000 0.73410  0.00700  0.23410  Biso   1.000  C
  C316     1.0000 0.72700  0.94670  0.22700  Biso   1.000  C
  O88      1.0000 0.72460  0.34770  0.72460  Biso   1.000  O
  C317     1.0000 0.71800  0.43010  0.71800  Biso   1.000  C
  C318     1.0000 0.70950  0.47520  0.70950  Biso   1.000  C
  C319     1.0000 0.73410  0.50700  0.73410  Biso   1.000  C
  C320     1.0000 0.72700  0.44670  0.72700  Biso   1.000  C
  O89      1.0000 0.27540  0.65230  0.72460  Biso   1.000  O
  C321     1.0000 0.28200  0.56990  0.71800  Biso   1.000  C
  C322     1.0000 0.29050  0.52480  0.70950  Biso   1.000  C
  C323     1.0000 0.26590  0.49300  0.73410  Biso   1.000  C
  C324     1.0000 0.27300  0.55330  0.72700  Biso   1.000  C
  O90      1.0000 0.72460  0.15230  0.77540  Biso   1.000  O
  C325     1.0000 0.71800  0.06990  0.78200  Biso   1.000  C
  C326     1.0000 0.70950  0.02480  0.79050  Biso   1.000  C
  C327     1.0000 0.73410  0.99300  0.76590  Biso   1.000  C
  C328     1.0000 0.72700  0.05330  0.77300  Biso   1.000  C
  O91      1.0000 0.72460  0.65230  0.27540  Biso   1.000  O
  C329     1.0000 0.71800  0.56990  0.28200  Biso   1.000  C
  C330     1.0000 0.70950  0.52480  0.29050  Biso   1.000  C
  C331     1.0000 0.73410  0.49300  0.26590  Biso   1.000  C
  C332     1.0000 0.72700  0.55330  0.27300  Biso   1.000  C
  O92      1.0000 0.27540  0.84770  0.77540  Biso   1.000  O
  C333     1.0000 0.28200  0.93010  0.78200  Biso   1.000  C
  C334     1.0000 0.29050  0.97520  0.79050  Biso   1.000  C
  C335     1.0000 0.26590  0.00700  0.76590  Biso   1.000  C
  C336     1.0000 0.27300  0.94670  0.77300  Biso   1.000  C
  O93      1.0000 0.84770  0.77540  0.27540  Biso   1.000  O
  C337     1.0000 0.93010  0.78200  0.28200  Biso   1.000  C
  C338     1.0000 0.97520  0.79050  0.29050  Biso   1.000  C
  C339     1.0000 0.00700  0.76590  0.26590  Biso   1.000  C
  C340     1.0000 0.94670  0.77300  0.27300  Biso   1.000  C
  O94      1.0000 0.34770  0.77540  0.77540  Biso   1.000  O
  C341     1.0000 0.43010  0.78200  0.78200  Biso   1.000  C
  C342     1.0000 0.47520  0.79050  0.79050  Biso   1.000  C
  C343     1.0000 0.50700  0.76590  0.76590  Biso   1.000  C
  C344     1.0000 0.44670  0.77300  0.77300  Biso   1.000  C
  O95      1.0000 0.15230  0.77540  0.72460  Biso   1.000  O
  C345     1.0000 0.06990  0.78200  0.71800  Biso   1.000  C
  C346     1.0000 0.02480  0.79050  0.70950  Biso   1.000  C
  C347     1.0000 0.99300  0.76590  0.73410  Biso   1.000  C
  C348     1.0000 0.05330  0.77300  0.72700  Biso   1.000  C
  O96      1.0000 0.65230  0.77540  0.22460  Biso   1.000  O
  C349     1.0000 0.56990  0.78200  0.21800  Biso   1.000  C
  C350     1.0000 0.52480  0.79050  0.20950  Biso   1.000  C
  C351     1.0000 0.49300  0.76590  0.23410  Biso   1.000  C
  C352     1.0000 0.55330  0.77300  0.22700  Biso   1.000  C
  O97      1.0000 0.65230  0.22460  0.77540  Biso   1.000  O
  C353     1.0000 0.56990  0.21800  0.78200  Biso   1.000  C
  C354     1.0000 0.52480  0.20950  0.79050  Biso   1.000  C
  C355     1.0000 0.49300  0.23410  0.76590  Biso   1.000  C
  C356     1.0000 0.55330  0.22700  0.77300  Biso   1.000  C
  O98      1.0000 0.84770  0.22460  0.72460  Biso   1.000  O
  C357     1.0000 0.93010  0.21800  0.71800  Biso   1.000  C
  C358     1.0000 0.97520  0.20950  0.70950  Biso   1.000  C
  C359     1.0000 0.00700  0.23410  0.73410  Biso   1.000  C
  C360     1.0000 0.94670  0.22700  0.72700  Biso   1.000  C
  O99      1.0000 0.77540  0.72460  0.15230  Biso   1.000  O
  C361     1.0000 0.78200  0.71800  0.06990  Biso   1.000  C
  C362     1.0000 0.79050  0.70950  0.02480  Biso   1.000  C
  C363     1.0000 0.76590  0.73410  0.99300  Biso   1.000  C
  C364     1.0000 0.77300  0.72700  0.05330  Biso   1.000  C
  O100     1.0000 0.77540  0.22460  0.65230  Biso   1.000  O
  C365     1.0000 0.78200  0.21800  0.56990  Biso   1.000  C
  C366     1.0000 0.79050  0.20950  0.52480  Biso   1.000  C
  C367     1.0000 0.76590  0.23410  0.49300  Biso   1.000  C
  C368     1.0000 0.77300  0.22700  0.55330  Biso   1.000  C
  O101     1.0000 0.77540  0.27540  0.84770  Biso   1.000  O
  C369     1.0000 0.78200  0.28200  0.93010  Biso   1.000  C
  C370     1.0000 0.79050  0.29050  0.97520  Biso   1.000  C
  C371     1.0000 0.76590  0.26590  0.00700  Biso   1.000  C
  C372     1.0000 0.77300  0.27300  0.94670  Biso   1.000  C
  O102     1.0000 0.77540  0.77540  0.34770  Biso   1.000  O
  C373     1.0000 0.78200  0.78200  0.43010  Biso   1.000  C
  C374     1.0000 0.79050  0.79050  0.47520  Biso   1.000  C
  C375     1.0000 0.76590  0.76590  0.50700  Biso   1.000  C
  C376     1.0000 0.77300  0.77300  0.44670  Biso   1.000  C
  O103     1.0000 0.22460  0.72460  0.84770  Biso   1.000  O
  C377     1.0000 0.21800  0.71800  0.93010  Biso   1.000  C
  C378     1.0000 0.20950  0.70950  0.97520  Biso   1.000  C
  C379     1.0000 0.23410  0.73410  0.00700  Biso   1.000  C
  C380     1.0000 0.22700  0.72700  0.94670  Biso   1.000  C
  O104     1.0000 0.22460  0.77540  0.65230  Biso   1.000  O
  C381     1.0000 0.21800  0.78200  0.56990  Biso   1.000  C
  C382     1.0000 0.20950  0.79050  0.52480  Biso   1.000  C
  C383     1.0000 0.23410  0.76590  0.49300  Biso   1.000  C
  C384     1.0000 0.22700  0.77300  0.55330  Biso   1.000  C
  C385     1.0000 0.13250  0.25000  0.25000  Biso   1.000  C
  C386     1.0000 0.08330  0.25000  0.25000  Biso   1.000  C
  C387     1.0000 0.63250  0.25000  0.75000  Biso   1.000  C
  C388     1.0000 0.58330  0.25000  0.75000  Biso   1.000  C
  C389     1.0000 0.86750  0.75000  0.25000  Biso   1.000  C
  C390     1.0000 0.91670  0.75000  0.25000  Biso   1.000  C
  C391     1.0000 0.36750  0.75000  0.75000  Biso   1.000  C
  C392     1.0000 0.41670  0.75000  0.75000  Biso   1.000  C
  C393     1.0000 0.36750  0.25000  0.25000  Biso   1.000  C
  C394     1.0000 0.41670  0.25000  0.25000  Biso   1.000  C
  C395     1.0000 0.86750  0.25000  0.75000  Biso   1.000  C
  C396     1.0000 0.91670  0.25000  0.75000  Biso   1.000  C
  C397     1.0000 0.13250  0.75000  0.75000  Biso   1.000  C
  C398     1.0000 0.08330  0.75000  0.75000  Biso   1.000  C
  C399     1.0000 0.63250  0.75000  0.25000  Biso   1.000  C
  C400     1.0000 0.58330  0.75000  0.25000  Biso   1.000  C
  C401     1.0000 0.25000  0.13250  0.25000  Biso   1.000  C
  C402     1.0000 0.25000  0.08330  0.25000  Biso   1.000  C
  C403     1.0000 0.25000  0.63250  0.75000  Biso   1.000  C
  C404     1.0000 0.25000  0.58330  0.75000  Biso   1.000  C
  C405     1.0000 0.25000  0.86750  0.75000  Biso   1.000  C
  C406     1.0000 0.25000  0.91670  0.75000  Biso   1.000  C
  C407     1.0000 0.25000  0.36750  0.25000  Biso   1.000  C
  C408     1.0000 0.25000  0.41670  0.25000  Biso   1.000  C
  C409     1.0000 0.75000  0.86750  0.25000  Biso   1.000  C
  C410     1.0000 0.75000  0.91670  0.25000  Biso   1.000  C
  C411     1.0000 0.75000  0.36750  0.75000  Biso   1.000  C
  C412     1.0000 0.75000  0.41670  0.75000  Biso   1.000  C
  C413     1.0000 0.75000  0.13250  0.75000  Biso   1.000  C
  C414     1.0000 0.75000  0.08330  0.75000  Biso   1.000  C
  C415     1.0000 0.75000  0.63250  0.25000  Biso   1.000  C
  C416     1.0000 0.75000  0.58330  0.25000  Biso   1.000  C
  C417     1.0000 0.25000  0.25000  0.13250  Biso   1.000  C
  C418     1.0000 0.25000  0.25000  0.08330  Biso   1.000  C
  C419     1.0000 0.25000  0.75000  0.63250  Biso   1.000  C
  C420     1.0000 0.25000  0.75000  0.58330  Biso   1.000  C
  C421     1.0000 0.75000  0.25000  0.86750  Biso   1.000  C
  C422     1.0000 0.75000  0.25000  0.91670  Biso   1.000  C
  C423     1.0000 0.75000  0.75000  0.36750  Biso   1.000  C
  C424     1.0000 0.75000  0.75000  0.41670  Biso   1.000  C
  C425     1.0000 0.25000  0.25000  0.36750  Biso   1.000  C
  C426     1.0000 0.25000  0.25000  0.41670  Biso   1.000  C
  C427     1.0000 0.25000  0.75000  0.86750  Biso   1.000  C
  C428     1.0000 0.25000  0.75000  0.91670  Biso   1.000  C
  C429     1.0000 0.75000  0.75000  0.13250  Biso   1.000  C
  C430     1.0000 0.75000  0.75000  0.08330  Biso   1.000  C
  C431     1.0000 0.75000  0.25000  0.63250  Biso   1.000  C
  C432     1.0000 0.75000  0.25000  0.58330  Biso   1.000  C
  C433     1.0000 0.25000  0.13250  0.75000  Biso   1.000  C
  C434     1.0000 0.25000  0.08330  0.75000  Biso   1.000  C
  C435     1.0000 0.25000  0.63250  0.25000  Biso   1.000  C
  C436     1.0000 0.25000  0.58330  0.25000  Biso   1.000  C
  C437     1.0000 0.75000  0.86750  0.75000  Biso   1.000  C
  C438     1.0000 0.75000  0.91670  0.75000  Biso   1.000  C
  C439     1.0000 0.75000  0.36750  0.25000  Biso   1.000  C
  C440     1.0000 0.75000  0.41670  0.25000  Biso   1.000  C
  C441     1.0000 0.25000  0.86750  0.25000  Biso   1.000  C
  C442     1.0000 0.25000  0.91670  0.25000  Biso   1.000  C
  C443     1.0000 0.25000  0.36750  0.75000  Biso   1.000  C
  C444     1.0000 0.25000  0.41670  0.75000  Biso   1.000  C
  C445     1.0000 0.75000  0.13250  0.25000  Biso   1.000  C
  C446     1.0000 0.75000  0.08330  0.25000  Biso   1.000  C
  C447     1.0000 0.75000  0.63250  0.75000  Biso   1.000  C
  C448     1.0000 0.75000  0.58330  0.75000  Biso   1.000  C
  C449     1.0000 0.13250  0.25000  0.75000  Biso   1.000  C
  C450     1.0000 0.08330  0.25000  0.75000  Biso   1.000  C
  C451     1.0000 0.63250  0.25000  0.25000  Biso   1.000  C
  C452     1.0000 0.58330  0.25000  0.25000  Biso   1.000  C
  C453     1.0000 0.86750  0.25000  0.25000  Biso   1.000  C
  C454     1.0000 0.91670  0.25000  0.25000  Biso   1.000  C
  C455     1.0000 0.36750  0.25000  0.75000  Biso   1.000  C
  C456     1.0000 0.41670  0.25000  0.75000  Biso   1.000  C
  C457     1.0000 0.86750  0.75000  0.75000  Biso   1.000  C
  C458     1.0000 0.91670  0.75000  0.75000  Biso   1.000  C
  C459     1.0000 0.36750  0.75000  0.25000  Biso   1.000  C
  C460     1.0000 0.41670  0.75000  0.25000  Biso   1.000  C
  C461     1.0000 0.13250  0.75000  0.25000  Biso   1.000  C
  C462     1.0000 0.08330  0.75000  0.25000  Biso   1.000  C
  C463     1.0000 0.63250  0.75000  0.75000  Biso   1.000  C
  C464     1.0000 0.58330  0.75000  0.75000  Biso   1.000  C
  C465     1.0000 0.25000  0.25000  0.86750  Biso   1.000  C
  C466     1.0000 0.25000  0.25000  0.91670  Biso   1.000  C
  C467     1.0000 0.25000  0.75000  0.36750  Biso   1.000  C
  C468     1.0000 0.25000  0.75000  0.41670  Biso   1.000  C
  C469     1.0000 0.25000  0.75000  0.13250  Biso   1.000  C
  C470     1.0000 0.25000  0.75000  0.08330  Biso   1.000  C
  C471     1.0000 0.25000  0.25000  0.63250  Biso   1.000  C
  C472     1.0000 0.25000  0.25000  0.58330  Biso   1.000  C
  C473     1.0000 0.75000  0.25000  0.13250  Biso   1.000  C
  C474     1.0000 0.75000  0.25000  0.08330  Biso   1.000  C
  C475     1.0000 0.75000  0.75000  0.63250  Biso   1.000  C
  C476     1.0000 0.75000  0.75000  0.58330  Biso   1.000  C
  C477     1.0000 0.75000  0.75000  0.86750  Biso   1.000  C
  C478     1.0000 0.75000  0.75000  0.91670  Biso   1.000  C
  C479     1.0000 0.75000  0.25000  0.36750  Biso   1.000  C
  C480     1.0000 0.75000  0.25000  0.41670  Biso   1.000  C
