data_image0
_cell_length_a       17.1469
_cell_length_b       23.3222
_cell_length_c       25.2552
_cell_angle_alpha    90
_cell_angle_beta     90
_cell_angle_gamma    90

_symmetry_space_group_name_H-M    "P 1"
_symmetry_int_tables_number       1

loop_
  _symmetry_equiv_pos_as_xyz
  'x, y, z'

loop_
  _atom_site_label
  _atom_site_occupancy
  _atom_site_fract_x
  _atom_site_fract_y
  _atom_site_fract_z
  _atom_site_thermal_displace_type
  _atom_site_B_iso_or_equiv
  _atom_site_type_symbol
  Zn1      1.0000 0.83571  0.84821  0.93722  Biso   1.000  Zn
  O1       1.0000 0.68710  0.28230  0.39390  Biso   1.000  O
  O2       1.0000 0.78380  0.23650  0.43720  Biso   1.000  O
  O3       1.0000 0.72580  0.96707  0.06071  Biso   1.000  O
  O4       1.0000 0.80790  0.91330  0.10690  Biso   1.000  O
  O5       1.0000 0.94370  0.84580  0.95490  Biso   1.000  O
  C1       1.0000 0.74040  0.20090  0.35580  Biso   1.000  C
  C2       1.0000 0.79660  0.16010  0.35480  Biso   1.000  C
  H1       1.0000 0.83280  0.15770  0.38310  Biso   1.000  H
  C3       1.0000 0.80190  0.12120  0.31210  Biso   1.000  C
  H2       1.0000 0.84420  0.09490  0.31130  Biso   1.000  H
  C4       1.0000 0.74910  0.12000  0.27240  Biso   1.000  C
  C5       1.0000 0.69160  0.16170  0.27380  Biso   1.000  C
  H3       1.0000 0.65140  0.16150  0.24790  Biso   1.000  H
  C6       1.0000 0.69230  0.20300  0.31190  Biso   1.000  C
  H4       1.0000 0.65800  0.23480  0.30820  Biso   1.000  H
  C7       1.0000 0.75590  0.07890  0.22820  Biso   1.000  C
  C8       1.0000 0.71360  0.08480  0.18580  Biso   1.000  C
  H5       1.0000 0.67770  0.11570  0.18420  Biso   1.000  H
  C9       1.0000 0.71860  0.04700  0.14160  Biso   1.000  C
  H6       1.0000 0.69080  0.05540  0.11000  Biso   1.000  H
  C10      1.0000 0.76390  0.99820  0.14500  Biso   1.000  C
  C11      1.0000 0.79870  0.98790  0.19210  Biso   1.000  C
  H7       1.0000 0.82510  0.95270  0.19790  Biso   1.000  H
  C12      1.0000 0.79580  0.02910  0.23220  Biso   1.000  C
  H8       1.0000 0.82340  0.02170  0.26410  Biso   1.000  H
  C13      1.0000 0.73750  0.24200  0.39850  Biso   1.000  C
  C14      1.0000 0.76640  0.95690  0.10090  Biso   1.000  C
  C15      1.0000 0.10640  0.82310  0.96110  Biso   1.000  C
  H9       1.0000 0.07900  0.80460  0.93320  Biso   1.000  H
  C16      1.0000 0.18280  0.82440  0.95920  Biso   1.000  C
  H10      1.0000 0.20960  0.80670  0.93050  Biso   1.000  H
  C17      1.0000 0.10900  0.87160  0.95920  Biso   1.000  C
  H11      1.0000 0.08290  0.88820  0.92980  Biso   1.000  H
  C18      1.0000 0.18500  0.87240  0.96130  Biso   1.000  C
  H12      1.0000 0.21240  0.88900  0.93240  Biso   1.000  H
  Zn2      1.0000 0.66429  0.34821  0.56278  Biso   1.000  Zn
  O6       1.0000 0.81290  0.78230  0.10610  Biso   1.000  O
  O7       1.0000 0.71620  0.73650  0.06280  Biso   1.000  O
  O8       1.0000 0.77420  0.46707  0.43929  Biso   1.000  O
  O9       1.0000 0.69210  0.41330  0.39310  Biso   1.000  O
  O10      1.0000 0.55630  0.34580  0.54510  Biso   1.000  O
  C19      1.0000 0.75960  0.70090  0.14420  Biso   1.000  C
  C20      1.0000 0.70340  0.66010  0.14520  Biso   1.000  C
  H13      1.0000 0.66720  0.65770  0.11690  Biso   1.000  H
  C21      1.0000 0.69810  0.62120  0.18790  Biso   1.000  C
  H14      1.0000 0.65580  0.59490  0.18870  Biso   1.000  H
  C22      1.0000 0.75090  0.62000  0.22760  Biso   1.000  C
  C23      1.0000 0.80840  0.66170  0.22620  Biso   1.000  C
  H15      1.0000 0.84860  0.66150  0.25210  Biso   1.000  H
  C24      1.0000 0.80770  0.70300  0.18810  Biso   1.000  C
  H16      1.0000 0.84200  0.73480  0.19180  Biso   1.000  H
  C25      1.0000 0.74410  0.57890  0.27180  Biso   1.000  C
  C26      1.0000 0.78640  0.58480  0.31420  Biso   1.000  C
  H17      1.0000 0.82230  0.61570  0.31580  Biso   1.000  H
  C27      1.0000 0.78140  0.54700  0.35840  Biso   1.000  C
  H18      1.0000 0.80920  0.55540  0.39000  Biso   1.000  H
  C28      1.0000 0.73610  0.49820  0.35500  Biso   1.000  C
  C29      1.0000 0.70130  0.48790  0.30790  Biso   1.000  C
  H19      1.0000 0.67490  0.45270  0.30210  Biso   1.000  H
  C30      1.0000 0.70420  0.52910  0.26780  Biso   1.000  C
  H20      1.0000 0.67660  0.52170  0.23590  Biso   1.000  H
  C31      1.0000 0.76250  0.74200  0.10150  Biso   1.000  C
  C32      1.0000 0.73360  0.45690  0.39910  Biso   1.000  C
  C33      1.0000 0.39360  0.32310  0.53890  Biso   1.000  C
  H21      1.0000 0.42100  0.30460  0.56680  Biso   1.000  H
  C34      1.0000 0.31720  0.32440  0.54080  Biso   1.000  C
  H22      1.0000 0.29040  0.30670  0.56950  Biso   1.000  H
  C35      1.0000 0.39100  0.37160  0.54080  Biso   1.000  C
  H23      1.0000 0.41710  0.38820  0.57020  Biso   1.000  H
  C36      1.0000 0.31500  0.37240  0.53870  Biso   1.000  C
  H24      1.0000 0.28760  0.38900  0.56760  Biso   1.000  H
  Zn3      1.0000 0.83571  0.84821  0.06278  Biso   1.000  Zn
  O11      1.0000 0.68710  0.28230  0.60610  Biso   1.000  O
  O12      1.0000 0.78380  0.23650  0.56280  Biso   1.000  O
  O13      1.0000 0.72580  0.96707  0.93929  Biso   1.000  O
  O14      1.0000 0.80790  0.91330  0.89310  Biso   1.000  O
  O15      1.0000 0.94370  0.84580  0.04510  Biso   1.000  O
  C37      1.0000 0.74040  0.20090  0.64420  Biso   1.000  C
  C38      1.0000 0.79660  0.16010  0.64520  Biso   1.000  C
  H25      1.0000 0.83280  0.15770  0.61690  Biso   1.000  H
  C39      1.0000 0.80190  0.12120  0.68790  Biso   1.000  C
  H26      1.0000 0.84420  0.09490  0.68870  Biso   1.000  H
  C40      1.0000 0.74910  0.12000  0.72760  Biso   1.000  C
  C41      1.0000 0.69160  0.16170  0.72620  Biso   1.000  C
  H27      1.0000 0.65140  0.16150  0.75210  Biso   1.000  H
  C42      1.0000 0.69230  0.20300  0.68810  Biso   1.000  C
  H28      1.0000 0.65800  0.23480  0.69180  Biso   1.000  H
  C43      1.0000 0.75590  0.07890  0.77180  Biso   1.000  C
  C44      1.0000 0.71360  0.08480  0.81420  Biso   1.000  C
  H29      1.0000 0.67770  0.11570  0.81580  Biso   1.000  H
  C45      1.0000 0.71860  0.04700  0.85840  Biso   1.000  C
  H30      1.0000 0.69080  0.05540  0.89000  Biso   1.000  H
  C46      1.0000 0.76390  0.99820  0.85500  Biso   1.000  C
  C47      1.0000 0.79870  0.98790  0.80790  Biso   1.000  C
  H31      1.0000 0.82510  0.95270  0.80210  Biso   1.000  H
  C48      1.0000 0.79580  0.02910  0.76780  Biso   1.000  C
  H32      1.0000 0.82340  0.02170  0.73590  Biso   1.000  H
  C49      1.0000 0.73750  0.24200  0.60150  Biso   1.000  C
  C50      1.0000 0.76640  0.95690  0.89910  Biso   1.000  C
  C51      1.0000 0.10640  0.82310  0.03890  Biso   1.000  C
  H33      1.0000 0.07900  0.80460  0.06680  Biso   1.000  H
  C52      1.0000 0.18280  0.82440  0.04080  Biso   1.000  C
  H34      1.0000 0.20960  0.80670  0.06950  Biso   1.000  H
  C53      1.0000 0.10900  0.87160  0.04080  Biso   1.000  C
  H35      1.0000 0.08290  0.88820  0.07020  Biso   1.000  H
  C54      1.0000 0.18500  0.87240  0.03870  Biso   1.000  C
  H36      1.0000 0.21240  0.88900  0.06760  Biso   1.000  H
  Zn4      1.0000 0.66429  0.34821  0.43722  Biso   1.000  Zn
  O16      1.0000 0.81290  0.78230  0.89390  Biso   1.000  O
  O17      1.0000 0.71620  0.73650  0.93720  Biso   1.000  O
  O18      1.0000 0.77420  0.46707  0.56071  Biso   1.000  O
  O19      1.0000 0.69210  0.41330  0.60690  Biso   1.000  O
  O20      1.0000 0.55630  0.34580  0.45490  Biso   1.000  O
  C55      1.0000 0.75960  0.70090  0.85580  Biso   1.000  C
  C56      1.0000 0.70340  0.66010  0.85480  Biso   1.000  C
  H37      1.0000 0.66720  0.65770  0.88310  Biso   1.000  H
  C57      1.0000 0.69810  0.62120  0.81210  Biso   1.000  C
  H38      1.0000 0.65580  0.59490  0.81130  Biso   1.000  H
  C58      1.0000 0.75090  0.62000  0.77240  Biso   1.000  C
  C59      1.0000 0.80840  0.66170  0.77380  Biso   1.000  C
  H39      1.0000 0.84860  0.66150  0.74790  Biso   1.000  H
  C60      1.0000 0.80770  0.70300  0.81190  Biso   1.000  C
  H40      1.0000 0.84200  0.73480  0.80820  Biso   1.000  H
  C61      1.0000 0.74410  0.57890  0.72820  Biso   1.000  C
  C62      1.0000 0.78640  0.58480  0.68580  Biso   1.000  C
  H41      1.0000 0.82230  0.61570  0.68420  Biso   1.000  H
  C63      1.0000 0.78140  0.54700  0.64160  Biso   1.000  C
  H42      1.0000 0.80920  0.55540  0.61000  Biso   1.000  H
  C64      1.0000 0.73610  0.49820  0.64500  Biso   1.000  C
  C65      1.0000 0.70130  0.48790  0.69210  Biso   1.000  C
  H43      1.0000 0.67490  0.45270  0.69790  Biso   1.000  H
  C66      1.0000 0.70420  0.52910  0.73220  Biso   1.000  C
  H44      1.0000 0.67660  0.52170  0.76410  Biso   1.000  H
  C67      1.0000 0.76250  0.74200  0.89850  Biso   1.000  C
  C68      1.0000 0.73360  0.45690  0.60090  Biso   1.000  C
  C69      1.0000 0.39360  0.32310  0.46110  Biso   1.000  C
  H45      1.0000 0.42100  0.30460  0.43320  Biso   1.000  H
  C70      1.0000 0.31720  0.32440  0.45920  Biso   1.000  C
  H46      1.0000 0.29040  0.30670  0.43050  Biso   1.000  H
  C71      1.0000 0.39100  0.37160  0.45920  Biso   1.000  C
  H47      1.0000 0.41710  0.38820  0.42980  Biso   1.000  H
  C72      1.0000 0.31500  0.37240  0.46130  Biso   1.000  C
  H48      1.0000 0.28760  0.38900  0.43240  Biso   1.000  H
  Zn5      1.0000 0.70808  0.91810  0.00000  Biso   1.000  Zn
  Zn6      1.0000 0.70198  0.78202  0.00000  Biso   1.000  Zn
  O21      1.0000 0.76950  0.84880  0.00000  Biso   1.000  O
  O22      1.0000 0.59550  0.90560  0.00000  Biso   1.000  O
  O23      1.0000 0.59590  0.80790  0.00000  Biso   1.000  O
  C73      1.0000 0.97360  0.84340  0.00000  Biso   1.000  C
  C74      1.0000 0.06550  0.84660  0.00000  Biso   1.000  C
  C75      1.0000 0.22520  0.85220  0.00000  Biso   1.000  C
  C76      1.0000 0.31180  0.85710  0.00000  Biso   1.000  C
  C77      1.0000 0.35290  0.80870  0.00000  Biso   1.000  C
  H49      1.0000 0.32610  0.77300  0.00000  Biso   1.000  H
  C78      1.0000 0.43690  0.80890  0.00000  Biso   1.000  C
  H50      1.0000 0.46450  0.77350  0.00000  Biso   1.000  H
  C79      1.0000 0.47620  0.85800  0.00000  Biso   1.000  C
  C80      1.0000 0.43230  0.90640  0.00000  Biso   1.000  C
  H51      1.0000 0.45820  0.94240  0.00000  Biso   1.000  H
  C81      1.0000 0.35170  0.90600  0.00000  Biso   1.000  C
  H52      1.0000 0.32420  0.94140  0.00000  Biso   1.000  H
  C82      1.0000 0.56150  0.85650  0.00000  Biso   1.000  C
  Zn7      1.0000 0.79192  0.41810  0.50000  Biso   1.000  Zn
  Zn8      1.0000 0.79802  0.28202  0.50000  Biso   1.000  Zn
  O24      1.0000 0.73050  0.34880  0.50000  Biso   1.000  O
  O25      1.0000 0.90450  0.40560  0.50000  Biso   1.000  O
  O26      1.0000 0.90410  0.30790  0.50000  Biso   1.000  O
  C83      1.0000 0.52640  0.34340  0.50000  Biso   1.000  C
  C84      1.0000 0.43450  0.34660  0.50000  Biso   1.000  C
  C85      1.0000 0.27480  0.35220  0.50000  Biso   1.000  C
  C86      1.0000 0.18820  0.35710  0.50000  Biso   1.000  C
  C87      1.0000 0.14710  0.30870  0.50000  Biso   1.000  C
  H53      1.0000 0.17390  0.27300  0.50000  Biso   1.000  H
  C88      1.0000 0.06310  0.30890  0.50000  Biso   1.000  C
  H54      1.0000 0.03550  0.27350  0.50000  Biso   1.000  H
  C89      1.0000 0.02380  0.35800  0.50000  Biso   1.000  C
  C90      1.0000 0.06770  0.40640  0.50000  Biso   1.000  C
  H55      1.0000 0.04180  0.44240  0.50000  Biso   1.000  H
  C91      1.0000 0.14830  0.40600  0.50000  Biso   1.000  C
  H56      1.0000 0.17580  0.44140  0.50000  Biso   1.000  H
  C92      1.0000 0.93850  0.35650  0.50000  Biso   1.000  C
  Zn9      1.0000 0.16429  0.15179  0.93722  Biso   1.000  Zn
  O27      1.0000 0.31290  0.71770  0.39390  Biso   1.000  O
  O28      1.0000 0.21620  0.76350  0.43720  Biso   1.000  O
  O29      1.0000 0.27420  0.03293  0.06071  Biso   1.000  O
  O30      1.0000 0.19210  0.08670  0.10690  Biso   1.000  O
  O31      1.0000 0.05630  0.15420  0.95490  Biso   1.000  O
  C93      1.0000 0.25960  0.79910  0.35580  Biso   1.000  C
  C94      1.0000 0.20340  0.83990  0.35480  Biso   1.000  C
  H57      1.0000 0.16720  0.84230  0.38310  Biso   1.000  H
  C95      1.0000 0.19810  0.87880  0.31210  Biso   1.000  C
  H58      1.0000 0.15580  0.90510  0.31130  Biso   1.000  H
  C96      1.0000 0.25090  0.88000  0.27240  Biso   1.000  C
  C97      1.0000 0.30840  0.83830  0.27380  Biso   1.000  C
  H59      1.0000 0.34860  0.83850  0.24790  Biso   1.000  H
  C98      1.0000 0.30770  0.79700  0.31190  Biso   1.000  C
  H60      1.0000 0.34200  0.76520  0.30820  Biso   1.000  H
  C99      1.0000 0.24410  0.92110  0.22820  Biso   1.000  C
  C100     1.0000 0.28640  0.91520  0.18580  Biso   1.000  C
  H61      1.0000 0.32230  0.88430  0.18420  Biso   1.000  H
  C101     1.0000 0.28140  0.95300  0.14160  Biso   1.000  C
  H62      1.0000 0.30920  0.94460  0.11000  Biso   1.000  H
  C102     1.0000 0.23610  0.00180  0.14500  Biso   1.000  C
  C103     1.0000 0.20130  0.01210  0.19210  Biso   1.000  C
  H63      1.0000 0.17490  0.04730  0.19790  Biso   1.000  H
  C104     1.0000 0.20420  0.97090  0.23220  Biso   1.000  C
  H64      1.0000 0.17660  0.97830  0.26410  Biso   1.000  H
  C105     1.0000 0.26250  0.75800  0.39850  Biso   1.000  C
  C106     1.0000 0.23360  0.04310  0.10090  Biso   1.000  C
  C107     1.0000 0.89360  0.17690  0.96110  Biso   1.000  C
  H65      1.0000 0.92100  0.19540  0.93320  Biso   1.000  H
  C108     1.0000 0.81720  0.17560  0.95920  Biso   1.000  C
  H66      1.0000 0.79040  0.19330  0.93050  Biso   1.000  H
  C109     1.0000 0.89100  0.12840  0.95920  Biso   1.000  C
  H67      1.0000 0.91710  0.11180  0.92980  Biso   1.000  H
  C110     1.0000 0.81500  0.12760  0.96130  Biso   1.000  C
  H68      1.0000 0.78760  0.11100  0.93240  Biso   1.000  H
  Zn10     1.0000 0.33571  0.65179  0.56278  Biso   1.000  Zn
  O32      1.0000 0.18710  0.21770  0.10610  Biso   1.000  O
  O33      1.0000 0.28380  0.26350  0.06280  Biso   1.000  O
  O34      1.0000 0.22580  0.53293  0.43929  Biso   1.000  O
  O35      1.0000 0.30790  0.58670  0.39310  Biso   1.000  O
  O36      1.0000 0.44370  0.65420  0.54510  Biso   1.000  O
  C111     1.0000 0.24040  0.29910  0.14420  Biso   1.000  C
  C112     1.0000 0.29660  0.33990  0.14520  Biso   1.000  C
  H69      1.0000 0.33280  0.34230  0.11690  Biso   1.000  H
  C113     1.0000 0.30190  0.37880  0.18790  Biso   1.000  C
  H70      1.0000 0.34420  0.40510  0.18870  Biso   1.000  H
  C114     1.0000 0.24910  0.38000  0.22760  Biso   1.000  C
  C115     1.0000 0.19160  0.33830  0.22620  Biso   1.000  C
  H71      1.0000 0.15140  0.33850  0.25210  Biso   1.000  H
  C116     1.0000 0.19230  0.29700  0.18810  Biso   1.000  C
  H72      1.0000 0.15800  0.26520  0.19180  Biso   1.000  H
  C117     1.0000 0.25590  0.42110  0.27180  Biso   1.000  C
  C118     1.0000 0.21360  0.41520  0.31420  Biso   1.000  C
  H73      1.0000 0.17770  0.38430  0.31580  Biso   1.000  H
  C119     1.0000 0.21860  0.45300  0.35840  Biso   1.000  C
  H74      1.0000 0.19080  0.44460  0.39000  Biso   1.000  H
  C120     1.0000 0.26390  0.50180  0.35500  Biso   1.000  C
  C121     1.0000 0.29870  0.51210  0.30790  Biso   1.000  C
  H75      1.0000 0.32510  0.54730  0.30210  Biso   1.000  H
  C122     1.0000 0.29580  0.47090  0.26780  Biso   1.000  C
  H76      1.0000 0.32340  0.47830  0.23590  Biso   1.000  H
  C123     1.0000 0.23750  0.25800  0.10150  Biso   1.000  C
  C124     1.0000 0.26640  0.54310  0.39910  Biso   1.000  C
  C125     1.0000 0.60640  0.67690  0.53890  Biso   1.000  C
  H77      1.0000 0.57900  0.69540  0.56680  Biso   1.000  H
  C126     1.0000 0.68280  0.67560  0.54080  Biso   1.000  C
  H78      1.0000 0.70960  0.69330  0.56950  Biso   1.000  H
  C127     1.0000 0.60900  0.62840  0.54080  Biso   1.000  C
  H79      1.0000 0.58290  0.61180  0.57020  Biso   1.000  H
  C128     1.0000 0.68500  0.62760  0.53870  Biso   1.000  C
  H80      1.0000 0.71240  0.61100  0.56760  Biso   1.000  H
  Zn11     1.0000 0.16429  0.15179  0.06278  Biso   1.000  Zn
  O37      1.0000 0.31290  0.71770  0.60610  Biso   1.000  O
  O38      1.0000 0.21620  0.76350  0.56280  Biso   1.000  O
  O39      1.0000 0.27420  0.03293  0.93929  Biso   1.000  O
  O40      1.0000 0.19210  0.08670  0.89310  Biso   1.000  O
  O41      1.0000 0.05630  0.15420  0.04510  Biso   1.000  O
  C129     1.0000 0.25960  0.79910  0.64420  Biso   1.000  C
  C130     1.0000 0.20340  0.83990  0.64520  Biso   1.000  C
  H81      1.0000 0.16720  0.84230  0.61690  Biso   1.000  H
  C131     1.0000 0.19810  0.87880  0.68790  Biso   1.000  C
  H82      1.0000 0.15580  0.90510  0.68870  Biso   1.000  H
  C132     1.0000 0.25090  0.88000  0.72760  Biso   1.000  C
  C133     1.0000 0.30840  0.83830  0.72620  Biso   1.000  C
  H83      1.0000 0.34860  0.83850  0.75210  Biso   1.000  H
  C134     1.0000 0.30770  0.79700  0.68810  Biso   1.000  C
  H84      1.0000 0.34200  0.76520  0.69180  Biso   1.000  H
  C135     1.0000 0.24410  0.92110  0.77180  Biso   1.000  C
  C136     1.0000 0.28640  0.91520  0.81420  Biso   1.000  C
  H85      1.0000 0.32230  0.88430  0.81580  Biso   1.000  H
  C137     1.0000 0.28140  0.95300  0.85840  Biso   1.000  C
  H86      1.0000 0.30920  0.94460  0.89000  Biso   1.000  H
  C138     1.0000 0.23610  0.00180  0.85500  Biso   1.000  C
  C139     1.0000 0.20130  0.01210  0.80790  Biso   1.000  C
  H87      1.0000 0.17490  0.04730  0.80210  Biso   1.000  H
  C140     1.0000 0.20420  0.97090  0.76780  Biso   1.000  C
  H88      1.0000 0.17660  0.97830  0.73590  Biso   1.000  H
  C141     1.0000 0.26250  0.75800  0.60150  Biso   1.000  C
  C142     1.0000 0.23360  0.04310  0.89910  Biso   1.000  C
  C143     1.0000 0.89360  0.17690  0.03890  Biso   1.000  C
  H89      1.0000 0.92100  0.19540  0.06680  Biso   1.000  H
  C144     1.0000 0.81720  0.17560  0.04080  Biso   1.000  C
  H90      1.0000 0.79040  0.19330  0.06950  Biso   1.000  H
  C145     1.0000 0.89100  0.12840  0.04080  Biso   1.000  C
  H91      1.0000 0.91710  0.11180  0.07020  Biso   1.000  H
  C146     1.0000 0.81500  0.12760  0.03870  Biso   1.000  C
  H92      1.0000 0.78760  0.11100  0.06760  Biso   1.000  H
  Zn12     1.0000 0.33571  0.65179  0.43722  Biso   1.000  Zn
  O42      1.0000 0.18710  0.21770  0.89390  Biso   1.000  O
  O43      1.0000 0.28380  0.26350  0.93720  Biso   1.000  O
  O44      1.0000 0.22580  0.53293  0.56071  Biso   1.000  O
  O45      1.0000 0.30790  0.58670  0.60690  Biso   1.000  O
  O46      1.0000 0.44370  0.65420  0.45490  Biso   1.000  O
  C147     1.0000 0.24040  0.29910  0.85580  Biso   1.000  C
  C148     1.0000 0.29660  0.33990  0.85480  Biso   1.000  C
  H93      1.0000 0.33280  0.34230  0.88310  Biso   1.000  H
  C149     1.0000 0.30190  0.37880  0.81210  Biso   1.000  C
  H94      1.0000 0.34420  0.40510  0.81130  Biso   1.000  H
  C150     1.0000 0.24910  0.38000  0.77240  Biso   1.000  C
  C151     1.0000 0.19160  0.33830  0.77380  Biso   1.000  C
  H95      1.0000 0.15140  0.33850  0.74790  Biso   1.000  H
  C152     1.0000 0.19230  0.29700  0.81190  Biso   1.000  C
  H96      1.0000 0.15800  0.26520  0.80820  Biso   1.000  H
  C153     1.0000 0.25590  0.42110  0.72820  Biso   1.000  C
  C154     1.0000 0.21360  0.41520  0.68580  Biso   1.000  C
  H97      1.0000 0.17770  0.38430  0.68420  Biso   1.000  H
  C155     1.0000 0.21860  0.45300  0.64160  Biso   1.000  C
  H98      1.0000 0.19080  0.44460  0.61000  Biso   1.000  H
  C156     1.0000 0.26390  0.50180  0.64500  Biso   1.000  C
  C157     1.0000 0.29870  0.51210  0.69210  Biso   1.000  C
  H99      1.0000 0.32510  0.54730  0.69790  Biso   1.000  H
  C158     1.0000 0.29580  0.47090  0.73220  Biso   1.000  C
  H100     1.0000 0.32340  0.47830  0.76410  Biso   1.000  H
  C159     1.0000 0.23750  0.25800  0.89850  Biso   1.000  C
  C160     1.0000 0.26640  0.54310  0.60090  Biso   1.000  C
  C161     1.0000 0.60640  0.67690  0.46110  Biso   1.000  C
  H101     1.0000 0.57900  0.69540  0.43320  Biso   1.000  H
  C162     1.0000 0.68280  0.67560  0.45920  Biso   1.000  C
  H102     1.0000 0.70960  0.69330  0.43050  Biso   1.000  H
  C163     1.0000 0.60900  0.62840  0.45920  Biso   1.000  C
  H103     1.0000 0.58290  0.61180  0.42980  Biso   1.000  H
  C164     1.0000 0.68500  0.62760  0.46130  Biso   1.000  C
  H104     1.0000 0.71240  0.61100  0.43240  Biso   1.000  H
  Zn13     1.0000 0.29192  0.08190  0.00000  Biso   1.000  Zn
  Zn14     1.0000 0.29802  0.21798  0.00000  Biso   1.000  Zn
  O47      1.0000 0.23050  0.15120  0.00000  Biso   1.000  O
  O48      1.0000 0.40450  0.09440  0.00000  Biso   1.000  O
  O49      1.0000 0.40410  0.19210  0.00000  Biso   1.000  O
  C165     1.0000 0.02640  0.15660  0.00000  Biso   1.000  C
  C166     1.0000 0.93450  0.15340  0.00000  Biso   1.000  C
  C167     1.0000 0.77480  0.14780  0.00000  Biso   1.000  C
  C168     1.0000 0.68820  0.14290  0.00000  Biso   1.000  C
  C169     1.0000 0.64710  0.19130  0.00000  Biso   1.000  C
  H105     1.0000 0.67390  0.22700  0.00000  Biso   1.000  H
  C170     1.0000 0.56310  0.19110  0.00000  Biso   1.000  C
  H106     1.0000 0.53550  0.22650  0.00000  Biso   1.000  H
  C171     1.0000 0.52380  0.14200  0.00000  Biso   1.000  C
  C172     1.0000 0.56770  0.09360  0.00000  Biso   1.000  C
  H107     1.0000 0.54180  0.05760  0.00000  Biso   1.000  H
  C173     1.0000 0.64830  0.09400  0.00000  Biso   1.000  C
  H108     1.0000 0.67580  0.05860  0.00000  Biso   1.000  H
  C174     1.0000 0.43850  0.14350  0.00000  Biso   1.000  C
  Zn15     1.0000 0.20808  0.58190  0.50000  Biso   1.000  Zn
  Zn16     1.0000 0.20198  0.71798  0.50000  Biso   1.000  Zn
  O50      1.0000 0.26950  0.65120  0.50000  Biso   1.000  O
  O51      1.0000 0.09550  0.59440  0.50000  Biso   1.000  O
  O52      1.0000 0.09590  0.69210  0.50000  Biso   1.000  O
  C175     1.0000 0.47360  0.65660  0.50000  Biso   1.000  C
  C176     1.0000 0.56550  0.65340  0.50000  Biso   1.000  C
  C177     1.0000 0.72520  0.64780  0.50000  Biso   1.000  C
  C178     1.0000 0.81180  0.64290  0.50000  Biso   1.000  C
  C179     1.0000 0.85290  0.69130  0.50000  Biso   1.000  C
  H109     1.0000 0.82610  0.72700  0.50000  Biso   1.000  H
  C180     1.0000 0.93690  0.69110  0.50000  Biso   1.000  C
  H110     1.0000 0.96450  0.72650  0.50000  Biso   1.000  H
  C181     1.0000 0.97620  0.64200  0.50000  Biso   1.000  C
  C182     1.0000 0.93230  0.59360  0.50000  Biso   1.000  C
  H111     1.0000 0.95820  0.55760  0.50000  Biso   1.000  H
  C183     1.0000 0.85170  0.59400  0.50000  Biso   1.000  C
  H112     1.0000 0.82420  0.55860  0.50000  Biso   1.000  H
  C184     1.0000 0.06150  0.64350  0.50000  Biso   1.000  C
