data_image0
_cell_length_a       21.4594
_cell_length_b       21.4594
_cell_length_c       21.4594
_cell_angle_alpha    90
_cell_angle_beta     90
_cell_angle_gamma    90

_symmetry_space_group_name_H-M    "P 1"
_symmetry_int_tables_number       1

loop_
  _symmetry_equiv_pos_as_xyz
  'x, y, z'

loop_
  _atom_site_label
  _atom_site_occupancy
  _atom_site_fract_x
  _atom_site_fract_y
  _atom_site_fract_z
  _atom_site_thermal_displace_type
  _atom_site_B_iso_or_equiv
  _atom_site_type_symbol
  Zn1      1.0000 0.05207  0.05207  0.05207  Biso   1.000  Zn
  Zn2      1.0000 0.94793  0.94793  0.05207  Biso   1.000  Zn
  Zn3      1.0000 0.94793  0.05207  0.94793  Biso   1.000  Zn
  Zn4      1.0000 0.05207  0.94793  0.94793  Biso   1.000  Zn
  Zn5      1.0000 0.05207  0.05207  0.94793  Biso   1.000  Zn
  Zn6      1.0000 0.94793  0.94793  0.94793  Biso   1.000  Zn
  Zn7      1.0000 0.05207  0.94793  0.05207  Biso   1.000  Zn
  Zn8      1.0000 0.94793  0.05207  0.05207  Biso   1.000  Zn
  O1       1.0000 0.00000  0.00000  0.00000  Biso   1.000  O
  O2       1.0000 0.03900  0.03900  0.13980  Biso   1.000  O
  O3       1.0000 0.96100  0.96100  0.13980  Biso   1.000  O
  O4       1.0000 0.96100  0.03900  0.86020  Biso   1.000  O
  O5       1.0000 0.03900  0.96100  0.86020  Biso   1.000  O
  O6       1.0000 0.13980  0.03900  0.03900  Biso   1.000  O
  O7       1.0000 0.13980  0.96100  0.96100  Biso   1.000  O
  O8       1.0000 0.86020  0.96100  0.03900  Biso   1.000  O
  O9       1.0000 0.86020  0.03900  0.96100  Biso   1.000  O
  O10      1.0000 0.03900  0.13980  0.03900  Biso   1.000  O
  O11      1.0000 0.96100  0.13980  0.96100  Biso   1.000  O
  O12      1.0000 0.03900  0.86020  0.96100  Biso   1.000  O
  O13      1.0000 0.96100  0.86020  0.03900  Biso   1.000  O
  O14      1.0000 0.03900  0.03900  0.86020  Biso   1.000  O
  O15      1.0000 0.96100  0.96100  0.86020  Biso   1.000  O
  O16      1.0000 0.03900  0.96100  0.13980  Biso   1.000  O
  O17      1.0000 0.96100  0.03900  0.13980  Biso   1.000  O
  O18      1.0000 0.03900  0.13980  0.96100  Biso   1.000  O
  O19      1.0000 0.96100  0.13980  0.03900  Biso   1.000  O
  O20      1.0000 0.96100  0.86020  0.96100  Biso   1.000  O
  O21      1.0000 0.03900  0.86020  0.03900  Biso   1.000  O
  O22      1.0000 0.13980  0.03900  0.96100  Biso   1.000  O
  O23      1.0000 0.13980  0.96100  0.03900  Biso   1.000  O
  O24      1.0000 0.86020  0.03900  0.03900  Biso   1.000  O
  O25      1.0000 0.86020  0.96100  0.96100  Biso   1.000  O
  C1       1.0000 0.00000  0.00000  0.23390  Biso   1.000  C
  C2       1.0000 0.00000  0.00000  0.16620  Biso   1.000  C
  C3       1.0000 0.00000  0.00000  0.36470  Biso   1.000  C
  C4       1.0000 0.00000  0.00000  0.43430  Biso   1.000  C
  C5       1.0000 0.00000  0.00000  0.76610  Biso   1.000  C
  C6       1.0000 0.00000  0.00000  0.83380  Biso   1.000  C
  C7       1.0000 0.00000  0.00000  0.63530  Biso   1.000  C
  C8       1.0000 0.00000  0.00000  0.56570  Biso   1.000  C
  C9       1.0000 0.23390  0.00000  0.00000  Biso   1.000  C
  C10      1.0000 0.16620  0.00000  0.00000  Biso   1.000  C
  C11      1.0000 0.36470  0.00000  0.00000  Biso   1.000  C
  C12      1.0000 0.43430  0.00000  0.00000  Biso   1.000  C
  C13      1.0000 0.76610  0.00000  0.00000  Biso   1.000  C
  C14      1.0000 0.83380  0.00000  0.00000  Biso   1.000  C
  C15      1.0000 0.63530  0.00000  0.00000  Biso   1.000  C
  C16      1.0000 0.56570  0.00000  0.00000  Biso   1.000  C
  C17      1.0000 0.00000  0.23390  0.00000  Biso   1.000  C
  C18      1.0000 0.00000  0.16620  0.00000  Biso   1.000  C
  C19      1.0000 0.00000  0.36470  0.00000  Biso   1.000  C
  C20      1.0000 0.00000  0.43430  0.00000  Biso   1.000  C
  C21      1.0000 0.00000  0.76610  0.00000  Biso   1.000  C
  C22      1.0000 0.00000  0.83380  0.00000  Biso   1.000  C
  C23      1.0000 0.00000  0.63530  0.00000  Biso   1.000  C
  C24      1.0000 0.00000  0.56570  0.00000  Biso   1.000  C
  C25      1.0000 0.96110  0.03890  0.26740  Biso   1.000  C
  C26      1.0000 0.96300  0.03700  0.33220  Biso   1.000  C
  C27      1.0000 0.03890  0.96110  0.26740  Biso   1.000  C
  C28      1.0000 0.03700  0.96300  0.33220  Biso   1.000  C
  C29      1.0000 0.03890  0.03890  0.73260  Biso   1.000  C
  C30      1.0000 0.03700  0.03700  0.66780  Biso   1.000  C
  C31      1.0000 0.96110  0.96110  0.73260  Biso   1.000  C
  C32      1.0000 0.96300  0.96300  0.66780  Biso   1.000  C
  C33      1.0000 0.26740  0.96110  0.03890  Biso   1.000  C
  C34      1.0000 0.33220  0.96300  0.03700  Biso   1.000  C
  C35      1.0000 0.26740  0.03890  0.96110  Biso   1.000  C
  C36      1.0000 0.33220  0.03700  0.96300  Biso   1.000  C
  C37      1.0000 0.73260  0.03890  0.03890  Biso   1.000  C
  C38      1.0000 0.66780  0.03700  0.03700  Biso   1.000  C
  C39      1.0000 0.73260  0.96110  0.96110  Biso   1.000  C
  C40      1.0000 0.66780  0.96300  0.96300  Biso   1.000  C
  C41      1.0000 0.03890  0.26740  0.96110  Biso   1.000  C
  C42      1.0000 0.03700  0.33220  0.96300  Biso   1.000  C
  C43      1.0000 0.96110  0.26740  0.03890  Biso   1.000  C
  C44      1.0000 0.96300  0.33220  0.03700  Biso   1.000  C
  C45      1.0000 0.03890  0.73260  0.03890  Biso   1.000  C
  C46      1.0000 0.03700  0.66780  0.03700  Biso   1.000  C
  C47      1.0000 0.96110  0.73260  0.96110  Biso   1.000  C
  C48      1.0000 0.96300  0.66780  0.96300  Biso   1.000  C
  C49      1.0000 0.03890  0.96110  0.73260  Biso   1.000  C
  C50      1.0000 0.03700  0.96300  0.66780  Biso   1.000  C
  C51      1.0000 0.96110  0.03890  0.73260  Biso   1.000  C
  C52      1.0000 0.96300  0.03700  0.66780  Biso   1.000  C
  C53      1.0000 0.03890  0.03890  0.26740  Biso   1.000  C
  C54      1.0000 0.03700  0.03700  0.33220  Biso   1.000  C
  C55      1.0000 0.96110  0.96110  0.26740  Biso   1.000  C
  C56      1.0000 0.96300  0.96300  0.33220  Biso   1.000  C
  C57      1.0000 0.96110  0.26740  0.96110  Biso   1.000  C
  C58      1.0000 0.96300  0.33220  0.96300  Biso   1.000  C
  C59      1.0000 0.03890  0.26740  0.03890  Biso   1.000  C
  C60      1.0000 0.03700  0.33220  0.03700  Biso   1.000  C
  C61      1.0000 0.03890  0.73260  0.96110  Biso   1.000  C
  C62      1.0000 0.03700  0.66780  0.96300  Biso   1.000  C
  C63      1.0000 0.96110  0.73260  0.03890  Biso   1.000  C
  C64      1.0000 0.96300  0.66780  0.03700  Biso   1.000  C
  C65      1.0000 0.26740  0.03890  0.03890  Biso   1.000  C
  C66      1.0000 0.33220  0.03700  0.03700  Biso   1.000  C
  C67      1.0000 0.26740  0.96110  0.96110  Biso   1.000  C
  C68      1.0000 0.33220  0.96300  0.96300  Biso   1.000  C
  C69      1.0000 0.73260  0.03890  0.96110  Biso   1.000  C
  C70      1.0000 0.66780  0.03700  0.96300  Biso   1.000  C
  C71      1.0000 0.73260  0.96110  0.03890  Biso   1.000  C
  C72      1.0000 0.66780  0.96300  0.03700  Biso   1.000  C
  C73      1.0000 0.00000  0.93810  0.46710  Biso   1.000  C
  C74      1.0000 0.00000  0.06190  0.46710  Biso   1.000  C
  C75      1.0000 0.00000  0.93810  0.53290  Biso   1.000  C
  C76      1.0000 0.00000  0.06190  0.53290  Biso   1.000  C
  C77      1.0000 0.46710  0.00000  0.93810  Biso   1.000  C
  C78      1.0000 0.46710  0.00000  0.06190  Biso   1.000  C
  C79      1.0000 0.53290  0.00000  0.93810  Biso   1.000  C
  C80      1.0000 0.53290  0.00000  0.06190  Biso   1.000  C
  C81      1.0000 0.93810  0.46710  0.00000  Biso   1.000  C
  C82      1.0000 0.06190  0.46710  0.00000  Biso   1.000  C
  C83      1.0000 0.93810  0.53290  0.00000  Biso   1.000  C
  C84      1.0000 0.06190  0.53290  0.00000  Biso   1.000  C
  C85      1.0000 0.93810  0.00000  0.53290  Biso   1.000  C
  C86      1.0000 0.06190  0.00000  0.53290  Biso   1.000  C
  C87      1.0000 0.93810  0.00000  0.46710  Biso   1.000  C
  C88      1.0000 0.06190  0.00000  0.46710  Biso   1.000  C
  C89      1.0000 0.00000  0.46710  0.06190  Biso   1.000  C
  C90      1.0000 0.00000  0.46710  0.93810  Biso   1.000  C
  C91      1.0000 0.00000  0.53290  0.06190  Biso   1.000  C
  C92      1.0000 0.00000  0.53290  0.93810  Biso   1.000  C
  C93      1.0000 0.46710  0.93810  0.00000  Biso   1.000  C
  C94      1.0000 0.46710  0.06190  0.00000  Biso   1.000  C
  C95      1.0000 0.53290  0.93810  0.00000  Biso   1.000  C
  C96      1.0000 0.53290  0.06190  0.00000  Biso   1.000  C
  Zn9      1.0000 0.55207  0.55207  0.55207  Biso   1.000  Zn
  Zn10     1.0000 0.44793  0.44793  0.55207  Biso   1.000  Zn
  Zn11     1.0000 0.44793  0.55207  0.44793  Biso   1.000  Zn
  Zn12     1.0000 0.55207  0.44793  0.44793  Biso   1.000  Zn
  Zn13     1.0000 0.55207  0.55207  0.44793  Biso   1.000  Zn
  Zn14     1.0000 0.44793  0.44793  0.44793  Biso   1.000  Zn
  Zn15     1.0000 0.55207  0.44793  0.55207  Biso   1.000  Zn
  Zn16     1.0000 0.44793  0.55207  0.55207  Biso   1.000  Zn
  O26      1.0000 0.50000  0.50000  0.50000  Biso   1.000  O
  O27      1.0000 0.53900  0.53900  0.63980  Biso   1.000  O
  O28      1.0000 0.46100  0.46100  0.63980  Biso   1.000  O
  O29      1.0000 0.46100  0.53900  0.36020  Biso   1.000  O
  O30      1.0000 0.53900  0.46100  0.36020  Biso   1.000  O
  O31      1.0000 0.63980  0.53900  0.53900  Biso   1.000  O
  O32      1.0000 0.63980  0.46100  0.46100  Biso   1.000  O
  O33      1.0000 0.36020  0.46100  0.53900  Biso   1.000  O
  O34      1.0000 0.36020  0.53900  0.46100  Biso   1.000  O
  O35      1.0000 0.53900  0.63980  0.53900  Biso   1.000  O
  O36      1.0000 0.46100  0.63980  0.46100  Biso   1.000  O
  O37      1.0000 0.53900  0.36020  0.46100  Biso   1.000  O
  O38      1.0000 0.46100  0.36020  0.53900  Biso   1.000  O
  O39      1.0000 0.53900  0.53900  0.36020  Biso   1.000  O
  O40      1.0000 0.46100  0.46100  0.36020  Biso   1.000  O
  O41      1.0000 0.53900  0.46100  0.63980  Biso   1.000  O
  O42      1.0000 0.46100  0.53900  0.63980  Biso   1.000  O
  O43      1.0000 0.53900  0.63980  0.46100  Biso   1.000  O
  O44      1.0000 0.46100  0.63980  0.53900  Biso   1.000  O
  O45      1.0000 0.46100  0.36020  0.46100  Biso   1.000  O
  O46      1.0000 0.53900  0.36020  0.53900  Biso   1.000  O
  O47      1.0000 0.63980  0.53900  0.46100  Biso   1.000  O
  O48      1.0000 0.63980  0.46100  0.53900  Biso   1.000  O
  O49      1.0000 0.36020  0.53900  0.53900  Biso   1.000  O
  O50      1.0000 0.36020  0.46100  0.46100  Biso   1.000  O
  C97      1.0000 0.50000  0.50000  0.73390  Biso   1.000  C
  C98      1.0000 0.50000  0.50000  0.66620  Biso   1.000  C
  C99      1.0000 0.50000  0.50000  0.86470  Biso   1.000  C
  C100     1.0000 0.50000  0.50000  0.93430  Biso   1.000  C
  C101     1.0000 0.50000  0.50000  0.26610  Biso   1.000  C
  C102     1.0000 0.50000  0.50000  0.33380  Biso   1.000  C
  C103     1.0000 0.50000  0.50000  0.13530  Biso   1.000  C
  C104     1.0000 0.50000  0.50000  0.06570  Biso   1.000  C
  C105     1.0000 0.73390  0.50000  0.50000  Biso   1.000  C
  C106     1.0000 0.66620  0.50000  0.50000  Biso   1.000  C
  C107     1.0000 0.86470  0.50000  0.50000  Biso   1.000  C
  C108     1.0000 0.93430  0.50000  0.50000  Biso   1.000  C
  C109     1.0000 0.26610  0.50000  0.50000  Biso   1.000  C
  C110     1.0000 0.33380  0.50000  0.50000  Biso   1.000  C
  C111     1.0000 0.13530  0.50000  0.50000  Biso   1.000  C
  C112     1.0000 0.06570  0.50000  0.50000  Biso   1.000  C
  C113     1.0000 0.50000  0.73390  0.50000  Biso   1.000  C
  C114     1.0000 0.50000  0.66620  0.50000  Biso   1.000  C
  C115     1.0000 0.50000  0.86470  0.50000  Biso   1.000  C
  C116     1.0000 0.50000  0.93430  0.50000  Biso   1.000  C
  C117     1.0000 0.50000  0.26610  0.50000  Biso   1.000  C
  C118     1.0000 0.50000  0.33380  0.50000  Biso   1.000  C
  C119     1.0000 0.50000  0.13530  0.50000  Biso   1.000  C
  C120     1.0000 0.50000  0.06570  0.50000  Biso   1.000  C
  C121     1.0000 0.46110  0.53890  0.76740  Biso   1.000  C
  C122     1.0000 0.46300  0.53700  0.83220  Biso   1.000  C
  C123     1.0000 0.53890  0.46110  0.76740  Biso   1.000  C
  C124     1.0000 0.53700  0.46300  0.83220  Biso   1.000  C
  C125     1.0000 0.53890  0.53890  0.23260  Biso   1.000  C
  C126     1.0000 0.53700  0.53700  0.16780  Biso   1.000  C
  C127     1.0000 0.46110  0.46110  0.23260  Biso   1.000  C
  C128     1.0000 0.46300  0.46300  0.16780  Biso   1.000  C
  C129     1.0000 0.76740  0.46110  0.53890  Biso   1.000  C
  C130     1.0000 0.83220  0.46300  0.53700  Biso   1.000  C
  C131     1.0000 0.76740  0.53890  0.46110  Biso   1.000  C
  C132     1.0000 0.83220  0.53700  0.46300  Biso   1.000  C
  C133     1.0000 0.23260  0.53890  0.53890  Biso   1.000  C
  C134     1.0000 0.16780  0.53700  0.53700  Biso   1.000  C
  C135     1.0000 0.23260  0.46110  0.46110  Biso   1.000  C
  C136     1.0000 0.16780  0.46300  0.46300  Biso   1.000  C
  C137     1.0000 0.53890  0.76740  0.46110  Biso   1.000  C
  C138     1.0000 0.53700  0.83220  0.46300  Biso   1.000  C
  C139     1.0000 0.46110  0.76740  0.53890  Biso   1.000  C
  C140     1.0000 0.46300  0.83220  0.53700  Biso   1.000  C
  C141     1.0000 0.53890  0.23260  0.53890  Biso   1.000  C
  C142     1.0000 0.53700  0.16780  0.53700  Biso   1.000  C
  C143     1.0000 0.46110  0.23260  0.46110  Biso   1.000  C
  C144     1.0000 0.46300  0.16780  0.46300  Biso   1.000  C
  C145     1.0000 0.53890  0.46110  0.23260  Biso   1.000  C
  C146     1.0000 0.53700  0.46300  0.16780  Biso   1.000  C
  C147     1.0000 0.46110  0.53890  0.23260  Biso   1.000  C
  C148     1.0000 0.46300  0.53700  0.16780  Biso   1.000  C
  C149     1.0000 0.53890  0.53890  0.76740  Biso   1.000  C
  C150     1.0000 0.53700  0.53700  0.83220  Biso   1.000  C
  C151     1.0000 0.46110  0.46110  0.76740  Biso   1.000  C
  C152     1.0000 0.46300  0.46300  0.83220  Biso   1.000  C
  C153     1.0000 0.46110  0.76740  0.46110  Biso   1.000  C
  C154     1.0000 0.46300  0.83220  0.46300  Biso   1.000  C
  C155     1.0000 0.53890  0.76740  0.53890  Biso   1.000  C
  C156     1.0000 0.53700  0.83220  0.53700  Biso   1.000  C
  C157     1.0000 0.53890  0.23260  0.46110  Biso   1.000  C
  C158     1.0000 0.53700  0.16780  0.46300  Biso   1.000  C
  C159     1.0000 0.46110  0.23260  0.53890  Biso   1.000  C
  C160     1.0000 0.46300  0.16780  0.53700  Biso   1.000  C
  C161     1.0000 0.76740  0.53890  0.53890  Biso   1.000  C
  C162     1.0000 0.83220  0.53700  0.53700  Biso   1.000  C
  C163     1.0000 0.76740  0.46110  0.46110  Biso   1.000  C
  C164     1.0000 0.83220  0.46300  0.46300  Biso   1.000  C
  C165     1.0000 0.23260  0.53890  0.46110  Biso   1.000  C
  C166     1.0000 0.16780  0.53700  0.46300  Biso   1.000  C
  C167     1.0000 0.23260  0.46110  0.53890  Biso   1.000  C
  C168     1.0000 0.16780  0.46300  0.53700  Biso   1.000  C
  C169     1.0000 0.50000  0.43810  0.96710  Biso   1.000  C
  C170     1.0000 0.50000  0.56190  0.96710  Biso   1.000  C
  C171     1.0000 0.50000  0.43810  0.03290  Biso   1.000  C
  C172     1.0000 0.50000  0.56190  0.03290  Biso   1.000  C
  C173     1.0000 0.96710  0.50000  0.43810  Biso   1.000  C
  C174     1.0000 0.96710  0.50000  0.56190  Biso   1.000  C
  C175     1.0000 0.03290  0.50000  0.43810  Biso   1.000  C
  C176     1.0000 0.03290  0.50000  0.56190  Biso   1.000  C
  C177     1.0000 0.43810  0.96710  0.50000  Biso   1.000  C
  C178     1.0000 0.56190  0.96710  0.50000  Biso   1.000  C
  C179     1.0000 0.43810  0.03290  0.50000  Biso   1.000  C
  C180     1.0000 0.56190  0.03290  0.50000  Biso   1.000  C
  C181     1.0000 0.43810  0.50000  0.03290  Biso   1.000  C
  C182     1.0000 0.56190  0.50000  0.03290  Biso   1.000  C
  C183     1.0000 0.43810  0.50000  0.96710  Biso   1.000  C
  C184     1.0000 0.56190  0.50000  0.96710  Biso   1.000  C
  C185     1.0000 0.50000  0.96710  0.56190  Biso   1.000  C
  C186     1.0000 0.50000  0.96710  0.43810  Biso   1.000  C
  C187     1.0000 0.50000  0.03290  0.56190  Biso   1.000  C
  C188     1.0000 0.50000  0.03290  0.43810  Biso   1.000  C
  C189     1.0000 0.96710  0.43810  0.50000  Biso   1.000  C
  C190     1.0000 0.96710  0.56190  0.50000  Biso   1.000  C
  C191     1.0000 0.03290  0.43810  0.50000  Biso   1.000  C
  C192     1.0000 0.03290  0.56190  0.50000  Biso   1.000  C
