data_image0
_cell_length_a       21.4903
_cell_length_b       21.4903
_cell_length_c       21.4903
_cell_angle_alpha    90
_cell_angle_beta     90
_cell_angle_gamma    90

_symmetry_space_group_name_H-M    "P 1"
_symmetry_int_tables_number       1

loop_
  _symmetry_equiv_pos_as_xyz
  'x, y, z'

loop_
  _atom_site_label
  _atom_site_occupancy
  _atom_site_fract_x
  _atom_site_fract_y
  _atom_site_fract_z
  _atom_site_thermal_displace_type
  _atom_site_B_iso_or_equiv
  _atom_site_type_symbol
  Zn1      1.0000 0.44795  0.44795  0.44795  Biso   1.000  Zn
  Zn2      1.0000 0.55205  0.55205  0.44795  Biso   1.000  Zn
  Zn3      1.0000 0.55205  0.44795  0.55205  Biso   1.000  Zn
  Zn4      1.0000 0.44795  0.55205  0.55205  Biso   1.000  Zn
  Zn5      1.0000 0.44795  0.44795  0.55205  Biso   1.000  Zn
  Zn6      1.0000 0.55205  0.55205  0.55205  Biso   1.000  Zn
  Zn7      1.0000 0.44795  0.55205  0.44795  Biso   1.000  Zn
  Zn8      1.0000 0.55205  0.44795  0.44795  Biso   1.000  Zn
  O1       1.0000 0.50000  0.50000  0.50000  Biso   1.000  O
  O2       1.0000 0.46580  0.46580  0.36200  Biso   1.000  O
  C1       1.0000 0.46012  0.46012  0.23490  Biso   1.000  C
  C2       1.0000 0.46021  0.46021  0.16990  Biso   1.000  C
  O3       1.0000 0.53420  0.53420  0.36200  Biso   1.000  O
  C3       1.0000 0.53988  0.53988  0.23490  Biso   1.000  C
  C4       1.0000 0.53979  0.53979  0.16990  Biso   1.000  C
  O4       1.0000 0.53420  0.46580  0.63800  Biso   1.000  O
  C5       1.0000 0.53988  0.46012  0.76510  Biso   1.000  C
  C6       1.0000 0.53979  0.46021  0.83010  Biso   1.000  C
  O5       1.0000 0.46580  0.53420  0.63800  Biso   1.000  O
  C7       1.0000 0.46012  0.53988  0.76510  Biso   1.000  C
  C8       1.0000 0.46021  0.53979  0.83010  Biso   1.000  C
  O6       1.0000 0.36200  0.46580  0.46580  Biso   1.000  O
  C9       1.0000 0.23490  0.46012  0.46012  Biso   1.000  C
  C10      1.0000 0.16990  0.46021  0.46021  Biso   1.000  C
  O7       1.0000 0.36200  0.53420  0.53420  Biso   1.000  O
  C11      1.0000 0.23490  0.53988  0.53988  Biso   1.000  C
  C12      1.0000 0.16990  0.53979  0.53979  Biso   1.000  C
  O8       1.0000 0.63800  0.53420  0.46580  Biso   1.000  O
  C13      1.0000 0.76510  0.53988  0.46012  Biso   1.000  C
  C14      1.0000 0.83010  0.53979  0.46021  Biso   1.000  C
  O9       1.0000 0.63800  0.46580  0.53420  Biso   1.000  O
  C15      1.0000 0.76510  0.46012  0.53988  Biso   1.000  C
  C16      1.0000 0.83010  0.46021  0.53979  Biso   1.000  C
  O10      1.0000 0.46580  0.36200  0.46580  Biso   1.000  O
  C17      1.0000 0.46012  0.23490  0.46012  Biso   1.000  C
  C18      1.0000 0.46021  0.16990  0.46021  Biso   1.000  C
  O11      1.0000 0.53420  0.36200  0.53420  Biso   1.000  O
  C19      1.0000 0.53988  0.23490  0.53988  Biso   1.000  C
  C20      1.0000 0.53979  0.16990  0.53979  Biso   1.000  C
  O12      1.0000 0.46580  0.63800  0.53420  Biso   1.000  O
  C21      1.0000 0.46012  0.76510  0.53988  Biso   1.000  C
  C22      1.0000 0.46021  0.83010  0.53979  Biso   1.000  C
  O13      1.0000 0.53420  0.63800  0.46580  Biso   1.000  O
  C23      1.0000 0.53988  0.76510  0.46012  Biso   1.000  C
  C24      1.0000 0.53979  0.83010  0.46021  Biso   1.000  C
  O14      1.0000 0.46580  0.46580  0.63800  Biso   1.000  O
  C25      1.0000 0.46012  0.46012  0.76510  Biso   1.000  C
  C26      1.0000 0.46021  0.46021  0.83010  Biso   1.000  C
  O15      1.0000 0.53420  0.53420  0.63800  Biso   1.000  O
  C27      1.0000 0.53988  0.53988  0.76510  Biso   1.000  C
  C28      1.0000 0.53979  0.53979  0.83010  Biso   1.000  C
  O16      1.0000 0.46580  0.53420  0.36200  Biso   1.000  O
  C29      1.0000 0.46012  0.53988  0.23490  Biso   1.000  C
  C30      1.0000 0.46021  0.53979  0.16990  Biso   1.000  C
  O17      1.0000 0.53420  0.46580  0.36200  Biso   1.000  O
  C31      1.0000 0.53988  0.46012  0.23490  Biso   1.000  C
  C32      1.0000 0.53979  0.46021  0.16990  Biso   1.000  C
  O18      1.0000 0.46580  0.36200  0.53420  Biso   1.000  O
  C33      1.0000 0.46012  0.23490  0.53988  Biso   1.000  C
  C34      1.0000 0.46021  0.16990  0.53979  Biso   1.000  C
  O19      1.0000 0.53420  0.36200  0.46580  Biso   1.000  O
  C35      1.0000 0.53988  0.23490  0.46012  Biso   1.000  C
  C36      1.0000 0.53979  0.16990  0.46021  Biso   1.000  C
  O20      1.0000 0.53420  0.63800  0.53420  Biso   1.000  O
  C37      1.0000 0.53988  0.76510  0.53988  Biso   1.000  C
  C38      1.0000 0.53979  0.83010  0.53979  Biso   1.000  C
  O21      1.0000 0.46580  0.63800  0.46580  Biso   1.000  O
  C39      1.0000 0.46012  0.76510  0.46012  Biso   1.000  C
  C40      1.0000 0.46021  0.83010  0.46021  Biso   1.000  C
  O22      1.0000 0.36200  0.46580  0.53420  Biso   1.000  O
  C41      1.0000 0.23490  0.46012  0.53988  Biso   1.000  C
  C42      1.0000 0.16990  0.46021  0.53979  Biso   1.000  C
  O23      1.0000 0.36200  0.53420  0.46580  Biso   1.000  O
  C43      1.0000 0.23490  0.53988  0.46012  Biso   1.000  C
  C44      1.0000 0.16990  0.53979  0.46021  Biso   1.000  C
  O24      1.0000 0.63800  0.46580  0.46580  Biso   1.000  O
  C45      1.0000 0.76510  0.46012  0.46012  Biso   1.000  C
  C46      1.0000 0.83010  0.46021  0.46021  Biso   1.000  C
  O25      1.0000 0.63800  0.53420  0.53420  Biso   1.000  O
  C47      1.0000 0.76510  0.53988  0.53988  Biso   1.000  C
  C48      1.0000 0.83010  0.53979  0.53979  Biso   1.000  C
  C49      1.0000 0.50000  0.50000  0.33090  Biso   1.000  C
  C50      1.0000 0.50000  0.50000  0.26670  Biso   1.000  C
  C51      1.0000 0.50000  0.50000  0.13690  Biso   1.000  C
  C52      1.0000 0.50000  0.50000  0.06590  Biso   1.000  C
  C53      1.0000 0.50000  0.50000  0.66910  Biso   1.000  C
  C54      1.0000 0.50000  0.50000  0.73330  Biso   1.000  C
  C55      1.0000 0.50000  0.50000  0.86310  Biso   1.000  C
  C56      1.0000 0.50000  0.50000  0.93410  Biso   1.000  C
  C57      1.0000 0.33090  0.50000  0.50000  Biso   1.000  C
  C58      1.0000 0.26670  0.50000  0.50000  Biso   1.000  C
  C59      1.0000 0.13690  0.50000  0.50000  Biso   1.000  C
  C60      1.0000 0.06590  0.50000  0.50000  Biso   1.000  C
  C61      1.0000 0.66910  0.50000  0.50000  Biso   1.000  C
  C62      1.0000 0.73330  0.50000  0.50000  Biso   1.000  C
  C63      1.0000 0.86310  0.50000  0.50000  Biso   1.000  C
  C64      1.0000 0.93410  0.50000  0.50000  Biso   1.000  C
  C65      1.0000 0.50000  0.33090  0.50000  Biso   1.000  C
  C66      1.0000 0.50000  0.26670  0.50000  Biso   1.000  C
  C67      1.0000 0.50000  0.13690  0.50000  Biso   1.000  C
  C68      1.0000 0.50000  0.06590  0.50000  Biso   1.000  C
  C69      1.0000 0.50000  0.66910  0.50000  Biso   1.000  C
  C70      1.0000 0.50000  0.73330  0.50000  Biso   1.000  C
  C71      1.0000 0.50000  0.86310  0.50000  Biso   1.000  C
  C72      1.0000 0.50000  0.93410  0.50000  Biso   1.000  C
  C73      1.0000 0.44360  0.50000  0.03270  Biso   1.000  C
  C74      1.0000 0.55640  0.50000  0.03270  Biso   1.000  C
  C75      1.0000 0.55640  0.50000  0.96730  Biso   1.000  C
  C76      1.0000 0.44360  0.50000  0.96730  Biso   1.000  C
  C77      1.0000 0.03270  0.44360  0.50000  Biso   1.000  C
  C78      1.0000 0.03270  0.55640  0.50000  Biso   1.000  C
  C79      1.0000 0.96730  0.55640  0.50000  Biso   1.000  C
  C80      1.0000 0.96730  0.44360  0.50000  Biso   1.000  C
  C81      1.0000 0.50000  0.03270  0.44360  Biso   1.000  C
  C82      1.0000 0.50000  0.03270  0.55640  Biso   1.000  C
  C83      1.0000 0.50000  0.96730  0.55640  Biso   1.000  C
  C84      1.0000 0.50000  0.96730  0.44360  Biso   1.000  C
  C85      1.0000 0.50000  0.44360  0.96730  Biso   1.000  C
  C86      1.0000 0.50000  0.55640  0.96730  Biso   1.000  C
  C87      1.0000 0.50000  0.55640  0.03270  Biso   1.000  C
  C88      1.0000 0.50000  0.44360  0.03270  Biso   1.000  C
  C89      1.0000 0.44360  0.03270  0.50000  Biso   1.000  C
  C90      1.0000 0.55640  0.03270  0.50000  Biso   1.000  C
  C91      1.0000 0.55640  0.96730  0.50000  Biso   1.000  C
  C92      1.0000 0.44360  0.96730  0.50000  Biso   1.000  C
  C93      1.0000 0.03270  0.50000  0.55640  Biso   1.000  C
  C94      1.0000 0.03270  0.50000  0.44360  Biso   1.000  C
  C95      1.0000 0.96730  0.50000  0.44360  Biso   1.000  C
  C96      1.0000 0.96730  0.50000  0.55640  Biso   1.000  C
