data_image0
_cell_length_a       10.2829
_cell_length_b       10.2829
_cell_length_c       14.3687
_cell_angle_alpha    90
_cell_angle_beta     90
_cell_angle_gamma    90

_symmetry_space_group_name_H-M    "P 1"
_symmetry_int_tables_number       1

loop_
  _symmetry_equiv_pos_as_xyz
  'x, y, z'

loop_
  _atom_site_label
  _atom_site_occupancy
  _atom_site_fract_x
  _atom_site_fract_y
  _atom_site_fract_z
  _atom_site_thermal_displace_type
  _atom_site_B_iso_or_equiv
  _atom_site_type_symbol
  O1       1.0000 0.92410  0.10420  0.90650  Biso   1.000  O
  O2       1.0000 0.75040  0.08360  0.98978  Biso   1.000  O
  O3       1.0000 0.32970  0.92890  0.69250  Biso   1.000  O
  C1       1.0000 0.73530  0.03880  0.82910  Biso   1.000  C
  C2       1.0000 0.60010  0.03670  0.82960  Biso   1.000  C
  H1       1.0000 0.55510  0.05990  0.88330  Biso   1.000  H
  C3       1.0000 0.80710  0.07970  0.91470  Biso   1.000  C
  H2       1.0000 0.37430  0.30710  0.83440  Biso   1.000  H
  C4       1.0000 0.33200  0.42100  0.94660  Biso   1.000  C
  H3       1.0000 0.41620  0.45960  0.93890  Biso   1.000  H
  H4       1.0000 0.32450  0.38550  0.00810  Biso   1.000  H
  H5       1.0000 0.26610  0.48650  0.93790  Biso   1.000  H
  H6       1.0000 0.36220  0.32540  0.92280  Biso   1.000  H
  C5       1.0000 0.32400  0.41300  0.80000  Biso   1.000  C
  H7       1.0000 0.39130  0.47420  0.81330  Biso   1.000  H
  H8       1.0000 0.24200  0.45770  0.79460  Biso   1.000  H
  H9       1.0000 0.34240  0.36980  0.74190  Biso   1.000  H
  O4       1.0000 0.07590  0.89580  0.40650  Biso   1.000  O
  O5       1.0000 0.24960  0.91640  0.48978  Biso   1.000  O
  O6       1.0000 0.67030  0.07110  0.19250  Biso   1.000  O
  C6       1.0000 0.26470  0.96120  0.32910  Biso   1.000  C
  C7       1.0000 0.39990  0.96330  0.32960  Biso   1.000  C
  H10      1.0000 0.44490  0.94010  0.38330  Biso   1.000  H
  C8       1.0000 0.19290  0.92030  0.41470  Biso   1.000  C
  H11      1.0000 0.62570  0.69290  0.33440  Biso   1.000  H
  C9       1.0000 0.66800  0.57900  0.44660  Biso   1.000  C
  H12      1.0000 0.58380  0.54040  0.43890  Biso   1.000  H
  H13      1.0000 0.67550  0.61450  0.50810  Biso   1.000  H
  H14      1.0000 0.73390  0.51350  0.43790  Biso   1.000  H
  H15      1.0000 0.63780  0.67460  0.42280  Biso   1.000  H
  C10      1.0000 0.67600  0.58700  0.30000  Biso   1.000  C
  H16      1.0000 0.60870  0.52580  0.31330  Biso   1.000  H
  H17      1.0000 0.75800  0.54230  0.29460  Biso   1.000  H
  H18      1.0000 0.65760  0.63020  0.24190  Biso   1.000  H
  O7       1.0000 0.89580  0.92410  0.15650  Biso   1.000  O
  O8       1.0000 0.91640  0.75040  0.23978  Biso   1.000  O
  O9       1.0000 0.07110  0.32970  0.94250  Biso   1.000  O
  C11      1.0000 0.96120  0.73530  0.07910  Biso   1.000  C
  C12      1.0000 0.96330  0.60010  0.07960  Biso   1.000  C
  H19      1.0000 0.94010  0.55510  0.13330  Biso   1.000  H
  C13      1.0000 0.92030  0.80710  0.16470  Biso   1.000  C
  H20      1.0000 0.69290  0.37430  0.08440  Biso   1.000  H
  C14      1.0000 0.57900  0.33200  0.19660  Biso   1.000  C
  H21      1.0000 0.54040  0.41620  0.18890  Biso   1.000  H
  H22      1.0000 0.61450  0.32450  0.25810  Biso   1.000  H
  H23      1.0000 0.51350  0.26610  0.18790  Biso   1.000  H
  H24      1.0000 0.67460  0.36220  0.17280  Biso   1.000  H
  C15      1.0000 0.58700  0.32400  0.05000  Biso   1.000  C
  H25      1.0000 0.52580  0.39130  0.06330  Biso   1.000  H
  H26      1.0000 0.54230  0.24200  0.04460  Biso   1.000  H
  H27      1.0000 0.63020  0.34240  0.99190  Biso   1.000  H
  O10      1.0000 0.10420  0.07590  0.65650  Biso   1.000  O
  O11      1.0000 0.08360  0.24960  0.73978  Biso   1.000  O
  O12      1.0000 0.92890  0.67030  0.44250  Biso   1.000  O
  C16      1.0000 0.03880  0.26470  0.57910  Biso   1.000  C
  C17      1.0000 0.03670  0.39990  0.57960  Biso   1.000  C
  H28      1.0000 0.05990  0.44490  0.63330  Biso   1.000  H
  C18      1.0000 0.07970  0.19290  0.66470  Biso   1.000  C
  H29      1.0000 0.30710  0.62570  0.58440  Biso   1.000  H
  C19      1.0000 0.42100  0.66800  0.69660  Biso   1.000  C
  H30      1.0000 0.45960  0.58380  0.68890  Biso   1.000  H
  H31      1.0000 0.38550  0.67550  0.75810  Biso   1.000  H
  H32      1.0000 0.48650  0.73390  0.68790  Biso   1.000  H
  H33      1.0000 0.32540  0.63780  0.67280  Biso   1.000  H
  C20      1.0000 0.41300  0.67600  0.55000  Biso   1.000  C
  H34      1.0000 0.47420  0.60870  0.56330  Biso   1.000  H
  H35      1.0000 0.45770  0.75800  0.54460  Biso   1.000  H
  H36      1.0000 0.36980  0.65760  0.49190  Biso   1.000  H
  O13      1.0000 0.07590  0.10420  0.09350  Biso   1.000  O
  O14      1.0000 0.24960  0.08360  0.01022  Biso   1.000  O
  O15      1.0000 0.67030  0.92890  0.30750  Biso   1.000  O
  C21      1.0000 0.26470  0.03880  0.17090  Biso   1.000  C
  C22      1.0000 0.39990  0.03670  0.17040  Biso   1.000  C
  H37      1.0000 0.44490  0.05990  0.11670  Biso   1.000  H
  C23      1.0000 0.19290  0.07970  0.08530  Biso   1.000  C
  H38      1.0000 0.62570  0.30710  0.16560  Biso   1.000  H
  C24      1.0000 0.66800  0.42100  0.05340  Biso   1.000  C
  H39      1.0000 0.58380  0.45960  0.06110  Biso   1.000  H
  H40      1.0000 0.67550  0.38550  0.99190  Biso   1.000  H
  H41      1.0000 0.73390  0.48650  0.06210  Biso   1.000  H
  H42      1.0000 0.63780  0.32540  0.07720  Biso   1.000  H
  C25      1.0000 0.67600  0.41300  0.20000  Biso   1.000  C
  H43      1.0000 0.60870  0.47420  0.18670  Biso   1.000  H
  H44      1.0000 0.75800  0.45770  0.20540  Biso   1.000  H
  H45      1.0000 0.65760  0.36980  0.25810  Biso   1.000  H
  O16      1.0000 0.92410  0.89580  0.59350  Biso   1.000  O
  O17      1.0000 0.75040  0.91640  0.51022  Biso   1.000  O
  O18      1.0000 0.32970  0.07110  0.80750  Biso   1.000  O
  C26      1.0000 0.73530  0.96120  0.67090  Biso   1.000  C
  C27      1.0000 0.60010  0.96330  0.67040  Biso   1.000  C
  H46      1.0000 0.55510  0.94010  0.61670  Biso   1.000  H
  C28      1.0000 0.80710  0.92030  0.58530  Biso   1.000  C
  H47      1.0000 0.37430  0.69290  0.66560  Biso   1.000  H
  C29      1.0000 0.33200  0.57900  0.55340  Biso   1.000  C
  H48      1.0000 0.41620  0.54040  0.56110  Biso   1.000  H
  H49      1.0000 0.32450  0.61450  0.49190  Biso   1.000  H
  H50      1.0000 0.26610  0.51350  0.56210  Biso   1.000  H
  H51      1.0000 0.36220  0.67460  0.57720  Biso   1.000  H
  C30      1.0000 0.32400  0.58700  0.70000  Biso   1.000  C
  H52      1.0000 0.39130  0.52580  0.68670  Biso   1.000  H
  H53      1.0000 0.24200  0.54230  0.70540  Biso   1.000  H
  H54      1.0000 0.34240  0.63020  0.75810  Biso   1.000  H
  O19      1.0000 0.10420  0.92410  0.84350  Biso   1.000  O
  O20      1.0000 0.08360  0.75040  0.76022  Biso   1.000  O
  O21      1.0000 0.92890  0.32970  0.05750  Biso   1.000  O
  C31      1.0000 0.03880  0.73530  0.92090  Biso   1.000  C
  C32      1.0000 0.03670  0.60010  0.92040  Biso   1.000  C
  H55      1.0000 0.05990  0.55510  0.86670  Biso   1.000  H
  C33      1.0000 0.07970  0.80710  0.83530  Biso   1.000  C
  H56      1.0000 0.30710  0.37430  0.91560  Biso   1.000  H
  C34      1.0000 0.42100  0.33200  0.80340  Biso   1.000  C
  H57      1.0000 0.45960  0.41620  0.81110  Biso   1.000  H
  H58      1.0000 0.38550  0.32450  0.74190  Biso   1.000  H
  H59      1.0000 0.48650  0.26610  0.81210  Biso   1.000  H
  H60      1.0000 0.32540  0.36220  0.82720  Biso   1.000  H
  C35      1.0000 0.41300  0.32400  0.95000  Biso   1.000  C
  H61      1.0000 0.47420  0.39130  0.93670  Biso   1.000  H
  H62      1.0000 0.45770  0.24200  0.95540  Biso   1.000  H
  H63      1.0000 0.36980  0.34240  0.00810  Biso   1.000  H
  O22      1.0000 0.89580  0.07590  0.34350  Biso   1.000  O
  O23      1.0000 0.91640  0.24960  0.26022  Biso   1.000  O
  O24      1.0000 0.07110  0.67030  0.55750  Biso   1.000  O
  C36      1.0000 0.96120  0.26470  0.42090  Biso   1.000  C
  C37      1.0000 0.96330  0.39990  0.42040  Biso   1.000  C
  H64      1.0000 0.94010  0.44490  0.36670  Biso   1.000  H
  C38      1.0000 0.92030  0.19290  0.33530  Biso   1.000  C
  H65      1.0000 0.69290  0.62570  0.41560  Biso   1.000  H
  C39      1.0000 0.57900  0.66800  0.30340  Biso   1.000  C
  H66      1.0000 0.54040  0.58380  0.31110  Biso   1.000  H
  H67      1.0000 0.61450  0.67550  0.24190  Biso   1.000  H
  H68      1.0000 0.51350  0.73390  0.31210  Biso   1.000  H
  H69      1.0000 0.67460  0.63780  0.32720  Biso   1.000  H
  C40      1.0000 0.58700  0.67600  0.45000  Biso   1.000  C
  H70      1.0000 0.52580  0.60870  0.43670  Biso   1.000  H
  H71      1.0000 0.54230  0.75800  0.45540  Biso   1.000  H
  H72      1.0000 0.63020  0.65760  0.50810  Biso   1.000  H
  Tb1      1.0000 0.14258  0.14258  0.87500  Biso   1.000  Tb
  O25      1.0000 0.31330  0.31330  0.87500  Biso   1.000  O
  O26      1.0000 0.31590  0.31590  0.87500  Biso   1.000  O
  Tb2      1.0000 0.85742  0.85742  0.37500  Biso   1.000  Tb
  O27      1.0000 0.68670  0.68670  0.37500  Biso   1.000  O
  O28      1.0000 0.68410  0.68410  0.37500  Biso   1.000  O
  Tb3      1.0000 0.85742  0.14258  0.12500  Biso   1.000  Tb
  O29      1.0000 0.68670  0.31330  0.12500  Biso   1.000  O
  O30      1.0000 0.68410  0.31590  0.12500  Biso   1.000  O
  Tb4      1.0000 0.14258  0.85742  0.62500  Biso   1.000  Tb
  O31      1.0000 0.31330  0.68670  0.62500  Biso   1.000  O
  O32      1.0000 0.31590  0.68410  0.62500  Biso   1.000  O
  C41      1.0000 0.80070  0.00000  0.75000  Biso   1.000  C
  H73      1.0000 0.89120  0.00000  0.75000  Biso   1.000  H
  C42      1.0000 0.53170  0.00000  0.75000  Biso   1.000  C
  C43      1.0000 0.38440  0.00000  0.75000  Biso   1.000  C
  C44      1.0000 0.19930  0.00000  0.25000  Biso   1.000  C
  H74      1.0000 0.10880  0.00000  0.25000  Biso   1.000  H
  C45      1.0000 0.46830  0.00000  0.25000  Biso   1.000  C
  C46      1.0000 0.61560  0.00000  0.25000  Biso   1.000  C
  C47      1.0000 0.00000  0.80070  0.00000  Biso   1.000  C
  H75      1.0000 0.00000  0.89120  0.00000  Biso   1.000  H
  C48      1.0000 0.00000  0.53170  0.00000  Biso   1.000  C
  C49      1.0000 0.00000  0.38440  0.00000  Biso   1.000  C
  C50      1.0000 0.00000  0.19930  0.50000  Biso   1.000  C
  H76      1.0000 0.00000  0.10880  0.50000  Biso   1.000  H
  C51      1.0000 0.00000  0.46830  0.50000  Biso   1.000  C
  C52      1.0000 0.00000  0.61560  0.50000  Biso   1.000  C
