data_image0
_cell_length_a       11.126
_cell_length_b       17.361
_cell_length_c       16.119
_cell_angle_alpha    90
_cell_angle_beta     102.4
_cell_angle_gamma    90

_symmetry_space_group_name_H-M    "P 1"
_symmetry_int_tables_number       1

loop_
  _symmetry_equiv_pos_as_xyz
  'x, y, z'

loop_
  _atom_site_label
  _atom_site_occupancy
  _atom_site_fract_x
  _atom_site_fract_y
  _atom_site_fract_z
  _atom_site_thermal_displace_type
  _atom_site_B_iso_or_equiv
  _atom_site_type_symbol
  Cd1      1.0000 0.15843  0.44530  0.88325  Biso   1.000  Cd
  Cd2      1.0000 0.33557  0.40609  0.09503  Biso   1.000  Cd
  O1       1.0000 0.17660  0.55920  0.81380  Biso   1.000  O
  O2       1.0000 0.24460  0.41970  0.76870  Biso   1.000  O
  O3       1.0000 0.02420  0.49170  0.11060  Biso   1.000  O
  O4       1.0000 0.47050  0.16130  0.14790  Biso   1.000  O
  O5       1.0000 0.13360  0.44390  0.02170  Biso   1.000  O
  O6       1.0000 0.34240  0.48810  0.97520  Biso   1.000  O
  O7       1.0000 0.22370  0.16900  0.09080  Biso   1.000  O
  O8       1.0000 0.32440  0.47390  0.66780  Biso   1.000  O
  O9       1.0000 0.22750  0.28550  0.09030  Biso   1.000  O
  O10      1.0000 0.46680  0.29980  0.12010  Biso   1.000  O
  O11      1.0000 0.27340  0.61360  0.72310  Biso   1.000  O
  O12      1.0000 0.46560  0.54610  0.90300  Biso   1.000  O
  C1       1.0000 0.23820  0.55610  0.75840  Biso   1.000  C
  C2       1.0000 0.04420  0.48210  0.03880  Biso   1.000  C
  C3       1.0000 0.44600  0.50960  0.96430  Biso   1.000  C
  C4       1.0000 0.27150  0.47650  0.72770  Biso   1.000  C
  C5       1.0000 0.27420  0.23610  0.09470  Biso   1.000  C
  C6       1.0000 0.41580  0.23510  0.11790  Biso   1.000  C
  O13      1.0000 0.19540  0.16290  0.03480  Biso   1.000  O
  O14      1.0000 0.48860  0.32090  0.18970  Biso   1.000  O
  C7       1.0000 0.23120  0.23250  0.04030  Biso   1.000  C
  Cd3      1.0000 0.65843  0.94530  0.88325  Biso   1.000  Cd
  Cd4      1.0000 0.83557  0.90609  0.09503  Biso   1.000  Cd
  O15      1.0000 0.67660  0.05920  0.81380  Biso   1.000  O
  O16      1.0000 0.74460  0.91970  0.76870  Biso   1.000  O
  O17      1.0000 0.52420  0.99170  0.11060  Biso   1.000  O
  O18      1.0000 0.97050  0.66130  0.14790  Biso   1.000  O
  O19      1.0000 0.63360  0.94390  0.02170  Biso   1.000  O
  O20      1.0000 0.84240  0.98810  0.97520  Biso   1.000  O
  O21      1.0000 0.72370  0.66900  0.09080  Biso   1.000  O
  O22      1.0000 0.82440  0.97390  0.66780  Biso   1.000  O
  O23      1.0000 0.72750  0.78550  0.09030  Biso   1.000  O
  O24      1.0000 0.96680  0.79980  0.12010  Biso   1.000  O
  O25      1.0000 0.77340  0.11360  0.72310  Biso   1.000  O
  O26      1.0000 0.96560  0.04610  0.90300  Biso   1.000  O
  C8       1.0000 0.73820  0.05610  0.75840  Biso   1.000  C
  C9       1.0000 0.54420  0.98210  0.03880  Biso   1.000  C
  C10      1.0000 0.94600  0.00960  0.96430  Biso   1.000  C
  C11      1.0000 0.77150  0.97650  0.72770  Biso   1.000  C
  C12      1.0000 0.77420  0.73610  0.09470  Biso   1.000  C
  C13      1.0000 0.91580  0.73510  0.11790  Biso   1.000  C
  O27      1.0000 0.69540  0.66290  0.03480  Biso   1.000  O
  O28      1.0000 0.98860  0.82090  0.18970  Biso   1.000  O
  C14      1.0000 0.73120  0.73250  0.04030  Biso   1.000  C
  Cd5      1.0000 0.84157  0.44530  0.61675  Biso   1.000  Cd
  Cd6      1.0000 0.66443  0.40609  0.40497  Biso   1.000  Cd
  O29      1.0000 0.82340  0.55920  0.68620  Biso   1.000  O
  O30      1.0000 0.75540  0.41970  0.73130  Biso   1.000  O
  O31      1.0000 0.97580  0.49170  0.38940  Biso   1.000  O
  O32      1.0000 0.52950  0.16130  0.35210  Biso   1.000  O
  O33      1.0000 0.86640  0.44390  0.47830  Biso   1.000  O
  O34      1.0000 0.65760  0.48810  0.52480  Biso   1.000  O
  O35      1.0000 0.77630  0.16900  0.40920  Biso   1.000  O
  O36      1.0000 0.67560  0.47390  0.83220  Biso   1.000  O
  O37      1.0000 0.77250  0.28550  0.40970  Biso   1.000  O
  O38      1.0000 0.53320  0.29980  0.37990  Biso   1.000  O
  O39      1.0000 0.72660  0.61360  0.77690  Biso   1.000  O
  O40      1.0000 0.53440  0.54610  0.59700  Biso   1.000  O
  C15      1.0000 0.76180  0.55610  0.74160  Biso   1.000  C
  C16      1.0000 0.95580  0.48210  0.46120  Biso   1.000  C
  C17      1.0000 0.55400  0.50960  0.53570  Biso   1.000  C
  C18      1.0000 0.72850  0.47650  0.77230  Biso   1.000  C
  C19      1.0000 0.72580  0.23610  0.40530  Biso   1.000  C
  C20      1.0000 0.58420  0.23510  0.38210  Biso   1.000  C
  O41      1.0000 0.80460  0.16290  0.46520  Biso   1.000  O
  O42      1.0000 0.51140  0.32090  0.31030  Biso   1.000  O
  C21      1.0000 0.76880  0.23250  0.45970  Biso   1.000  C
  Cd7      1.0000 0.34157  0.94530  0.61675  Biso   1.000  Cd
  Cd8      1.0000 0.16443  0.90609  0.40497  Biso   1.000  Cd
  O43      1.0000 0.32340  0.05920  0.68620  Biso   1.000  O
  O44      1.0000 0.25540  0.91970  0.73130  Biso   1.000  O
  O45      1.0000 0.47580  0.99170  0.38940  Biso   1.000  O
  O46      1.0000 0.02950  0.66130  0.35210  Biso   1.000  O
  O47      1.0000 0.36640  0.94390  0.47830  Biso   1.000  O
  O48      1.0000 0.15760  0.98810  0.52480  Biso   1.000  O
  O49      1.0000 0.27630  0.66900  0.40920  Biso   1.000  O
  O50      1.0000 0.17560  0.97390  0.83220  Biso   1.000  O
  O51      1.0000 0.27250  0.78550  0.40970  Biso   1.000  O
  O52      1.0000 0.03320  0.79980  0.37990  Biso   1.000  O
  O53      1.0000 0.22660  0.11360  0.77690  Biso   1.000  O
  O54      1.0000 0.03440  0.04610  0.59700  Biso   1.000  O
  C22      1.0000 0.26180  0.05610  0.74160  Biso   1.000  C
  C23      1.0000 0.45580  0.98210  0.46120  Biso   1.000  C
  C24      1.0000 0.05400  0.00960  0.53570  Biso   1.000  C
  C25      1.0000 0.22850  0.97650  0.77230  Biso   1.000  C
  C26      1.0000 0.22580  0.73610  0.40530  Biso   1.000  C
  C27      1.0000 0.08420  0.73510  0.38210  Biso   1.000  C
  O55      1.0000 0.30460  0.66290  0.46520  Biso   1.000  O
  O56      1.0000 0.01140  0.82090  0.31030  Biso   1.000  O
  C28      1.0000 0.26880  0.73250  0.45970  Biso   1.000  C
  Cd9      1.0000 0.84157  0.55470  0.11675  Biso   1.000  Cd
  Cd10     1.0000 0.66443  0.59391  0.90497  Biso   1.000  Cd
  O57      1.0000 0.82340  0.44080  0.18620  Biso   1.000  O
  O58      1.0000 0.75540  0.58030  0.23130  Biso   1.000  O
  O59      1.0000 0.97580  0.50830  0.88940  Biso   1.000  O
  O60      1.0000 0.52950  0.83870  0.85210  Biso   1.000  O
  O61      1.0000 0.86640  0.55610  0.97830  Biso   1.000  O
  O62      1.0000 0.65760  0.51190  0.02480  Biso   1.000  O
  O63      1.0000 0.77630  0.83100  0.90920  Biso   1.000  O
  O64      1.0000 0.67560  0.52610  0.33220  Biso   1.000  O
  O65      1.0000 0.77250  0.71450  0.90970  Biso   1.000  O
  O66      1.0000 0.53320  0.70020  0.87990  Biso   1.000  O
  O67      1.0000 0.72660  0.38640  0.27690  Biso   1.000  O
  O68      1.0000 0.53440  0.45390  0.09700  Biso   1.000  O
  C29      1.0000 0.76180  0.44390  0.24160  Biso   1.000  C
  C30      1.0000 0.95580  0.51790  0.96120  Biso   1.000  C
  C31      1.0000 0.55400  0.49040  0.03570  Biso   1.000  C
  C32      1.0000 0.72850  0.52350  0.27230  Biso   1.000  C
  C33      1.0000 0.72580  0.76390  0.90530  Biso   1.000  C
  C34      1.0000 0.58420  0.76490  0.88210  Biso   1.000  C
  O69      1.0000 0.80460  0.83710  0.96520  Biso   1.000  O
  O70      1.0000 0.51140  0.67910  0.81030  Biso   1.000  O
  C35      1.0000 0.76880  0.76750  0.95970  Biso   1.000  C
  Cd11     1.0000 0.34157  0.05470  0.11675  Biso   1.000  Cd
  Cd12     1.0000 0.16443  0.09391  0.90497  Biso   1.000  Cd
  O71      1.0000 0.32340  0.94080  0.18620  Biso   1.000  O
  O72      1.0000 0.25540  0.08030  0.23130  Biso   1.000  O
  O73      1.0000 0.47580  0.00830  0.88940  Biso   1.000  O
  O74      1.0000 0.02950  0.33870  0.85210  Biso   1.000  O
  O75      1.0000 0.36640  0.05610  0.97830  Biso   1.000  O
  O76      1.0000 0.15760  0.01190  0.02480  Biso   1.000  O
  O77      1.0000 0.27630  0.33100  0.90920  Biso   1.000  O
  O78      1.0000 0.17560  0.02610  0.33220  Biso   1.000  O
  O79      1.0000 0.27250  0.21450  0.90970  Biso   1.000  O
  O80      1.0000 0.03320  0.20020  0.87990  Biso   1.000  O
  O81      1.0000 0.22660  0.88640  0.27690  Biso   1.000  O
  O82      1.0000 0.03440  0.95390  0.09700  Biso   1.000  O
  C36      1.0000 0.26180  0.94390  0.24160  Biso   1.000  C
  C37      1.0000 0.45580  0.01790  0.96120  Biso   1.000  C
  C38      1.0000 0.05400  0.99040  0.03570  Biso   1.000  C
  C39      1.0000 0.22850  0.02350  0.27230  Biso   1.000  C
  C40      1.0000 0.22580  0.26390  0.90530  Biso   1.000  C
  C41      1.0000 0.08420  0.26490  0.88210  Biso   1.000  C
  O83      1.0000 0.30460  0.33710  0.96520  Biso   1.000  O
  O84      1.0000 0.01140  0.17910  0.81030  Biso   1.000  O
  C42      1.0000 0.26880  0.26750  0.95970  Biso   1.000  C
  Cd13     1.0000 0.15843  0.55470  0.38325  Biso   1.000  Cd
  Cd14     1.0000 0.33557  0.59391  0.59503  Biso   1.000  Cd
  O85      1.0000 0.17660  0.44080  0.31380  Biso   1.000  O
  O86      1.0000 0.24460  0.58030  0.26870  Biso   1.000  O
  O87      1.0000 0.02420  0.50830  0.61060  Biso   1.000  O
  O88      1.0000 0.47050  0.83870  0.64790  Biso   1.000  O
  O89      1.0000 0.13360  0.55610  0.52170  Biso   1.000  O
  O90      1.0000 0.34240  0.51190  0.47520  Biso   1.000  O
  O91      1.0000 0.22370  0.83100  0.59080  Biso   1.000  O
  O92      1.0000 0.32440  0.52610  0.16780  Biso   1.000  O
  O93      1.0000 0.22750  0.71450  0.59030  Biso   1.000  O
  O94      1.0000 0.46680  0.70020  0.62010  Biso   1.000  O
  O95      1.0000 0.27340  0.38640  0.22310  Biso   1.000  O
  O96      1.0000 0.46560  0.45390  0.40300  Biso   1.000  O
  C43      1.0000 0.23820  0.44390  0.25840  Biso   1.000  C
  C44      1.0000 0.04420  0.51790  0.53880  Biso   1.000  C
  C45      1.0000 0.44600  0.49040  0.46430  Biso   1.000  C
  C46      1.0000 0.27150  0.52350  0.22770  Biso   1.000  C
  C47      1.0000 0.27420  0.76390  0.59470  Biso   1.000  C
  C48      1.0000 0.41580  0.76490  0.61790  Biso   1.000  C
  O97      1.0000 0.19540  0.83710  0.53480  Biso   1.000  O
  O98      1.0000 0.48860  0.67910  0.68970  Biso   1.000  O
  C49      1.0000 0.23120  0.76750  0.54030  Biso   1.000  C
  Cd15     1.0000 0.65843  0.05470  0.38325  Biso   1.000  Cd
  Cd16     1.0000 0.83557  0.09391  0.59503  Biso   1.000  Cd
  O99      1.0000 0.67660  0.94080  0.31380  Biso   1.000  O
  O100     1.0000 0.74460  0.08030  0.26870  Biso   1.000  O
  O101     1.0000 0.52420  0.00830  0.61060  Biso   1.000  O
  O102     1.0000 0.97050  0.33870  0.64790  Biso   1.000  O
  O103     1.0000 0.63360  0.05610  0.52170  Biso   1.000  O
  O104     1.0000 0.84240  0.01190  0.47520  Biso   1.000  O
  O105     1.0000 0.72370  0.33100  0.59080  Biso   1.000  O
  O106     1.0000 0.82440  0.02610  0.16780  Biso   1.000  O
  O107     1.0000 0.72750  0.21450  0.59030  Biso   1.000  O
  O108     1.0000 0.96680  0.20020  0.62010  Biso   1.000  O
  O109     1.0000 0.77340  0.88640  0.22310  Biso   1.000  O
  O110     1.0000 0.96560  0.95390  0.40300  Biso   1.000  O
  C50      1.0000 0.73820  0.94390  0.25840  Biso   1.000  C
  C51      1.0000 0.54420  0.01790  0.53880  Biso   1.000  C
  C52      1.0000 0.94600  0.99040  0.46430  Biso   1.000  C
  C53      1.0000 0.77150  0.02350  0.22770  Biso   1.000  C
  C54      1.0000 0.77420  0.26390  0.59470  Biso   1.000  C
  C55      1.0000 0.91580  0.26490  0.61790  Biso   1.000  C
  O111     1.0000 0.69540  0.33710  0.53480  Biso   1.000  O
  O112     1.0000 0.98860  0.17910  0.68970  Biso   1.000  O
  C56      1.0000 0.73120  0.26750  0.54030  Biso   1.000  C
