data_image0
_cell_length_a       25.481
_cell_length_b       22.483
_cell_length_c       17.233
_cell_angle_alpha    90
_cell_angle_beta     92.696
_cell_angle_gamma    90

_symmetry_space_group_name_H-M    "P 1"
_symmetry_int_tables_number       1

loop_
  _symmetry_equiv_pos_as_xyz
  'x, y, z'

loop_
  _atom_site_label
  _atom_site_occupancy
  _atom_site_fract_x
  _atom_site_fract_y
  _atom_site_fract_z
  _atom_site_thermal_displace_type
  _atom_site_B_iso_or_equiv
  _atom_site_type_symbol
  Zn1      1.0000 0.13300  0.07000  0.30800  Biso   1.000  Zn
  O1       1.0000 0.71000  0.59000  0.19000  Biso   1.000  O
  O2       1.0000 0.69000  0.63000  0.30000  Biso   1.000  O
  O3       1.0000 0.06000  0.89000  0.30000  Biso   1.000  O
  O4       1.0000 0.03000  0.93000  0.19000  Biso   1.000  O
  O5       1.0000 0.13000  0.95000  0.42000  Biso   1.000  O
  C1       1.0000 0.72000  0.63000  0.24000  Biso   1.000  C
  C2       1.0000 0.76000  0.67000  0.24000  Biso   1.000  C
  C3       1.0000 0.76000  0.71000  0.30000  Biso   1.000  C
  H1       1.0000 0.73980  0.71650  0.33980  Biso   1.000  H
  C4       1.0000 0.81000  0.75000  0.30000  Biso   1.000  C
  C5       1.0000 0.84000  0.75000  0.25000  Biso   1.000  C
  C6       1.0000 0.84000  0.70000  0.19000  Biso   1.000  C
  C7       1.0000 0.80000  0.67000  0.19000  Biso   1.000  C
  H2       1.0000 0.79090  0.63670  0.14640  Biso   1.000  H
  C8       1.0000 0.89000  0.79000  0.25000  Biso   1.000  C
  C9       1.0000 0.90000  0.82000  0.18000  Biso   1.000  C
  H3       1.0000 0.88020  0.81580  0.13420  Biso   1.000  H
  C10      1.0000 0.95000  0.85000  0.18000  Biso   1.000  C
  H4       1.0000 0.95490  0.87620  0.13430  Biso   1.000  H
  C11      1.0000 0.98000  0.86000  0.25000  Biso   1.000  C
  C12      1.0000 0.97000  0.83000  0.31000  Biso   1.000  C
  H5       1.0000 0.99230  0.82790  0.35660  Biso   1.000  H
  C13      1.0000 0.93000  0.79000  0.31000  Biso   1.000  C
  H6       1.0000 0.91750  0.76740  0.35650  Biso   1.000  H
  C14      1.0000 0.03000  0.89000  0.24000  Biso   1.000  C
  C15      1.0000 0.09300  0.02000  0.90000  Biso   1.000  C
  H7       1.0000 0.06250  0.03480  0.92420  Biso   1.000  H
  C16      1.0000 0.09600  0.02000  0.82000  Biso   1.000  C
  H8       1.0000 0.06750  0.03480  0.78900  Biso   1.000  H
  C17      1.0000 0.18000  0.98000  0.83000  Biso   1.000  C
  C18      1.0000 0.18000  0.98000  0.91000  Biso   1.000  C
  H9       1.0000 0.20920  0.96520  0.94630  Biso   1.000  H
  C19      1.0000 0.14000  0.95000  0.66000  Biso   1.000  C
  H10      1.0000 0.13930  0.90900  0.68690  Biso   1.000  H
  C20      1.0000 0.14000  0.95000  0.58000  Biso   1.000  C
  H11      1.0000 0.13970  0.91120  0.55030  Biso   1.000  H
  C21      1.0000 0.22000  0.95000  0.79300  Biso   1.000  C
  H12      1.0000 0.22020  0.94880  0.73860  Biso   1.000  H
  C22      1.0000 0.30790  0.82050  0.82750  Biso   1.000  C
  C23      1.0000 0.34940  0.78980  0.79660  Biso   1.000  C
  C24      1.0000 0.36950  0.73920  0.83370  Biso   1.000  C
  H13      1.0000 0.39780  0.71820  0.81250  Biso   1.000  H
  C25      1.0000 0.34810  0.71940  0.90180  Biso   1.000  C
  C26      1.0000 0.30660  0.75010  0.93280  Biso   1.000  C
  H14      1.0000 0.29200  0.73660  0.97930  Biso   1.000  H
  C27      1.0000 0.28650  0.80070  0.89560  Biso   1.000  C
  H15      1.0000 0.25820  0.82170  0.91680  Biso   1.000  H
  C28      1.0000 0.81240  0.80740  0.35550  Biso   1.000  C
  C29      1.0000 0.38080  0.19040  0.12300  Biso   1.000  C
  O6       1.0000 0.34930  0.65660  0.98490  Biso   1.000  O
  O7       1.0000 0.39990  0.64180  0.90830  Biso   1.000  O
  O8       1.0000 0.37500  0.87070  0.72400  Biso   1.000  O
  O9       1.0000 0.40180  0.78510  0.67770  Biso   1.000  O
  N1       1.0000 0.24870  0.90790  0.83210  Biso   1.000  N
  N2       1.0000 0.28150  0.87050  0.79680  Biso   1.000  N
  H16      1.0000 0.28710  0.87870  0.74800  Biso   1.000  H
  N3       1.0000 0.36580  0.67260  0.93170  Biso   1.000  N
  N4       1.0000 0.37480  0.81360  0.72610  Biso   1.000  N
  Zn2      1.0000 0.63300  0.57000  0.30800  Biso   1.000  Zn
  O10      1.0000 0.21000  0.09000  0.19000  Biso   1.000  O
  O11      1.0000 0.19000  0.13000  0.30000  Biso   1.000  O
  O12      1.0000 0.56000  0.39000  0.30000  Biso   1.000  O
  O13      1.0000 0.53000  0.43000  0.19000  Biso   1.000  O
  O14      1.0000 0.63000  0.45000  0.42000  Biso   1.000  O
  C30      1.0000 0.22000  0.13000  0.24000  Biso   1.000  C
  C31      1.0000 0.26000  0.17000  0.24000  Biso   1.000  C
  C32      1.0000 0.26000  0.21000  0.30000  Biso   1.000  C
  H17      1.0000 0.23980  0.21650  0.33980  Biso   1.000  H
  C33      1.0000 0.31000  0.25000  0.30000  Biso   1.000  C
  C34      1.0000 0.34000  0.25000  0.25000  Biso   1.000  C
  C35      1.0000 0.34000  0.20000  0.19000  Biso   1.000  C
  C36      1.0000 0.30000  0.17000  0.19000  Biso   1.000  C
  H18      1.0000 0.29090  0.13670  0.14640  Biso   1.000  H
  C37      1.0000 0.39000  0.29000  0.25000  Biso   1.000  C
  C38      1.0000 0.40000  0.32000  0.18000  Biso   1.000  C
  H19      1.0000 0.38020  0.31580  0.13420  Biso   1.000  H
  C39      1.0000 0.45000  0.35000  0.18000  Biso   1.000  C
  H20      1.0000 0.45490  0.37620  0.13430  Biso   1.000  H
  C40      1.0000 0.48000  0.36000  0.25000  Biso   1.000  C
  C41      1.0000 0.47000  0.33000  0.31000  Biso   1.000  C
  H21      1.0000 0.49230  0.32790  0.35660  Biso   1.000  H
  C42      1.0000 0.43000  0.29000  0.31000  Biso   1.000  C
  H22      1.0000 0.41750  0.26740  0.35650  Biso   1.000  H
  C43      1.0000 0.53000  0.39000  0.24000  Biso   1.000  C
  C44      1.0000 0.59300  0.52000  0.90000  Biso   1.000  C
  H23      1.0000 0.56250  0.53480  0.92420  Biso   1.000  H
  C45      1.0000 0.59600  0.52000  0.82000  Biso   1.000  C
  H24      1.0000 0.56750  0.53480  0.78900  Biso   1.000  H
  C46      1.0000 0.68000  0.48000  0.83000  Biso   1.000  C
  C47      1.0000 0.68000  0.48000  0.91000  Biso   1.000  C
  H25      1.0000 0.70920  0.46520  0.94630  Biso   1.000  H
  C48      1.0000 0.64000  0.45000  0.66000  Biso   1.000  C
  H26      1.0000 0.63930  0.40900  0.68690  Biso   1.000  H
  C49      1.0000 0.64000  0.45000  0.58000  Biso   1.000  C
  H27      1.0000 0.63970  0.41120  0.55030  Biso   1.000  H
  C50      1.0000 0.72000  0.45000  0.79300  Biso   1.000  C
  H28      1.0000 0.72020  0.44880  0.73860  Biso   1.000  H
  C51      1.0000 0.80790  0.32050  0.82750  Biso   1.000  C
  C52      1.0000 0.84940  0.28980  0.79660  Biso   1.000  C
  C53      1.0000 0.86950  0.23920  0.83370  Biso   1.000  C
  H29      1.0000 0.89780  0.21820  0.81250  Biso   1.000  H
  C54      1.0000 0.84810  0.21940  0.90180  Biso   1.000  C
  C55      1.0000 0.80660  0.25010  0.93280  Biso   1.000  C
  H30      1.0000 0.79200  0.23660  0.97930  Biso   1.000  H
  C56      1.0000 0.78650  0.30070  0.89560  Biso   1.000  C
  H31      1.0000 0.75820  0.32170  0.91680  Biso   1.000  H
  C57      1.0000 0.31240  0.30740  0.35550  Biso   1.000  C
  C58      1.0000 0.88080  0.69040  0.12300  Biso   1.000  C
  O15      1.0000 0.84930  0.15660  0.98490  Biso   1.000  O
  O16      1.0000 0.89990  0.14180  0.90830  Biso   1.000  O
  O17      1.0000 0.87500  0.37070  0.72400  Biso   1.000  O
  O18      1.0000 0.90180  0.28510  0.67770  Biso   1.000  O
  N5       1.0000 0.74870  0.40790  0.83210  Biso   1.000  N
  N6       1.0000 0.78150  0.37050  0.79680  Biso   1.000  N
  H32      1.0000 0.78710  0.37870  0.74800  Biso   1.000  H
  N7       1.0000 0.86580  0.17260  0.93170  Biso   1.000  N
  N8       1.0000 0.87480  0.31360  0.72610  Biso   1.000  N
  Zn3      1.0000 0.13300  0.93000  0.30800  Biso   1.000  Zn
  O19      1.0000 0.71000  0.41000  0.19000  Biso   1.000  O
  O20      1.0000 0.69000  0.37000  0.30000  Biso   1.000  O
  O21      1.0000 0.06000  0.11000  0.30000  Biso   1.000  O
  O22      1.0000 0.03000  0.07000  0.19000  Biso   1.000  O
  O23      1.0000 0.13000  0.05000  0.42000  Biso   1.000  O
  C59      1.0000 0.72000  0.37000  0.24000  Biso   1.000  C
  C60      1.0000 0.76000  0.33000  0.24000  Biso   1.000  C
  C61      1.0000 0.76000  0.29000  0.30000  Biso   1.000  C
  H33      1.0000 0.73980  0.28350  0.33980  Biso   1.000  H
  C62      1.0000 0.81000  0.25000  0.30000  Biso   1.000  C
  C63      1.0000 0.84000  0.25000  0.25000  Biso   1.000  C
  C64      1.0000 0.84000  0.30000  0.19000  Biso   1.000  C
  C65      1.0000 0.80000  0.33000  0.19000  Biso   1.000  C
  H34      1.0000 0.79090  0.36330  0.14640  Biso   1.000  H
  C66      1.0000 0.89000  0.21000  0.25000  Biso   1.000  C
  C67      1.0000 0.90000  0.18000  0.18000  Biso   1.000  C
  H35      1.0000 0.88020  0.18420  0.13420  Biso   1.000  H
  C68      1.0000 0.95000  0.15000  0.18000  Biso   1.000  C
  H36      1.0000 0.95490  0.12380  0.13430  Biso   1.000  H
  C69      1.0000 0.98000  0.14000  0.25000  Biso   1.000  C
  C70      1.0000 0.97000  0.17000  0.31000  Biso   1.000  C
  H37      1.0000 0.99230  0.17210  0.35660  Biso   1.000  H
  C71      1.0000 0.93000  0.21000  0.31000  Biso   1.000  C
  H38      1.0000 0.91750  0.23260  0.35650  Biso   1.000  H
  C72      1.0000 0.03000  0.11000  0.24000  Biso   1.000  C
  C73      1.0000 0.09300  0.98000  0.90000  Biso   1.000  C
  H39      1.0000 0.06250  0.96520  0.92420  Biso   1.000  H
  C74      1.0000 0.09600  0.98000  0.82000  Biso   1.000  C
  H40      1.0000 0.06750  0.96520  0.78900  Biso   1.000  H
  C75      1.0000 0.18000  0.02000  0.83000  Biso   1.000  C
  C76      1.0000 0.18000  0.02000  0.91000  Biso   1.000  C
  H41      1.0000 0.20920  0.03480  0.94630  Biso   1.000  H
  C77      1.0000 0.14000  0.05000  0.66000  Biso   1.000  C
  H42      1.0000 0.13930  0.09100  0.68690  Biso   1.000  H
  C78      1.0000 0.14000  0.05000  0.58000  Biso   1.000  C
  H43      1.0000 0.13970  0.08880  0.55030  Biso   1.000  H
  C79      1.0000 0.22000  0.05000  0.79300  Biso   1.000  C
  H44      1.0000 0.22020  0.05120  0.73860  Biso   1.000  H
  C80      1.0000 0.30790  0.17950  0.82750  Biso   1.000  C
  C81      1.0000 0.34940  0.21020  0.79660  Biso   1.000  C
  C82      1.0000 0.36950  0.26080  0.83370  Biso   1.000  C
  H45      1.0000 0.39780  0.28180  0.81250  Biso   1.000  H
  C83      1.0000 0.34810  0.28060  0.90180  Biso   1.000  C
  C84      1.0000 0.30660  0.24990  0.93280  Biso   1.000  C
  H46      1.0000 0.29200  0.26340  0.97930  Biso   1.000  H
  C85      1.0000 0.28650  0.19930  0.89560  Biso   1.000  C
  H47      1.0000 0.25820  0.17830  0.91680  Biso   1.000  H
  C86      1.0000 0.81240  0.19260  0.35550  Biso   1.000  C
  C87      1.0000 0.38080  0.80960  0.12300  Biso   1.000  C
  O24      1.0000 0.34930  0.34340  0.98490  Biso   1.000  O
  O25      1.0000 0.39990  0.35820  0.90830  Biso   1.000  O
  O26      1.0000 0.37500  0.12930  0.72400  Biso   1.000  O
  O27      1.0000 0.40180  0.21490  0.67770  Biso   1.000  O
  N9       1.0000 0.24870  0.09210  0.83210  Biso   1.000  N
  N10      1.0000 0.28150  0.12950  0.79680  Biso   1.000  N
  H48      1.0000 0.28710  0.12130  0.74800  Biso   1.000  H
  N11      1.0000 0.36580  0.32740  0.93170  Biso   1.000  N
  N12      1.0000 0.37480  0.18640  0.72610  Biso   1.000  N
  Zn4      1.0000 0.63300  0.43000  0.30800  Biso   1.000  Zn
  O28      1.0000 0.21000  0.91000  0.19000  Biso   1.000  O
  O29      1.0000 0.19000  0.87000  0.30000  Biso   1.000  O
  O30      1.0000 0.56000  0.61000  0.30000  Biso   1.000  O
  O31      1.0000 0.53000  0.57000  0.19000  Biso   1.000  O
  O32      1.0000 0.63000  0.55000  0.42000  Biso   1.000  O
  C88      1.0000 0.22000  0.87000  0.24000  Biso   1.000  C
  C89      1.0000 0.26000  0.83000  0.24000  Biso   1.000  C
  C90      1.0000 0.26000  0.79000  0.30000  Biso   1.000  C
  H49      1.0000 0.23980  0.78350  0.33980  Biso   1.000  H
  C91      1.0000 0.31000  0.75000  0.30000  Biso   1.000  C
  C92      1.0000 0.34000  0.75000  0.25000  Biso   1.000  C
  C93      1.0000 0.34000  0.80000  0.19000  Biso   1.000  C
  C94      1.0000 0.30000  0.83000  0.19000  Biso   1.000  C
  H50      1.0000 0.29090  0.86330  0.14640  Biso   1.000  H
  C95      1.0000 0.39000  0.71000  0.25000  Biso   1.000  C
  C96      1.0000 0.40000  0.68000  0.18000  Biso   1.000  C
  H51      1.0000 0.38020  0.68420  0.13420  Biso   1.000  H
  C97      1.0000 0.45000  0.65000  0.18000  Biso   1.000  C
  H52      1.0000 0.45490  0.62380  0.13430  Biso   1.000  H
  C98      1.0000 0.48000  0.64000  0.25000  Biso   1.000  C
  C99      1.0000 0.47000  0.67000  0.31000  Biso   1.000  C
  H53      1.0000 0.49230  0.67210  0.35660  Biso   1.000  H
  C100     1.0000 0.43000  0.71000  0.31000  Biso   1.000  C
  H54      1.0000 0.41750  0.73260  0.35650  Biso   1.000  H
  C101     1.0000 0.53000  0.61000  0.24000  Biso   1.000  C
  C102     1.0000 0.59300  0.48000  0.90000  Biso   1.000  C
  H55      1.0000 0.56250  0.46520  0.92420  Biso   1.000  H
  C103     1.0000 0.59600  0.48000  0.82000  Biso   1.000  C
  H56      1.0000 0.56750  0.46520  0.78900  Biso   1.000  H
  C104     1.0000 0.68000  0.52000  0.83000  Biso   1.000  C
  C105     1.0000 0.68000  0.52000  0.91000  Biso   1.000  C
  H57      1.0000 0.70920  0.53480  0.94630  Biso   1.000  H
  C106     1.0000 0.64000  0.55000  0.66000  Biso   1.000  C
  H58      1.0000 0.63930  0.59100  0.68690  Biso   1.000  H
  C107     1.0000 0.64000  0.55000  0.58000  Biso   1.000  C
  H59      1.0000 0.63970  0.58880  0.55030  Biso   1.000  H
  C108     1.0000 0.72000  0.55000  0.79300  Biso   1.000  C
  H60      1.0000 0.72020  0.55120  0.73860  Biso   1.000  H
  C109     1.0000 0.80790  0.67950  0.82750  Biso   1.000  C
  C110     1.0000 0.84940  0.71020  0.79660  Biso   1.000  C
  C111     1.0000 0.86950  0.76080  0.83370  Biso   1.000  C
  H61      1.0000 0.89780  0.78180  0.81250  Biso   1.000  H
  C112     1.0000 0.84810  0.78060  0.90180  Biso   1.000  C
  C113     1.0000 0.80660  0.74990  0.93280  Biso   1.000  C
  H62      1.0000 0.79200  0.76340  0.97930  Biso   1.000  H
  C114     1.0000 0.78650  0.69930  0.89560  Biso   1.000  C
  H63      1.0000 0.75820  0.67830  0.91680  Biso   1.000  H
  C115     1.0000 0.31240  0.69260  0.35550  Biso   1.000  C
  C116     1.0000 0.88080  0.30960  0.12300  Biso   1.000  C
  O33      1.0000 0.84930  0.84340  0.98490  Biso   1.000  O
  O34      1.0000 0.89990  0.85820  0.90830  Biso   1.000  O
  O35      1.0000 0.87500  0.62930  0.72400  Biso   1.000  O
  O36      1.0000 0.90180  0.71490  0.67770  Biso   1.000  O
  N13      1.0000 0.74870  0.59210  0.83210  Biso   1.000  N
  N14      1.0000 0.78150  0.62950  0.79680  Biso   1.000  N
  H64      1.0000 0.78710  0.62130  0.74800  Biso   1.000  H
  N15      1.0000 0.86580  0.82740  0.93170  Biso   1.000  N
  N16      1.0000 0.87480  0.68640  0.72610  Biso   1.000  N
  Zn5      1.0000 0.07600  0.00000  0.17000  Biso   1.000  Zn
  Zn6      1.0000 0.20200  0.00000  0.18600  Biso   1.000  Zn
  O37      1.0000 0.14000  0.00000  0.24000  Biso   1.000  O
  O38      1.0000 0.09000  0.00000  0.06000  Biso   1.000  O
  O39      1.0000 0.17000  0.00000  0.07000  Biso   1.000  O
  C117     1.0000 0.13000  0.00000  0.03000  Biso   1.000  C
  C118     1.0000 0.14000  0.00000  0.95000  Biso   1.000  C
  C119     1.0000 0.14100  0.00000  0.79000  Biso   1.000  C
  C120     1.0000 0.14200  0.00000  0.70000  Biso   1.000  C
  C121     1.0000 0.14000  0.00000  0.54000  Biso   1.000  C
  C122     1.0000 0.14000  0.00000  0.45000  Biso   1.000  C
  Zn7      1.0000 0.57600  0.50000  0.17000  Biso   1.000  Zn
  Zn8      1.0000 0.70200  0.50000  0.18600  Biso   1.000  Zn
  O40      1.0000 0.64000  0.50000  0.24000  Biso   1.000  O
  O41      1.0000 0.59000  0.50000  0.06000  Biso   1.000  O
  O42      1.0000 0.67000  0.50000  0.07000  Biso   1.000  O
  C123     1.0000 0.63000  0.50000  0.03000  Biso   1.000  C
  C124     1.0000 0.64000  0.50000  0.95000  Biso   1.000  C
  C125     1.0000 0.64100  0.50000  0.79000  Biso   1.000  C
  C126     1.0000 0.64200  0.50000  0.70000  Biso   1.000  C
  C127     1.0000 0.64000  0.50000  0.54000  Biso   1.000  C
  C128     1.0000 0.64000  0.50000  0.45000  Biso   1.000  C
  Zn9      1.0000 0.86700  0.07000  0.69200  Biso   1.000  Zn
  O43      1.0000 0.29000  0.59000  0.81000  Biso   1.000  O
  O44      1.0000 0.31000  0.63000  0.70000  Biso   1.000  O
  O45      1.0000 0.94000  0.89000  0.70000  Biso   1.000  O
  O46      1.0000 0.97000  0.93000  0.81000  Biso   1.000  O
  O47      1.0000 0.87000  0.95000  0.58000  Biso   1.000  O
  C129     1.0000 0.28000  0.63000  0.76000  Biso   1.000  C
  C130     1.0000 0.24000  0.67000  0.76000  Biso   1.000  C
  C131     1.0000 0.24000  0.71000  0.70000  Biso   1.000  C
  H65      1.0000 0.26020  0.71650  0.66020  Biso   1.000  H
  C132     1.0000 0.19000  0.75000  0.70000  Biso   1.000  C
  C133     1.0000 0.16000  0.75000  0.75000  Biso   1.000  C
  C134     1.0000 0.16000  0.70000  0.81000  Biso   1.000  C
  C135     1.0000 0.20000  0.67000  0.81000  Biso   1.000  C
  H66      1.0000 0.20910  0.63670  0.85360  Biso   1.000  H
  C136     1.0000 0.11000  0.79000  0.75000  Biso   1.000  C
  C137     1.0000 0.10000  0.82000  0.82000  Biso   1.000  C
  H67      1.0000 0.11980  0.81580  0.86580  Biso   1.000  H
  C138     1.0000 0.05000  0.85000  0.82000  Biso   1.000  C
  H68      1.0000 0.04510  0.87620  0.86570  Biso   1.000  H
  C139     1.0000 0.02000  0.86000  0.75000  Biso   1.000  C
  C140     1.0000 0.03000  0.83000  0.69000  Biso   1.000  C
  H69      1.0000 0.00770  0.82790  0.64340  Biso   1.000  H
  C141     1.0000 0.07000  0.79000  0.69000  Biso   1.000  C
  H70      1.0000 0.08250  0.76740  0.64350  Biso   1.000  H
  C142     1.0000 0.97000  0.89000  0.76000  Biso   1.000  C
  C143     1.0000 0.90700  0.02000  0.10000  Biso   1.000  C
  H71      1.0000 0.93750  0.03480  0.07580  Biso   1.000  H
  C144     1.0000 0.90400  0.02000  0.18000  Biso   1.000  C
  H72      1.0000 0.93250  0.03480  0.21100  Biso   1.000  H
  C145     1.0000 0.82000  0.98000  0.17000  Biso   1.000  C
  C146     1.0000 0.82000  0.98000  0.09000  Biso   1.000  C
  H73      1.0000 0.79080  0.96520  0.05370  Biso   1.000  H
  C147     1.0000 0.86000  0.95000  0.34000  Biso   1.000  C
  H74      1.0000 0.86070  0.90900  0.31310  Biso   1.000  H
  C148     1.0000 0.86000  0.95000  0.42000  Biso   1.000  C
  H75      1.0000 0.86030  0.91120  0.44970  Biso   1.000  H
  C149     1.0000 0.78000  0.95000  0.20700  Biso   1.000  C
  H76      1.0000 0.77980  0.94880  0.26140  Biso   1.000  H
  C150     1.0000 0.69210  0.82050  0.17250  Biso   1.000  C
  C151     1.0000 0.65060  0.78980  0.20340  Biso   1.000  C
  C152     1.0000 0.63050  0.73920  0.16630  Biso   1.000  C
  H77      1.0000 0.60220  0.71820  0.18750  Biso   1.000  H
  C153     1.0000 0.65190  0.71940  0.09820  Biso   1.000  C
  C154     1.0000 0.69340  0.75010  0.06720  Biso   1.000  C
  H78      1.0000 0.70800  0.73660  0.02070  Biso   1.000  H
  C155     1.0000 0.71350  0.80070  0.10440  Biso   1.000  C
  H79      1.0000 0.74180  0.82170  0.08320  Biso   1.000  H
  C156     1.0000 0.18760  0.80740  0.64450  Biso   1.000  C
  C157     1.0000 0.61920  0.19040  0.87700  Biso   1.000  C
  O48      1.0000 0.65070  0.65660  0.01510  Biso   1.000  O
  O49      1.0000 0.60010  0.64180  0.09170  Biso   1.000  O
  O50      1.0000 0.62500  0.87070  0.27600  Biso   1.000  O
  O51      1.0000 0.59820  0.78510  0.32230  Biso   1.000  O
  N17      1.0000 0.75130  0.90790  0.16790  Biso   1.000  N
  N18      1.0000 0.71850  0.87050  0.20320  Biso   1.000  N
  H80      1.0000 0.71290  0.87870  0.25200  Biso   1.000  H
  N19      1.0000 0.63420  0.67260  0.06830  Biso   1.000  N
  N20      1.0000 0.62520  0.81360  0.27390  Biso   1.000  N
  Zn10     1.0000 0.36700  0.57000  0.69200  Biso   1.000  Zn
  O52      1.0000 0.79000  0.09000  0.81000  Biso   1.000  O
  O53      1.0000 0.81000  0.13000  0.70000  Biso   1.000  O
  O54      1.0000 0.44000  0.39000  0.70000  Biso   1.000  O
  O55      1.0000 0.47000  0.43000  0.81000  Biso   1.000  O
  O56      1.0000 0.37000  0.45000  0.58000  Biso   1.000  O
  C158     1.0000 0.78000  0.13000  0.76000  Biso   1.000  C
  C159     1.0000 0.74000  0.17000  0.76000  Biso   1.000  C
  C160     1.0000 0.74000  0.21000  0.70000  Biso   1.000  C
  H81      1.0000 0.76020  0.21650  0.66020  Biso   1.000  H
  C161     1.0000 0.69000  0.25000  0.70000  Biso   1.000  C
  C162     1.0000 0.66000  0.25000  0.75000  Biso   1.000  C
  C163     1.0000 0.66000  0.20000  0.81000  Biso   1.000  C
  C164     1.0000 0.70000  0.17000  0.81000  Biso   1.000  C
  H82      1.0000 0.70910  0.13670  0.85360  Biso   1.000  H
  C165     1.0000 0.61000  0.29000  0.75000  Biso   1.000  C
  C166     1.0000 0.60000  0.32000  0.82000  Biso   1.000  C
  H83      1.0000 0.61980  0.31580  0.86580  Biso   1.000  H
  C167     1.0000 0.55000  0.35000  0.82000  Biso   1.000  C
  H84      1.0000 0.54510  0.37620  0.86570  Biso   1.000  H
  C168     1.0000 0.52000  0.36000  0.75000  Biso   1.000  C
  C169     1.0000 0.53000  0.33000  0.69000  Biso   1.000  C
  H85      1.0000 0.50770  0.32790  0.64340  Biso   1.000  H
  C170     1.0000 0.57000  0.29000  0.69000  Biso   1.000  C
  H86      1.0000 0.58250  0.26740  0.64350  Biso   1.000  H
  C171     1.0000 0.47000  0.39000  0.76000  Biso   1.000  C
  C172     1.0000 0.40700  0.52000  0.10000  Biso   1.000  C
  H87      1.0000 0.43750  0.53480  0.07580  Biso   1.000  H
  C173     1.0000 0.40400  0.52000  0.18000  Biso   1.000  C
  H88      1.0000 0.43250  0.53480  0.21100  Biso   1.000  H
  C174     1.0000 0.32000  0.48000  0.17000  Biso   1.000  C
  C175     1.0000 0.32000  0.48000  0.09000  Biso   1.000  C
  H89      1.0000 0.29080  0.46520  0.05370  Biso   1.000  H
  C176     1.0000 0.36000  0.45000  0.34000  Biso   1.000  C
  H90      1.0000 0.36070  0.40900  0.31310  Biso   1.000  H
  C177     1.0000 0.36000  0.45000  0.42000  Biso   1.000  C
  H91      1.0000 0.36030  0.41120  0.44970  Biso   1.000  H
  C178     1.0000 0.28000  0.45000  0.20700  Biso   1.000  C
  H92      1.0000 0.27980  0.44880  0.26140  Biso   1.000  H
  C179     1.0000 0.19210  0.32050  0.17250  Biso   1.000  C
  C180     1.0000 0.15060  0.28980  0.20340  Biso   1.000  C
  C181     1.0000 0.13050  0.23920  0.16630  Biso   1.000  C
  H93      1.0000 0.10220  0.21820  0.18750  Biso   1.000  H
  C182     1.0000 0.15190  0.21940  0.09820  Biso   1.000  C
  C183     1.0000 0.19340  0.25010  0.06720  Biso   1.000  C
  H94      1.0000 0.20800  0.23660  0.02070  Biso   1.000  H
  C184     1.0000 0.21350  0.30070  0.10440  Biso   1.000  C
  H95      1.0000 0.24180  0.32170  0.08320  Biso   1.000  H
  C185     1.0000 0.68760  0.30740  0.64450  Biso   1.000  C
  C186     1.0000 0.11920  0.69040  0.87700  Biso   1.000  C
  O57      1.0000 0.15070  0.15660  0.01510  Biso   1.000  O
  O58      1.0000 0.10010  0.14180  0.09170  Biso   1.000  O
  O59      1.0000 0.12500  0.37070  0.27600  Biso   1.000  O
  O60      1.0000 0.09820  0.28510  0.32230  Biso   1.000  O
  N21      1.0000 0.25130  0.40790  0.16790  Biso   1.000  N
  N22      1.0000 0.21850  0.37050  0.20320  Biso   1.000  N
  H96      1.0000 0.21290  0.37870  0.25200  Biso   1.000  H
  N23      1.0000 0.13420  0.17260  0.06830  Biso   1.000  N
  N24      1.0000 0.12520  0.31360  0.27390  Biso   1.000  N
  Zn11     1.0000 0.86700  0.93000  0.69200  Biso   1.000  Zn
  O61      1.0000 0.29000  0.41000  0.81000  Biso   1.000  O
  O62      1.0000 0.31000  0.37000  0.70000  Biso   1.000  O
  O63      1.0000 0.94000  0.11000  0.70000  Biso   1.000  O
  O64      1.0000 0.97000  0.07000  0.81000  Biso   1.000  O
  O65      1.0000 0.87000  0.05000  0.58000  Biso   1.000  O
  C187     1.0000 0.28000  0.37000  0.76000  Biso   1.000  C
  C188     1.0000 0.24000  0.33000  0.76000  Biso   1.000  C
  C189     1.0000 0.24000  0.29000  0.70000  Biso   1.000  C
  H97      1.0000 0.26020  0.28350  0.66020  Biso   1.000  H
  C190     1.0000 0.19000  0.25000  0.70000  Biso   1.000  C
  C191     1.0000 0.16000  0.25000  0.75000  Biso   1.000  C
  C192     1.0000 0.16000  0.30000  0.81000  Biso   1.000  C
  C193     1.0000 0.20000  0.33000  0.81000  Biso   1.000  C
  H98      1.0000 0.20910  0.36330  0.85360  Biso   1.000  H
  C194     1.0000 0.11000  0.21000  0.75000  Biso   1.000  C
  C195     1.0000 0.10000  0.18000  0.82000  Biso   1.000  C
  H99      1.0000 0.11980  0.18420  0.86580  Biso   1.000  H
  C196     1.0000 0.05000  0.15000  0.82000  Biso   1.000  C
  H100     1.0000 0.04510  0.12380  0.86570  Biso   1.000  H
  C197     1.0000 0.02000  0.14000  0.75000  Biso   1.000  C
  C198     1.0000 0.03000  0.17000  0.69000  Biso   1.000  C
  H101     1.0000 0.00770  0.17210  0.64340  Biso   1.000  H
  C199     1.0000 0.07000  0.21000  0.69000  Biso   1.000  C
  H102     1.0000 0.08250  0.23260  0.64350  Biso   1.000  H
  C200     1.0000 0.97000  0.11000  0.76000  Biso   1.000  C
  C201     1.0000 0.90700  0.98000  0.10000  Biso   1.000  C
  H103     1.0000 0.93750  0.96520  0.07580  Biso   1.000  H
  C202     1.0000 0.90400  0.98000  0.18000  Biso   1.000  C
  H104     1.0000 0.93250  0.96520  0.21100  Biso   1.000  H
  C203     1.0000 0.82000  0.02000  0.17000  Biso   1.000  C
  C204     1.0000 0.82000  0.02000  0.09000  Biso   1.000  C
  H105     1.0000 0.79080  0.03480  0.05370  Biso   1.000  H
  C205     1.0000 0.86000  0.05000  0.34000  Biso   1.000  C
  H106     1.0000 0.86070  0.09100  0.31310  Biso   1.000  H
  C206     1.0000 0.86000  0.05000  0.42000  Biso   1.000  C
  H107     1.0000 0.86030  0.08880  0.44970  Biso   1.000  H
  C207     1.0000 0.78000  0.05000  0.20700  Biso   1.000  C
  H108     1.0000 0.77980  0.05120  0.26140  Biso   1.000  H
  C208     1.0000 0.69210  0.17950  0.17250  Biso   1.000  C
  C209     1.0000 0.65060  0.21020  0.20340  Biso   1.000  C
  C210     1.0000 0.63050  0.26080  0.16630  Biso   1.000  C
  H109     1.0000 0.60220  0.28180  0.18750  Biso   1.000  H
  C211     1.0000 0.65190  0.28060  0.09820  Biso   1.000  C
  C212     1.0000 0.69340  0.24990  0.06720  Biso   1.000  C
  H110     1.0000 0.70800  0.26340  0.02070  Biso   1.000  H
  C213     1.0000 0.71350  0.19930  0.10440  Biso   1.000  C
  H111     1.0000 0.74180  0.17830  0.08320  Biso   1.000  H
  C214     1.0000 0.18760  0.19260  0.64450  Biso   1.000  C
  C215     1.0000 0.61920  0.80960  0.87700  Biso   1.000  C
  O66      1.0000 0.65070  0.34340  0.01510  Biso   1.000  O
  O67      1.0000 0.60010  0.35820  0.09170  Biso   1.000  O
  O68      1.0000 0.62500  0.12930  0.27600  Biso   1.000  O
  O69      1.0000 0.59820  0.21490  0.32230  Biso   1.000  O
  N25      1.0000 0.75130  0.09210  0.16790  Biso   1.000  N
  N26      1.0000 0.71850  0.12950  0.20320  Biso   1.000  N
  H112     1.0000 0.71290  0.12130  0.25200  Biso   1.000  H
  N27      1.0000 0.63420  0.32740  0.06830  Biso   1.000  N
  N28      1.0000 0.62520  0.18640  0.27390  Biso   1.000  N
  Zn12     1.0000 0.36700  0.43000  0.69200  Biso   1.000  Zn
  O70      1.0000 0.79000  0.91000  0.81000  Biso   1.000  O
  O71      1.0000 0.81000  0.87000  0.70000  Biso   1.000  O
  O72      1.0000 0.44000  0.61000  0.70000  Biso   1.000  O
  O73      1.0000 0.47000  0.57000  0.81000  Biso   1.000  O
  O74      1.0000 0.37000  0.55000  0.58000  Biso   1.000  O
  C216     1.0000 0.78000  0.87000  0.76000  Biso   1.000  C
  C217     1.0000 0.74000  0.83000  0.76000  Biso   1.000  C
  C218     1.0000 0.74000  0.79000  0.70000  Biso   1.000  C
  H113     1.0000 0.76020  0.78350  0.66020  Biso   1.000  H
  C219     1.0000 0.69000  0.75000  0.70000  Biso   1.000  C
  C220     1.0000 0.66000  0.75000  0.75000  Biso   1.000  C
  C221     1.0000 0.66000  0.80000  0.81000  Biso   1.000  C
  C222     1.0000 0.70000  0.83000  0.81000  Biso   1.000  C
  H114     1.0000 0.70910  0.86330  0.85360  Biso   1.000  H
  C223     1.0000 0.61000  0.71000  0.75000  Biso   1.000  C
  C224     1.0000 0.60000  0.68000  0.82000  Biso   1.000  C
  H115     1.0000 0.61980  0.68420  0.86580  Biso   1.000  H
  C225     1.0000 0.55000  0.65000  0.82000  Biso   1.000  C
  H116     1.0000 0.54510  0.62380  0.86570  Biso   1.000  H
  C226     1.0000 0.52000  0.64000  0.75000  Biso   1.000  C
  C227     1.0000 0.53000  0.67000  0.69000  Biso   1.000  C
  H117     1.0000 0.50770  0.67210  0.64340  Biso   1.000  H
  C228     1.0000 0.57000  0.71000  0.69000  Biso   1.000  C
  H118     1.0000 0.58250  0.73260  0.64350  Biso   1.000  H
  C229     1.0000 0.47000  0.61000  0.76000  Biso   1.000  C
  C230     1.0000 0.40700  0.48000  0.10000  Biso   1.000  C
  H119     1.0000 0.43750  0.46520  0.07580  Biso   1.000  H
  C231     1.0000 0.40400  0.48000  0.18000  Biso   1.000  C
  H120     1.0000 0.43250  0.46520  0.21100  Biso   1.000  H
  C232     1.0000 0.32000  0.52000  0.17000  Biso   1.000  C
  C233     1.0000 0.32000  0.52000  0.09000  Biso   1.000  C
  H121     1.0000 0.29080  0.53480  0.05370  Biso   1.000  H
  C234     1.0000 0.36000  0.55000  0.34000  Biso   1.000  C
  H122     1.0000 0.36070  0.59100  0.31310  Biso   1.000  H
  C235     1.0000 0.36000  0.55000  0.42000  Biso   1.000  C
  H123     1.0000 0.36030  0.58880  0.44970  Biso   1.000  H
  C236     1.0000 0.28000  0.55000  0.20700  Biso   1.000  C
  H124     1.0000 0.27980  0.55120  0.26140  Biso   1.000  H
  C237     1.0000 0.19210  0.67950  0.17250  Biso   1.000  C
  C238     1.0000 0.15060  0.71020  0.20340  Biso   1.000  C
  C239     1.0000 0.13050  0.76080  0.16630  Biso   1.000  C
  H125     1.0000 0.10220  0.78180  0.18750  Biso   1.000  H
  C240     1.0000 0.15190  0.78060  0.09820  Biso   1.000  C
  C241     1.0000 0.19340  0.74990  0.06720  Biso   1.000  C
  H126     1.0000 0.20800  0.76340  0.02070  Biso   1.000  H
  C242     1.0000 0.21350  0.69930  0.10440  Biso   1.000  C
  H127     1.0000 0.24180  0.67830  0.08320  Biso   1.000  H
  C243     1.0000 0.68760  0.69260  0.64450  Biso   1.000  C
  C244     1.0000 0.11920  0.30960  0.87700  Biso   1.000  C
  O75      1.0000 0.15070  0.84340  0.01510  Biso   1.000  O
  O76      1.0000 0.10010  0.85820  0.09170  Biso   1.000  O
  O77      1.0000 0.12500  0.62930  0.27600  Biso   1.000  O
  O78      1.0000 0.09820  0.71490  0.32230  Biso   1.000  O
  N29      1.0000 0.25130  0.59210  0.16790  Biso   1.000  N
  N30      1.0000 0.21850  0.62950  0.20320  Biso   1.000  N
  H128     1.0000 0.21290  0.62130  0.25200  Biso   1.000  H
  N31      1.0000 0.13420  0.82740  0.06830  Biso   1.000  N
  N32      1.0000 0.12520  0.68640  0.27390  Biso   1.000  N
  Zn13     1.0000 0.92400  0.00000  0.83000  Biso   1.000  Zn
  Zn14     1.0000 0.79800  0.00000  0.81400  Biso   1.000  Zn
  O79      1.0000 0.86000  0.00000  0.76000  Biso   1.000  O
  O80      1.0000 0.91000  0.00000  0.94000  Biso   1.000  O
  O81      1.0000 0.83000  0.00000  0.93000  Biso   1.000  O
  C245     1.0000 0.87000  0.00000  0.97000  Biso   1.000  C
  C246     1.0000 0.86000  0.00000  0.05000  Biso   1.000  C
  C247     1.0000 0.85900  0.00000  0.21000  Biso   1.000  C
  C248     1.0000 0.85800  0.00000  0.30000  Biso   1.000  C
  C249     1.0000 0.86000  0.00000  0.46000  Biso   1.000  C
  C250     1.0000 0.86000  0.00000  0.55000  Biso   1.000  C
  Zn15     1.0000 0.42400  0.50000  0.83000  Biso   1.000  Zn
  Zn16     1.0000 0.29800  0.50000  0.81400  Biso   1.000  Zn
  O82      1.0000 0.36000  0.50000  0.76000  Biso   1.000  O
  O83      1.0000 0.41000  0.50000  0.94000  Biso   1.000  O
  O84      1.0000 0.33000  0.50000  0.93000  Biso   1.000  O
  C251     1.0000 0.37000  0.50000  0.97000  Biso   1.000  C
  C252     1.0000 0.36000  0.50000  0.05000  Biso   1.000  C
  C253     1.0000 0.35900  0.50000  0.21000  Biso   1.000  C
  C254     1.0000 0.35800  0.50000  0.30000  Biso   1.000  C
  C255     1.0000 0.36000  0.50000  0.46000  Biso   1.000  C
  C256     1.0000 0.36000  0.50000  0.55000  Biso   1.000  C
