data_image0
_cell_length_a       12.3096
_cell_length_b       11.757
_cell_length_c       12.6334
_cell_angle_alpha    90
_cell_angle_beta     98.103
_cell_angle_gamma    90

_symmetry_space_group_name_H-M    "P 1"
_symmetry_int_tables_number       1

loop_
  _symmetry_equiv_pos_as_xyz
  'x, y, z'

loop_
  _atom_site_label
  _atom_site_occupancy
  _atom_site_fract_x
  _atom_site_fract_y
  _atom_site_fract_z
  _atom_site_thermal_displace_type
  _atom_site_B_iso_or_equiv
  _atom_site_type_symbol
  P1       1.0000 0.23219  0.25000  0.09970  Biso   1.000  P
  P2       1.0000 0.06250  0.66730  0.11398  Biso   1.000  P
  P3       1.0000 0.42871  0.33890  0.36280  Biso   1.000  P
  P4       1.0000 0.32636  0.70580  0.36496  Biso   1.000  P
  V1       1.0000 0.69618  0.29947  0.38101  Biso   1.000  V
  V2       1.0000 0.17851  0.25670  0.33940  Biso   1.000  V
  V3       1.0000 0.26388  0.50490  0.20800  Biso   1.000  V
  O1       1.0000 0.39770  0.42390  0.27450  Biso   1.000  O
  O2       1.0000 0.26280  0.59640  0.33800  Biso   1.000  O
  O3       1.0000 0.11250  0.55760  0.16090  Biso   1.000  O
  O4       1.0000 0.53570  0.27990  0.35560  Biso   1.000  O
  O5       1.0000 0.17110  0.38900  0.30360  Biso   1.000  O
  O6       1.0000 0.32460  0.59590  0.14290  Biso   1.000  O
  O7       1.0000 0.30410  0.79360  0.27930  Biso   1.000  O
  O8       1.0000 0.34120  0.24830  0.36740  Biso   1.000  O
  O9       1.0000 0.30290  0.75270  0.46950  Biso   1.000  O
  O10      1.0000 0.23950  0.37950  0.10300  Biso   1.000  O
  O11      1.0000 0.14280  0.75740  0.09670  Biso   1.000  O
  O12      1.0000 0.97830  0.71110  0.18130  Biso   1.000  O
  O13      1.0000 0.17810  0.19990  0.18930  Biso   1.000  O
  O14      1.0000 0.17150  0.21300  0.99160  Biso   1.000  O
  O15      1.0000 0.43650  0.41160  0.46690  Biso   1.000  O
  H1       1.0000 0.40870  0.37660  0.51240  Biso   1.000  H
  O16      1.0000 0.44720  0.68700  0.36200  Biso   1.000  O
  H2       1.0000 0.47480  0.65660  0.41800  Biso   1.000  H
  O17      1.0000 0.01620  0.65100  0.99800  Biso   1.000  O
  H3       1.0000 0.95830  0.68640  0.98460  Biso   1.000  H
  O18      1.0000 0.34900  0.19800  0.12300  Biso   1.000  O
  H4       1.0000 0.36450  0.16770  0.06830  Biso   1.000  H
  P5       1.0000 0.76781  0.75000  0.40030  Biso   1.000  P
  P6       1.0000 0.93750  0.16730  0.38602  Biso   1.000  P
  P7       1.0000 0.57129  0.83890  0.13720  Biso   1.000  P
  P8       1.0000 0.67364  0.20580  0.13504  Biso   1.000  P
  V4       1.0000 0.30382  0.79947  0.11899  Biso   1.000  V
  V5       1.0000 0.82149  0.75670  0.16060  Biso   1.000  V
  V6       1.0000 0.73612  0.00490  0.29200  Biso   1.000  V
  O19      1.0000 0.60230  0.92390  0.22550  Biso   1.000  O
  O20      1.0000 0.73720  0.09640  0.16200  Biso   1.000  O
  O21      1.0000 0.88750  0.05760  0.33910  Biso   1.000  O
  O22      1.0000 0.46430  0.77990  0.14440  Biso   1.000  O
  O23      1.0000 0.82890  0.88900  0.19640  Biso   1.000  O
  O24      1.0000 0.67540  0.09590  0.35710  Biso   1.000  O
  O25      1.0000 0.69590  0.29360  0.22070  Biso   1.000  O
  O26      1.0000 0.65880  0.74830  0.13260  Biso   1.000  O
  O27      1.0000 0.69710  0.25270  0.03050  Biso   1.000  O
  O28      1.0000 0.76050  0.87950  0.39700  Biso   1.000  O
  O29      1.0000 0.85720  0.25740  0.40330  Biso   1.000  O
  O30      1.0000 0.02170  0.21110  0.31870  Biso   1.000  O
  O31      1.0000 0.82190  0.69990  0.31070  Biso   1.000  O
  O32      1.0000 0.82850  0.71300  0.50840  Biso   1.000  O
  O33      1.0000 0.56350  0.91160  0.03310  Biso   1.000  O
  H5       1.0000 0.59130  0.87660  0.98760  Biso   1.000  H
  O34      1.0000 0.55280  0.18700  0.13800  Biso   1.000  O
  H6       1.0000 0.52520  0.15660  0.08200  Biso   1.000  H
  O35      1.0000 0.98380  0.15100  0.50200  Biso   1.000  O
  H7       1.0000 0.04170  0.18640  0.51540  Biso   1.000  H
  O36      1.0000 0.65100  0.69800  0.37700  Biso   1.000  O
  H8       1.0000 0.63550  0.66770  0.43170  Biso   1.000  H
  P9       1.0000 0.76781  0.75000  0.90030  Biso   1.000  P
  P10      1.0000 0.93750  0.33270  0.88602  Biso   1.000  P
  P11      1.0000 0.57129  0.66110  0.63720  Biso   1.000  P
  P12      1.0000 0.67364  0.29420  0.63504  Biso   1.000  P
  V7       1.0000 0.30382  0.70053  0.61899  Biso   1.000  V
  V8       1.0000 0.82149  0.74330  0.66060  Biso   1.000  V
  V9       1.0000 0.73612  0.49510  0.79200  Biso   1.000  V
  O37      1.0000 0.60230  0.57610  0.72550  Biso   1.000  O
  O38      1.0000 0.73720  0.40360  0.66200  Biso   1.000  O
  O39      1.0000 0.88750  0.44240  0.83910  Biso   1.000  O
  O40      1.0000 0.46430  0.72010  0.64440  Biso   1.000  O
  O41      1.0000 0.82890  0.61100  0.69640  Biso   1.000  O
  O42      1.0000 0.67540  0.40410  0.85710  Biso   1.000  O
  O43      1.0000 0.69590  0.20640  0.72070  Biso   1.000  O
  O44      1.0000 0.65880  0.75170  0.63260  Biso   1.000  O
  O45      1.0000 0.69710  0.24730  0.53050  Biso   1.000  O
  O46      1.0000 0.76050  0.62050  0.89700  Biso   1.000  O
  O47      1.0000 0.85720  0.24260  0.90330  Biso   1.000  O
  O48      1.0000 0.02170  0.28890  0.81870  Biso   1.000  O
  O49      1.0000 0.82190  0.80010  0.81070  Biso   1.000  O
  O50      1.0000 0.82850  0.78700  0.00840  Biso   1.000  O
  O51      1.0000 0.56350  0.58840  0.53310  Biso   1.000  O
  H9       1.0000 0.59130  0.62340  0.48760  Biso   1.000  H
  O52      1.0000 0.55280  0.31300  0.63800  Biso   1.000  O
  H10      1.0000 0.52520  0.34340  0.58200  Biso   1.000  H
  O53      1.0000 0.98380  0.34900  0.00200  Biso   1.000  O
  H11      1.0000 0.04170  0.31360  0.01540  Biso   1.000  H
  O54      1.0000 0.65100  0.80200  0.87700  Biso   1.000  O
  H12      1.0000 0.63550  0.83230  0.93170  Biso   1.000  H
  P13      1.0000 0.23219  0.25000  0.59970  Biso   1.000  P
  P14      1.0000 0.06250  0.83270  0.61398  Biso   1.000  P
  P15      1.0000 0.42871  0.16110  0.86280  Biso   1.000  P
  P16      1.0000 0.32636  0.79420  0.86496  Biso   1.000  P
  V10      1.0000 0.69618  0.20053  0.88101  Biso   1.000  V
  V11      1.0000 0.17851  0.24330  0.83940  Biso   1.000  V
  V12      1.0000 0.26388  0.99510  0.70800  Biso   1.000  V
  O55      1.0000 0.39770  0.07610  0.77450  Biso   1.000  O
  O56      1.0000 0.26280  0.90360  0.83800  Biso   1.000  O
  O57      1.0000 0.11250  0.94240  0.66090  Biso   1.000  O
  O58      1.0000 0.53570  0.22010  0.85560  Biso   1.000  O
  O59      1.0000 0.17110  0.11100  0.80360  Biso   1.000  O
  O60      1.0000 0.32460  0.90410  0.64290  Biso   1.000  O
  O61      1.0000 0.30410  0.70640  0.77930  Biso   1.000  O
  O62      1.0000 0.34120  0.25170  0.86740  Biso   1.000  O
  O63      1.0000 0.30290  0.74730  0.96950  Biso   1.000  O
  O64      1.0000 0.23950  0.12050  0.60300  Biso   1.000  O
  O65      1.0000 0.14280  0.74260  0.59670  Biso   1.000  O
  O66      1.0000 0.97830  0.78890  0.68130  Biso   1.000  O
  O67      1.0000 0.17810  0.30010  0.68930  Biso   1.000  O
  O68      1.0000 0.17150  0.28700  0.49160  Biso   1.000  O
  O69      1.0000 0.43650  0.08840  0.96690  Biso   1.000  O
  H13      1.0000 0.40870  0.12340  0.01240  Biso   1.000  H
  O70      1.0000 0.44720  0.81300  0.86200  Biso   1.000  O
  H14      1.0000 0.47480  0.84340  0.91800  Biso   1.000  H
  O71      1.0000 0.01620  0.84900  0.49800  Biso   1.000  O
  H15      1.0000 0.95830  0.81360  0.48460  Biso   1.000  H
  O72      1.0000 0.34900  0.30200  0.62300  Biso   1.000  O
  H16      1.0000 0.36450  0.33230  0.56830  Biso   1.000  H
