data_image0
_cell_length_a       6.3554
_cell_length_b       9.166
_cell_length_c       15.311
_cell_angle_alpha    90.27
_cell_angle_beta     91.338
_cell_angle_gamma    106.594

_symmetry_space_group_name_H-M    "P 1"
_symmetry_int_tables_number       1

loop_
  _symmetry_equiv_pos_as_xyz
  'x, y, z'

loop_
  _atom_site_label
  _atom_site_occupancy
  _atom_site_fract_x
  _atom_site_fract_y
  _atom_site_fract_z
  _atom_site_thermal_displace_type
  _atom_site_B_iso_or_equiv
  _atom_site_type_symbol
  Fe1      1.0000 0.76532  0.03711  0.38230  Biso   1.000  Fe
  Fe2      1.0000 0.74731  0.04156  0.12640  Biso   1.000  Fe
  Fe3      1.0000 0.12952  0.68860  0.24959  Biso   1.000  Fe
  P1       1.0000 0.65506  0.77644  0.27779  Biso   1.000  P
  O1       1.0000 0.82640  0.70610  0.24210  Biso   1.000  O
  O2       1.0000 0.68060  0.80630  0.37748  Biso   1.000  O
  O3       1.0000 0.69280  0.94150  0.24361  Biso   1.000  O
  O4       1.0000 0.43220  0.67110  0.25099  Biso   1.000  O
  O5       1.0000 0.84190  0.24290  0.33639  Biso   1.000  O
  O6       1.0000 0.02240  0.47360  0.25300  Biso   1.000  O
  P2       1.0000 0.82130  0.33615  0.25889  Biso   1.000  P
  O7       1.0000 0.73650  0.25400  0.17670  Biso   1.000  O
  O8       1.0000 0.26900  0.21650  0.23860  Biso   1.000  O
  O9       1.0000 0.61650  0.39660  0.27210  Biso   1.000  O
  H1       1.0000 0.68320  0.49670  0.26120  Biso   1.000  H
  H2       1.0000 0.51180  0.34700  0.24200  Biso   1.000  H
  P3       1.0000 0.97250  0.30350  0.25400  Biso   1.000  P
  O10      1.0000 0.84630  0.23300  0.17160  Biso   1.000  O
  O11      1.0000 0.19700  0.25700  0.26210  Biso   1.000  O
  P4       1.0000 0.33550  0.87470  0.07954  Biso   1.000  P
  O12      1.0000 0.55150  0.83090  0.06830  Biso   1.000  O
  O13      1.0000 0.07180  0.11260  0.17960  Biso   1.000  O
  P5       1.0000 0.19700  0.90660  0.07929  Biso   1.000  P
  O14      1.0000 0.04260  0.99760  0.10830  Biso   1.000  O
  O15      1.0000 0.79590  0.84920  0.07720  Biso   1.000  O
  O16      1.0000 0.42550  0.02010  0.10870  Biso   1.000  O
  O17      1.0000 0.18190  0.86760  0.98800  Biso   1.000  O
  O18      1.0000 0.16400  0.75940  0.13311  Biso   1.000  O
  P6       1.0000 0.22401  0.94976  0.40192  Biso   1.000  P
  O19      1.0000 0.18550  0.79490  0.35630  Biso   1.000  O
  O20      1.0000 0.46140  0.04780  0.39090  Biso   1.000  O
  O21      1.0000 0.07520  0.03870  0.36290  Biso   1.000  O
  O22      1.0000 0.17380  0.91520  0.49774  Biso   1.000  O
  Fe4      1.0000 0.23468  0.96289  0.61770  Biso   1.000  Fe
  Fe5      1.0000 0.25269  0.95844  0.87360  Biso   1.000  Fe
  Fe6      1.0000 0.87048  0.31140  0.75041  Biso   1.000  Fe
  P7       1.0000 0.34494  0.22356  0.72221  Biso   1.000  P
  O23      1.0000 0.17360  0.29390  0.75790  Biso   1.000  O
  O24      1.0000 0.31940  0.19370  0.62252  Biso   1.000  O
  O25      1.0000 0.30720  0.05850  0.75639  Biso   1.000  O
  O26      1.0000 0.56780  0.32890  0.74901  Biso   1.000  O
  O27      1.0000 0.15810  0.75710  0.66361  Biso   1.000  O
  O28      1.0000 0.97760  0.52640  0.74700  Biso   1.000  O
  P8       1.0000 0.17870  0.66385  0.74111  Biso   1.000  P
  O29      1.0000 0.26350  0.74600  0.82330  Biso   1.000  O
  O30      1.0000 0.73100  0.78350  0.76140  Biso   1.000  O
  O31      1.0000 0.38350  0.60340  0.72790  Biso   1.000  O
  H3       1.0000 0.31680  0.50330  0.73880  Biso   1.000  H
  H4       1.0000 0.48820  0.65300  0.75800  Biso   1.000  H
  P9       1.0000 0.02750  0.69650  0.74600  Biso   1.000  P
  O32      1.0000 0.15370  0.76700  0.82840  Biso   1.000  O
  O33      1.0000 0.80300  0.74300  0.73790  Biso   1.000  O
  P10      1.0000 0.66450  0.12530  0.92046  Biso   1.000  P
  O34      1.0000 0.44850  0.16910  0.93170  Biso   1.000  O
  O35      1.0000 0.92820  0.88740  0.82040  Biso   1.000  O
  P11      1.0000 0.80300  0.09340  0.92071  Biso   1.000  P
  O36      1.0000 0.95740  0.00240  0.89170  Biso   1.000  O
  O37      1.0000 0.20410  0.15080  0.92280  Biso   1.000  O
  O38      1.0000 0.57450  0.97990  0.89130  Biso   1.000  O
  O39      1.0000 0.81810  0.13240  0.01200  Biso   1.000  O
  O40      1.0000 0.83600  0.24060  0.86689  Biso   1.000  O
  P12      1.0000 0.77599  0.05024  0.59808  Biso   1.000  P
  O41      1.0000 0.81450  0.20510  0.64370  Biso   1.000  O
  O42      1.0000 0.53860  0.95220  0.60910  Biso   1.000  O
  O43      1.0000 0.92480  0.96130  0.63710  Biso   1.000  O
  O44      1.0000 0.82620  0.08480  0.50226  Biso   1.000  O
