data_image0
_cell_length_a       24.3176
_cell_length_b       23.9869
_cell_length_c       31.166
_cell_angle_alpha    90
_cell_angle_beta     104.71
_cell_angle_gamma    90

_symmetry_space_group_name_H-M    "P 1"
_symmetry_int_tables_number       1

loop_
  _symmetry_equiv_pos_as_xyz
  'x, y, z'

loop_
  _atom_site_label
  _atom_site_occupancy
  _atom_site_fract_x
  _atom_site_fract_y
  _atom_site_fract_z
  _atom_site_thermal_displace_type
  _atom_site_B_iso_or_equiv
  _atom_site_type_symbol
  C1       1.0000 0.37760  0.61030  0.52640  Biso   1.000  C
  C2       1.0000 0.37800  0.60640  0.47930  Biso   1.000  C
  C3       1.0000 0.34380  0.64100  0.44870  Biso   1.000  C
  C4       1.0000 0.34170  0.63570  0.40290  Biso   1.000  C
  C5       1.0000 0.37660  0.59500  0.38880  Biso   1.000  C
  C6       1.0000 0.41040  0.56040  0.42150  Biso   1.000  C
  C7       1.0000 0.41210  0.56690  0.46650  Biso   1.000  C
  C8       1.0000 0.44620  0.51690  0.40730  Biso   1.000  C
  C9       1.0000 0.29620  0.67880  0.32940  Biso   1.000  C
  C10      1.0000 0.24780  0.72270  0.26830  Biso   1.000  C
  C11      1.0000 0.31790  0.66370  0.26550  Biso   1.000  C
  C12      1.0000 0.17420  0.79670  0.25910  Biso   1.000  C
  C13      1.0000 0.13730  0.82830  0.22230  Biso   1.000  C
  C14      1.0000 0.09760  0.86440  0.23060  Biso   1.000  C
  C15      1.0000 0.09310  0.87270  0.27560  Biso   1.000  C
  C16      1.0000 0.12660  0.84100  0.30880  Biso   1.000  C
  C17      1.0000 0.16730  0.80290  0.30280  Biso   1.000  C
  C18      1.0000 0.11860  0.84730  0.35420  Biso   1.000  C
  C19      1.0000 0.06140  0.89520  0.19470  Biso   1.000  C
  C20      1.0000 0.34550  0.62770  0.19740  Biso   1.000  C
  C21      1.0000 0.37470  0.58350  0.18560  Biso   1.000  C
  C22      1.0000 0.38140  0.57960  0.14320  Biso   1.000  C
  C23      1.0000 0.35770  0.61970  0.11270  Biso   1.000  C
  C24      1.0000 0.32400  0.65740  0.12160  Biso   1.000  C
  C25      1.0000 0.31830  0.66400  0.16690  Biso   1.000  C
  C26      1.0000 0.31170  0.71050  0.09720  Biso   1.000  C
  C27      1.0000 0.41450  0.52920  0.13350  Biso   1.000  C
  N1       1.0000 0.32800  0.64900  0.30750  Biso   1.000  N
  N2       1.0000 0.27840  0.69930  0.24320  Biso   1.000  N
  N3       1.0000 0.25700  0.71830  0.31240  Biso   1.000  N
  N4       1.0000 0.34250  0.62620  0.24160  Biso   1.000  N
  N5       1.0000 0.21540  0.76650  0.24630  Biso   1.000  N
  N6       1.0000 0.30510  0.67450  0.37450  Biso   1.000  N
  O1       1.0000 0.34890  0.65080  0.53630  Biso   1.000  O
  O2       1.0000 0.29930  0.76800  0.10510  Biso   1.000  O
  O3       1.0000 0.40070  0.57530  0.55307  Biso   1.000  O
  O4       1.0000 0.47350  0.48330  0.43496  Biso   1.000  O
  O5       1.0000 0.44840  0.51510  0.36770  Biso   1.000  O
  O6       1.0000 0.15510  0.83070  0.38570  Biso   1.000  O
  O7       1.0000 0.07360  0.86790  0.35820  Biso   1.000  O
  O8       1.0000 0.02630  0.93040  0.20071  Biso   1.000  O
  O9       1.0000 0.06570  0.88580  0.15580  Biso   1.000  O
  O10      1.0000 0.42560  0.52780  0.09660  Biso   1.000  O
  O11      1.0000 0.43110  0.49390  0.16130  Biso   1.000  O
  Eu1      1.0000 0.48002  0.56141  0.61730  Biso   1.000  Eu
  O12      1.0000 0.34160  0.71880  0.06700  Biso   1.000  O
  C28      1.0000 0.27080  0.67230  0.08650  Biso   1.000  C
  O13      1.0000 0.23760  0.71550  0.08980  Biso   1.000  O
  O14      1.0000 0.26630  0.74060  0.09710  Biso   1.000  O
  O15      1.0000 0.29040  0.68730  0.05300  Biso   1.000  O
  C29      1.0000 0.87760  0.11030  0.52640  Biso   1.000  C
  C30      1.0000 0.87800  0.10640  0.47930  Biso   1.000  C
  C31      1.0000 0.84380  0.14100  0.44870  Biso   1.000  C
  C32      1.0000 0.84170  0.13570  0.40290  Biso   1.000  C
  C33      1.0000 0.87660  0.09500  0.38880  Biso   1.000  C
  C34      1.0000 0.91040  0.06040  0.42150  Biso   1.000  C
  C35      1.0000 0.91210  0.06690  0.46650  Biso   1.000  C
  C36      1.0000 0.94620  0.01690  0.40730  Biso   1.000  C
  C37      1.0000 0.79620  0.17880  0.32940  Biso   1.000  C
  C38      1.0000 0.74780  0.22270  0.26830  Biso   1.000  C
  C39      1.0000 0.81790  0.16370  0.26550  Biso   1.000  C
  C40      1.0000 0.67420  0.29670  0.25910  Biso   1.000  C
  C41      1.0000 0.63730  0.32830  0.22230  Biso   1.000  C
  C42      1.0000 0.59760  0.36440  0.23060  Biso   1.000  C
  C43      1.0000 0.59310  0.37270  0.27560  Biso   1.000  C
  C44      1.0000 0.62660  0.34100  0.30880  Biso   1.000  C
  C45      1.0000 0.66730  0.30290  0.30280  Biso   1.000  C
  C46      1.0000 0.61860  0.34730  0.35420  Biso   1.000  C
  C47      1.0000 0.56140  0.39520  0.19470  Biso   1.000  C
  C48      1.0000 0.84550  0.12770  0.19740  Biso   1.000  C
  C49      1.0000 0.87470  0.08350  0.18560  Biso   1.000  C
  C50      1.0000 0.88140  0.07960  0.14320  Biso   1.000  C
  C51      1.0000 0.85770  0.11970  0.11270  Biso   1.000  C
  C52      1.0000 0.82400  0.15740  0.12160  Biso   1.000  C
  C53      1.0000 0.81830  0.16400  0.16690  Biso   1.000  C
  C54      1.0000 0.81170  0.21050  0.09720  Biso   1.000  C
  C55      1.0000 0.91450  0.02920  0.13350  Biso   1.000  C
  N7       1.0000 0.82800  0.14900  0.30750  Biso   1.000  N
  N8       1.0000 0.77840  0.19930  0.24320  Biso   1.000  N
  N9       1.0000 0.75700  0.21830  0.31240  Biso   1.000  N
  N10      1.0000 0.84250  0.12620  0.24160  Biso   1.000  N
  N11      1.0000 0.71540  0.26650  0.24630  Biso   1.000  N
  N12      1.0000 0.80510  0.17450  0.37450  Biso   1.000  N
  O16      1.0000 0.84890  0.15080  0.53630  Biso   1.000  O
  O17      1.0000 0.79930  0.26800  0.10510  Biso   1.000  O
  O18      1.0000 0.90070  0.07530  0.55307  Biso   1.000  O
  O19      1.0000 0.97350  0.98330  0.43496  Biso   1.000  O
  O20      1.0000 0.94840  0.01510  0.36770  Biso   1.000  O
  O21      1.0000 0.65510  0.33070  0.38570  Biso   1.000  O
  O22      1.0000 0.57360  0.36790  0.35820  Biso   1.000  O
  O23      1.0000 0.52630  0.43040  0.20071  Biso   1.000  O
  O24      1.0000 0.56570  0.38580  0.15580  Biso   1.000  O
  O25      1.0000 0.92560  0.02780  0.09660  Biso   1.000  O
  O26      1.0000 0.93110  0.99390  0.16130  Biso   1.000  O
  Eu2      1.0000 0.98002  0.06141  0.61730  Biso   1.000  Eu
  O27      1.0000 0.84160  0.21880  0.06700  Biso   1.000  O
  C56      1.0000 0.77080  0.17230  0.08650  Biso   1.000  C
  O28      1.0000 0.73760  0.21550  0.08980  Biso   1.000  O
  O29      1.0000 0.76630  0.24060  0.09710  Biso   1.000  O
  O30      1.0000 0.79040  0.18730  0.05300  Biso   1.000  O
  C57      1.0000 0.62240  0.61030  0.97360  Biso   1.000  C
  C58      1.0000 0.62200  0.60640  0.02070  Biso   1.000  C
  C59      1.0000 0.65620  0.64100  0.05130  Biso   1.000  C
  C60      1.0000 0.65830  0.63570  0.09710  Biso   1.000  C
  C61      1.0000 0.62340  0.59500  0.11120  Biso   1.000  C
  C62      1.0000 0.58960  0.56040  0.07850  Biso   1.000  C
  C63      1.0000 0.58790  0.56690  0.03350  Biso   1.000  C
  C64      1.0000 0.55380  0.51690  0.09270  Biso   1.000  C
  C65      1.0000 0.70380  0.67880  0.17060  Biso   1.000  C
  C66      1.0000 0.75220  0.72270  0.23170  Biso   1.000  C
  C67      1.0000 0.68210  0.66370  0.23450  Biso   1.000  C
  C68      1.0000 0.82580  0.79670  0.24090  Biso   1.000  C
  C69      1.0000 0.86270  0.82830  0.27770  Biso   1.000  C
  C70      1.0000 0.90240  0.86440  0.26940  Biso   1.000  C
  C71      1.0000 0.90690  0.87270  0.22440  Biso   1.000  C
  C72      1.0000 0.87340  0.84100  0.19120  Biso   1.000  C
  C73      1.0000 0.83270  0.80290  0.19720  Biso   1.000  C
  C74      1.0000 0.88140  0.84730  0.14580  Biso   1.000  C
  C75      1.0000 0.93860  0.89520  0.30530  Biso   1.000  C
  C76      1.0000 0.65450  0.62770  0.30260  Biso   1.000  C
  C77      1.0000 0.62530  0.58350  0.31440  Biso   1.000  C
  C78      1.0000 0.61860  0.57960  0.35680  Biso   1.000  C
  C79      1.0000 0.64230  0.61970  0.38730  Biso   1.000  C
  C80      1.0000 0.67600  0.65740  0.37840  Biso   1.000  C
  C81      1.0000 0.68170  0.66400  0.33310  Biso   1.000  C
  C82      1.0000 0.68830  0.71050  0.40280  Biso   1.000  C
  C83      1.0000 0.58550  0.52920  0.36650  Biso   1.000  C
  N13      1.0000 0.67200  0.64900  0.19250  Biso   1.000  N
  N14      1.0000 0.72160  0.69930  0.25680  Biso   1.000  N
  N15      1.0000 0.74300  0.71830  0.18760  Biso   1.000  N
  N16      1.0000 0.65750  0.62620  0.25840  Biso   1.000  N
  N17      1.0000 0.78460  0.76650  0.25370  Biso   1.000  N
  N18      1.0000 0.69490  0.67450  0.12550  Biso   1.000  N
  O31      1.0000 0.65110  0.65080  0.96370  Biso   1.000  O
  O32      1.0000 0.70070  0.76800  0.39490  Biso   1.000  O
  O33      1.0000 0.59930  0.57530  0.94693  Biso   1.000  O
  O34      1.0000 0.52650  0.48330  0.06504  Biso   1.000  O
  O35      1.0000 0.55160  0.51510  0.13230  Biso   1.000  O
  O36      1.0000 0.84490  0.83070  0.11430  Biso   1.000  O
  O37      1.0000 0.92640  0.86790  0.14180  Biso   1.000  O
  O38      1.0000 0.97370  0.93040  0.29929  Biso   1.000  O
  O39      1.0000 0.93430  0.88580  0.34420  Biso   1.000  O
  O40      1.0000 0.57440  0.52780  0.40340  Biso   1.000  O
  O41      1.0000 0.56890  0.49390  0.33870  Biso   1.000  O
  Eu3      1.0000 0.51998  0.56141  0.88270  Biso   1.000  Eu
  O42      1.0000 0.65840  0.71880  0.43300  Biso   1.000  O
  C84      1.0000 0.72920  0.67230  0.41350  Biso   1.000  C
  O43      1.0000 0.76240  0.71550  0.41020  Biso   1.000  O
  O44      1.0000 0.73370  0.74060  0.40290  Biso   1.000  O
  O45      1.0000 0.70960  0.68730  0.44700  Biso   1.000  O
  C85      1.0000 0.12240  0.11030  0.97360  Biso   1.000  C
  C86      1.0000 0.12200  0.10640  0.02070  Biso   1.000  C
  C87      1.0000 0.15620  0.14100  0.05130  Biso   1.000  C
  C88      1.0000 0.15830  0.13570  0.09710  Biso   1.000  C
  C89      1.0000 0.12340  0.09500  0.11120  Biso   1.000  C
  C90      1.0000 0.08960  0.06040  0.07850  Biso   1.000  C
  C91      1.0000 0.08790  0.06690  0.03350  Biso   1.000  C
  C92      1.0000 0.05380  0.01690  0.09270  Biso   1.000  C
  C93      1.0000 0.20380  0.17880  0.17060  Biso   1.000  C
  C94      1.0000 0.25220  0.22270  0.23170  Biso   1.000  C
  C95      1.0000 0.18210  0.16370  0.23450  Biso   1.000  C
  C96      1.0000 0.32580  0.29670  0.24090  Biso   1.000  C
  C97      1.0000 0.36270  0.32830  0.27770  Biso   1.000  C
  C98      1.0000 0.40240  0.36440  0.26940  Biso   1.000  C
  C99      1.0000 0.40690  0.37270  0.22440  Biso   1.000  C
  C100     1.0000 0.37340  0.34100  0.19120  Biso   1.000  C
  C101     1.0000 0.33270  0.30290  0.19720  Biso   1.000  C
  C102     1.0000 0.38140  0.34730  0.14580  Biso   1.000  C
  C103     1.0000 0.43860  0.39520  0.30530  Biso   1.000  C
  C104     1.0000 0.15450  0.12770  0.30260  Biso   1.000  C
  C105     1.0000 0.12530  0.08350  0.31440  Biso   1.000  C
  C106     1.0000 0.11860  0.07960  0.35680  Biso   1.000  C
  C107     1.0000 0.14230  0.11970  0.38730  Biso   1.000  C
  C108     1.0000 0.17600  0.15740  0.37840  Biso   1.000  C
  C109     1.0000 0.18170  0.16400  0.33310  Biso   1.000  C
  C110     1.0000 0.18830  0.21050  0.40280  Biso   1.000  C
  C111     1.0000 0.08550  0.02920  0.36650  Biso   1.000  C
  N19      1.0000 0.17200  0.14900  0.19250  Biso   1.000  N
  N20      1.0000 0.22160  0.19930  0.25680  Biso   1.000  N
  N21      1.0000 0.24300  0.21830  0.18760  Biso   1.000  N
  N22      1.0000 0.15750  0.12620  0.25840  Biso   1.000  N
  N23      1.0000 0.28460  0.26650  0.25370  Biso   1.000  N
  N24      1.0000 0.19490  0.17450  0.12550  Biso   1.000  N
  O46      1.0000 0.15110  0.15080  0.96370  Biso   1.000  O
  O47      1.0000 0.20070  0.26800  0.39490  Biso   1.000  O
  O48      1.0000 0.09930  0.07530  0.94693  Biso   1.000  O
  O49      1.0000 0.02650  0.98330  0.06504  Biso   1.000  O
  O50      1.0000 0.05160  0.01510  0.13230  Biso   1.000  O
  O51      1.0000 0.34490  0.33070  0.11430  Biso   1.000  O
  O52      1.0000 0.42640  0.36790  0.14180  Biso   1.000  O
  O53      1.0000 0.47370  0.43040  0.29929  Biso   1.000  O
  O54      1.0000 0.43430  0.38580  0.34420  Biso   1.000  O
  O55      1.0000 0.07440  0.02780  0.40340  Biso   1.000  O
  O56      1.0000 0.06890  0.99390  0.33870  Biso   1.000  O
  Eu4      1.0000 0.01998  0.06141  0.88270  Biso   1.000  Eu
  O57      1.0000 0.15840  0.21880  0.43300  Biso   1.000  O
  C112     1.0000 0.22920  0.17230  0.41350  Biso   1.000  C
  O58      1.0000 0.26240  0.21550  0.41020  Biso   1.000  O
  O59      1.0000 0.23370  0.24060  0.40290  Biso   1.000  O
  O60      1.0000 0.20960  0.18730  0.44700  Biso   1.000  O
  C113     1.0000 0.62240  0.38970  0.47360  Biso   1.000  C
  C114     1.0000 0.62200  0.39360  0.52070  Biso   1.000  C
  C115     1.0000 0.65620  0.35900  0.55130  Biso   1.000  C
  C116     1.0000 0.65830  0.36430  0.59710  Biso   1.000  C
  C117     1.0000 0.62340  0.40500  0.61120  Biso   1.000  C
  C118     1.0000 0.58960  0.43960  0.57850  Biso   1.000  C
  C119     1.0000 0.58790  0.43310  0.53350  Biso   1.000  C
  C120     1.0000 0.55380  0.48310  0.59270  Biso   1.000  C
  C121     1.0000 0.70380  0.32120  0.67060  Biso   1.000  C
  C122     1.0000 0.75220  0.27730  0.73170  Biso   1.000  C
  C123     1.0000 0.68210  0.33630  0.73450  Biso   1.000  C
  C124     1.0000 0.82580  0.20330  0.74090  Biso   1.000  C
  C125     1.0000 0.86270  0.17170  0.77770  Biso   1.000  C
  C126     1.0000 0.90240  0.13560  0.76940  Biso   1.000  C
  C127     1.0000 0.90690  0.12730  0.72440  Biso   1.000  C
  C128     1.0000 0.87340  0.15900  0.69120  Biso   1.000  C
  C129     1.0000 0.83270  0.19710  0.69720  Biso   1.000  C
  C130     1.0000 0.88140  0.15270  0.64580  Biso   1.000  C
  C131     1.0000 0.93860  0.10480  0.80530  Biso   1.000  C
  C132     1.0000 0.65450  0.37230  0.80260  Biso   1.000  C
  C133     1.0000 0.62530  0.41650  0.81440  Biso   1.000  C
  C134     1.0000 0.61860  0.42040  0.85680  Biso   1.000  C
  C135     1.0000 0.64230  0.38030  0.88730  Biso   1.000  C
  C136     1.0000 0.67600  0.34260  0.87840  Biso   1.000  C
  C137     1.0000 0.68170  0.33600  0.83310  Biso   1.000  C
  C138     1.0000 0.68830  0.28950  0.90280  Biso   1.000  C
  C139     1.0000 0.58550  0.47080  0.86650  Biso   1.000  C
  N25      1.0000 0.67200  0.35100  0.69250  Biso   1.000  N
  N26      1.0000 0.72160  0.30070  0.75680  Biso   1.000  N
  N27      1.0000 0.74300  0.28170  0.68760  Biso   1.000  N
  N28      1.0000 0.65750  0.37380  0.75840  Biso   1.000  N
  N29      1.0000 0.78460  0.23350  0.75370  Biso   1.000  N
  N30      1.0000 0.69490  0.32550  0.62550  Biso   1.000  N
  O61      1.0000 0.65110  0.34920  0.46370  Biso   1.000  O
  O62      1.0000 0.70070  0.23200  0.89490  Biso   1.000  O
  O63      1.0000 0.59930  0.42470  0.44693  Biso   1.000  O
  O64      1.0000 0.52650  0.51670  0.56504  Biso   1.000  O
  O65      1.0000 0.55160  0.48490  0.63230  Biso   1.000  O
  O66      1.0000 0.84490  0.16930  0.61430  Biso   1.000  O
  O67      1.0000 0.92640  0.13210  0.64180  Biso   1.000  O
  O68      1.0000 0.97370  0.06960  0.79929  Biso   1.000  O
  O69      1.0000 0.93430  0.11420  0.84420  Biso   1.000  O
  O70      1.0000 0.57440  0.47220  0.90340  Biso   1.000  O
  O71      1.0000 0.56890  0.50610  0.83870  Biso   1.000  O
  Eu5      1.0000 0.51998  0.43859  0.38270  Biso   1.000  Eu
  O72      1.0000 0.65840  0.28120  0.93300  Biso   1.000  O
  C140     1.0000 0.72920  0.32770  0.91350  Biso   1.000  C
  O73      1.0000 0.76240  0.28450  0.91020  Biso   1.000  O
  O74      1.0000 0.73370  0.25940  0.90290  Biso   1.000  O
  O75      1.0000 0.70960  0.31270  0.94700  Biso   1.000  O
  C141     1.0000 0.12240  0.88970  0.47360  Biso   1.000  C
  C142     1.0000 0.12200  0.89360  0.52070  Biso   1.000  C
  C143     1.0000 0.15620  0.85900  0.55130  Biso   1.000  C
  C144     1.0000 0.15830  0.86430  0.59710  Biso   1.000  C
  C145     1.0000 0.12340  0.90500  0.61120  Biso   1.000  C
  C146     1.0000 0.08960  0.93960  0.57850  Biso   1.000  C
  C147     1.0000 0.08790  0.93310  0.53350  Biso   1.000  C
  C148     1.0000 0.05380  0.98310  0.59270  Biso   1.000  C
  C149     1.0000 0.20380  0.82120  0.67060  Biso   1.000  C
  C150     1.0000 0.25220  0.77730  0.73170  Biso   1.000  C
  C151     1.0000 0.18210  0.83630  0.73450  Biso   1.000  C
  C152     1.0000 0.32580  0.70330  0.74090  Biso   1.000  C
  C153     1.0000 0.36270  0.67170  0.77770  Biso   1.000  C
  C154     1.0000 0.40240  0.63560  0.76940  Biso   1.000  C
  C155     1.0000 0.40690  0.62730  0.72440  Biso   1.000  C
  C156     1.0000 0.37340  0.65900  0.69120  Biso   1.000  C
  C157     1.0000 0.33270  0.69710  0.69720  Biso   1.000  C
  C158     1.0000 0.38140  0.65270  0.64580  Biso   1.000  C
  C159     1.0000 0.43860  0.60480  0.80530  Biso   1.000  C
  C160     1.0000 0.15450  0.87230  0.80260  Biso   1.000  C
  C161     1.0000 0.12530  0.91650  0.81440  Biso   1.000  C
  C162     1.0000 0.11860  0.92040  0.85680  Biso   1.000  C
  C163     1.0000 0.14230  0.88030  0.88730  Biso   1.000  C
  C164     1.0000 0.17600  0.84260  0.87840  Biso   1.000  C
  C165     1.0000 0.18170  0.83600  0.83310  Biso   1.000  C
  C166     1.0000 0.18830  0.78950  0.90280  Biso   1.000  C
  C167     1.0000 0.08550  0.97080  0.86650  Biso   1.000  C
  N31      1.0000 0.17200  0.85100  0.69250  Biso   1.000  N
  N32      1.0000 0.22160  0.80070  0.75680  Biso   1.000  N
  N33      1.0000 0.24300  0.78170  0.68760  Biso   1.000  N
  N34      1.0000 0.15750  0.87380  0.75840  Biso   1.000  N
  N35      1.0000 0.28460  0.73350  0.75370  Biso   1.000  N
  N36      1.0000 0.19490  0.82550  0.62550  Biso   1.000  N
  O76      1.0000 0.15110  0.84920  0.46370  Biso   1.000  O
  O77      1.0000 0.20070  0.73200  0.89490  Biso   1.000  O
  O78      1.0000 0.09930  0.92470  0.44693  Biso   1.000  O
  O79      1.0000 0.02650  0.01670  0.56504  Biso   1.000  O
  O80      1.0000 0.05160  0.98490  0.63230  Biso   1.000  O
  O81      1.0000 0.34490  0.66930  0.61430  Biso   1.000  O
  O82      1.0000 0.42640  0.63210  0.64180  Biso   1.000  O
  O83      1.0000 0.47370  0.56960  0.79929  Biso   1.000  O
  O84      1.0000 0.43430  0.61420  0.84420  Biso   1.000  O
  O85      1.0000 0.07440  0.97220  0.90340  Biso   1.000  O
  O86      1.0000 0.06890  0.00610  0.83870  Biso   1.000  O
  Eu6      1.0000 0.01998  0.93859  0.38270  Biso   1.000  Eu
  O87      1.0000 0.15840  0.78120  0.93300  Biso   1.000  O
  C168     1.0000 0.22920  0.82770  0.91350  Biso   1.000  C
  O88      1.0000 0.26240  0.78450  0.91020  Biso   1.000  O
  O89      1.0000 0.23370  0.75940  0.90290  Biso   1.000  O
  O90      1.0000 0.20960  0.81270  0.94700  Biso   1.000  O
  C169     1.0000 0.37760  0.38970  0.02640  Biso   1.000  C
  C170     1.0000 0.37800  0.39360  0.97930  Biso   1.000  C
  C171     1.0000 0.34380  0.35900  0.94870  Biso   1.000  C
  C172     1.0000 0.34170  0.36430  0.90290  Biso   1.000  C
  C173     1.0000 0.37660  0.40500  0.88880  Biso   1.000  C
  C174     1.0000 0.41040  0.43960  0.92150  Biso   1.000  C
  C175     1.0000 0.41210  0.43310  0.96650  Biso   1.000  C
  C176     1.0000 0.44620  0.48310  0.90730  Biso   1.000  C
  C177     1.0000 0.29620  0.32120  0.82940  Biso   1.000  C
  C178     1.0000 0.24780  0.27730  0.76830  Biso   1.000  C
  C179     1.0000 0.31790  0.33630  0.76550  Biso   1.000  C
  C180     1.0000 0.17420  0.20330  0.75910  Biso   1.000  C
  C181     1.0000 0.13730  0.17170  0.72230  Biso   1.000  C
  C182     1.0000 0.09760  0.13560  0.73060  Biso   1.000  C
  C183     1.0000 0.09310  0.12730  0.77560  Biso   1.000  C
  C184     1.0000 0.12660  0.15900  0.80880  Biso   1.000  C
  C185     1.0000 0.16730  0.19710  0.80280  Biso   1.000  C
  C186     1.0000 0.11860  0.15270  0.85420  Biso   1.000  C
  C187     1.0000 0.06140  0.10480  0.69470  Biso   1.000  C
  C188     1.0000 0.34550  0.37230  0.69740  Biso   1.000  C
  C189     1.0000 0.37470  0.41650  0.68560  Biso   1.000  C
  C190     1.0000 0.38140  0.42040  0.64320  Biso   1.000  C
  C191     1.0000 0.35770  0.38030  0.61270  Biso   1.000  C
  C192     1.0000 0.32400  0.34260  0.62160  Biso   1.000  C
  C193     1.0000 0.31830  0.33600  0.66690  Biso   1.000  C
  C194     1.0000 0.31170  0.28950  0.59720  Biso   1.000  C
  C195     1.0000 0.41450  0.47080  0.63350  Biso   1.000  C
  N37      1.0000 0.32800  0.35100  0.80750  Biso   1.000  N
  N38      1.0000 0.27840  0.30070  0.74320  Biso   1.000  N
  N39      1.0000 0.25700  0.28170  0.81240  Biso   1.000  N
  N40      1.0000 0.34250  0.37380  0.74160  Biso   1.000  N
  N41      1.0000 0.21540  0.23350  0.74630  Biso   1.000  N
  N42      1.0000 0.30510  0.32550  0.87450  Biso   1.000  N
  O91      1.0000 0.34890  0.34920  0.03630  Biso   1.000  O
  O92      1.0000 0.29930  0.23200  0.60510  Biso   1.000  O
  O93      1.0000 0.40070  0.42470  0.05307  Biso   1.000  O
  O94      1.0000 0.47350  0.51670  0.93496  Biso   1.000  O
  O95      1.0000 0.44840  0.48490  0.86770  Biso   1.000  O
  O96      1.0000 0.15510  0.16930  0.88570  Biso   1.000  O
  O97      1.0000 0.07360  0.13210  0.85820  Biso   1.000  O
  O98      1.0000 0.02630  0.06960  0.70071  Biso   1.000  O
  O99      1.0000 0.06570  0.11420  0.65580  Biso   1.000  O
  O100     1.0000 0.42560  0.47220  0.59660  Biso   1.000  O
  O101     1.0000 0.43110  0.50610  0.66130  Biso   1.000  O
  Eu7      1.0000 0.48002  0.43859  0.11730  Biso   1.000  Eu
  O102     1.0000 0.34160  0.28120  0.56700  Biso   1.000  O
  C196     1.0000 0.27080  0.32770  0.58650  Biso   1.000  C
  O103     1.0000 0.23760  0.28450  0.58980  Biso   1.000  O
  O104     1.0000 0.26630  0.25940  0.59710  Biso   1.000  O
  O105     1.0000 0.29040  0.31270  0.55300  Biso   1.000  O
  C197     1.0000 0.87760  0.88970  0.02640  Biso   1.000  C
  C198     1.0000 0.87800  0.89360  0.97930  Biso   1.000  C
  C199     1.0000 0.84380  0.85900  0.94870  Biso   1.000  C
  C200     1.0000 0.84170  0.86430  0.90290  Biso   1.000  C
  C201     1.0000 0.87660  0.90500  0.88880  Biso   1.000  C
  C202     1.0000 0.91040  0.93960  0.92150  Biso   1.000  C
  C203     1.0000 0.91210  0.93310  0.96650  Biso   1.000  C
  C204     1.0000 0.94620  0.98310  0.90730  Biso   1.000  C
  C205     1.0000 0.79620  0.82120  0.82940  Biso   1.000  C
  C206     1.0000 0.74780  0.77730  0.76830  Biso   1.000  C
  C207     1.0000 0.81790  0.83630  0.76550  Biso   1.000  C
  C208     1.0000 0.67420  0.70330  0.75910  Biso   1.000  C
  C209     1.0000 0.63730  0.67170  0.72230  Biso   1.000  C
  C210     1.0000 0.59760  0.63560  0.73060  Biso   1.000  C
  C211     1.0000 0.59310  0.62730  0.77560  Biso   1.000  C
  C212     1.0000 0.62660  0.65900  0.80880  Biso   1.000  C
  C213     1.0000 0.66730  0.69710  0.80280  Biso   1.000  C
  C214     1.0000 0.61860  0.65270  0.85420  Biso   1.000  C
  C215     1.0000 0.56140  0.60480  0.69470  Biso   1.000  C
  C216     1.0000 0.84550  0.87230  0.69740  Biso   1.000  C
  C217     1.0000 0.87470  0.91650  0.68560  Biso   1.000  C
  C218     1.0000 0.88140  0.92040  0.64320  Biso   1.000  C
  C219     1.0000 0.85770  0.88030  0.61270  Biso   1.000  C
  C220     1.0000 0.82400  0.84260  0.62160  Biso   1.000  C
  C221     1.0000 0.81830  0.83600  0.66690  Biso   1.000  C
  C222     1.0000 0.81170  0.78950  0.59720  Biso   1.000  C
  C223     1.0000 0.91450  0.97080  0.63350  Biso   1.000  C
  N43      1.0000 0.82800  0.85100  0.80750  Biso   1.000  N
  N44      1.0000 0.77840  0.80070  0.74320  Biso   1.000  N
  N45      1.0000 0.75700  0.78170  0.81240  Biso   1.000  N
  N46      1.0000 0.84250  0.87380  0.74160  Biso   1.000  N
  N47      1.0000 0.71540  0.73350  0.74630  Biso   1.000  N
  N48      1.0000 0.80510  0.82550  0.87450  Biso   1.000  N
  O106     1.0000 0.84890  0.84920  0.03630  Biso   1.000  O
  O107     1.0000 0.79930  0.73200  0.60510  Biso   1.000  O
  O108     1.0000 0.90070  0.92470  0.05307  Biso   1.000  O
  O109     1.0000 0.97350  0.01670  0.93496  Biso   1.000  O
  O110     1.0000 0.94840  0.98490  0.86770  Biso   1.000  O
  O111     1.0000 0.65510  0.66930  0.88570  Biso   1.000  O
  O112     1.0000 0.57360  0.63210  0.85820  Biso   1.000  O
  O113     1.0000 0.52630  0.56960  0.70071  Biso   1.000  O
  O114     1.0000 0.56570  0.61420  0.65580  Biso   1.000  O
  O115     1.0000 0.92560  0.97220  0.59660  Biso   1.000  O
  O116     1.0000 0.93110  0.00610  0.66130  Biso   1.000  O
  Eu8      1.0000 0.98002  0.93859  0.11730  Biso   1.000  Eu
  O117     1.0000 0.84160  0.78120  0.56700  Biso   1.000  O
  C224     1.0000 0.77080  0.82770  0.58650  Biso   1.000  C
  O118     1.0000 0.73760  0.78450  0.58980  Biso   1.000  O
  O119     1.0000 0.76630  0.75940  0.59710  Biso   1.000  O
  O120     1.0000 0.79040  0.81270  0.55300  Biso   1.000  O
  Na1      1.0000 0.00000  0.99540  0.25000  Biso   1.000  Na
  Na2      1.0000 0.50000  0.49540  0.25000  Biso   1.000  Na
  Na3      1.0000 0.00000  0.00460  0.75000  Biso   1.000  Na
  Na4      1.0000 0.50000  0.50460  0.75000  Biso   1.000  Na
