data_image0
_cell_length_a       17.1126
_cell_length_b       27.766
_cell_length_c       9.3275
_cell_angle_alpha    90
_cell_angle_beta     92.046
_cell_angle_gamma    90

_symmetry_space_group_name_H-M    "P 1"
_symmetry_int_tables_number       1

loop_
  _symmetry_equiv_pos_as_xyz
  'x, y, z'

loop_
  _atom_site_label
  _atom_site_occupancy
  _atom_site_fract_x
  _atom_site_fract_y
  _atom_site_fract_z
  _atom_site_thermal_displace_type
  _atom_site_B_iso_or_equiv
  _atom_site_type_symbol
  Zn1      1.0000 0.00208  0.29272  0.92829  Biso   1.000  Zn
  C1       1.0000 0.42920  0.42116  0.75240  Biso   1.000  C
  C2       1.0000 0.50860  0.62545  0.62370  Biso   1.000  C
  H1       1.0000 0.51470  0.64180  0.53780  Biso   1.000  H
  C3       1.0000 0.42940  0.47116  0.75270  Biso   1.000  C
  O1       1.0000 0.50370  0.72458  0.63250  Biso   1.000  O
  C4       1.0000 0.35310  0.39523  0.75290  Biso   1.000  C
  C5       1.0000 0.50800  0.57617  0.62460  Biso   1.000  C
  H2       1.0000 0.51320  0.55960  0.53870  Biso   1.000  H
  C6       1.0000 0.20740  0.34955  0.75540  Biso   1.000  C
  C7       1.0000 0.12890  0.32665  0.75610  Biso   1.000  C
  O2       1.0000 0.10360  0.31510  0.87090  Biso   1.000  O
  N1       1.0000 0.99970  0.28080  0.13260  Biso   1.000  N
  O3       1.0000 0.09230  0.32290  0.64030  Biso   1.000  O
  C8       1.0000 0.25900  0.34380  0.65440  Biso   1.000  C
  H3       1.0000 0.24480  0.32440  0.57660  Biso   1.000  H
  C9       1.0000 0.23250  0.38090  0.86800  Biso   1.000  C
  H4       1.0000 0.19880  0.38790  0.94110  Biso   1.000  H
  C10      1.0000 0.33230  0.36440  0.65600  Biso   1.000  C
  H5       1.0000 0.36720  0.35600  0.58600  Biso   1.000  H
  C11      1.0000 0.30430  0.40050  0.86980  Biso   1.000  C
  H6       1.0000 0.32200  0.41780  0.94990  Biso   1.000  H
  C12      1.0000 0.93150  0.24480  0.18300  Biso   1.000  C
  C13      1.0000 0.07610  0.24800  0.18800  Biso   1.000  C
  C14      1.0000 0.26050  0.34100  0.85360  Biso   1.000  C
  H7       1.0000 0.24910  0.31990  0.92740  Biso   1.000  H
  C15      1.0000 0.22260  0.38280  0.64430  Biso   1.000  C
  H8       1.0000 0.18470  0.38970  0.57340  Biso   1.000  H
  C16      1.0000 0.29580  0.40470  0.64410  Biso   1.000  C
  H9       1.0000 0.30720  0.42600  0.57070  Biso   1.000  H
  C17      1.0000 0.33380  0.36220  0.85320  Biso   1.000  C
  H10      1.0000 0.37100  0.35350  0.92370  Biso   1.000  H
  N2       1.0000 0.35870  0.49760  0.75380  Biso   1.000  N
  Zn2      1.0000 0.50208  0.79272  0.92829  Biso   1.000  Zn
  C18      1.0000 0.92920  0.92116  0.75240  Biso   1.000  C
  C19      1.0000 0.00860  0.12545  0.62370  Biso   1.000  C
  H11      1.0000 0.01470  0.14180  0.53780  Biso   1.000  H
  C20      1.0000 0.92940  0.97116  0.75270  Biso   1.000  C
  O4       1.0000 0.00370  0.22458  0.63250  Biso   1.000  O
  C21      1.0000 0.85310  0.89523  0.75290  Biso   1.000  C
  C22      1.0000 0.00800  0.07617  0.62460  Biso   1.000  C
  H12      1.0000 0.01320  0.05960  0.53870  Biso   1.000  H
  C23      1.0000 0.70740  0.84955  0.75540  Biso   1.000  C
  C24      1.0000 0.62890  0.82665  0.75610  Biso   1.000  C
  O5       1.0000 0.60360  0.81510  0.87090  Biso   1.000  O
  N3       1.0000 0.49970  0.78080  0.13260  Biso   1.000  N
  O6       1.0000 0.59230  0.82290  0.64030  Biso   1.000  O
  C25      1.0000 0.75900  0.84380  0.65440  Biso   1.000  C
  H13      1.0000 0.74480  0.82440  0.57660  Biso   1.000  H
  C26      1.0000 0.73250  0.88090  0.86800  Biso   1.000  C
  H14      1.0000 0.69880  0.88790  0.94110  Biso   1.000  H
  C27      1.0000 0.83230  0.86440  0.65600  Biso   1.000  C
  H15      1.0000 0.86720  0.85600  0.58600  Biso   1.000  H
  C28      1.0000 0.80430  0.90050  0.86980  Biso   1.000  C
  H16      1.0000 0.82200  0.91780  0.94990  Biso   1.000  H
  C29      1.0000 0.43150  0.74480  0.18300  Biso   1.000  C
  C30      1.0000 0.57610  0.74800  0.18800  Biso   1.000  C
  C31      1.0000 0.76050  0.84100  0.85360  Biso   1.000  C
  H17      1.0000 0.74910  0.81990  0.92740  Biso   1.000  H
  C32      1.0000 0.72260  0.88280  0.64430  Biso   1.000  C
  H18      1.0000 0.68470  0.88970  0.57340  Biso   1.000  H
  C33      1.0000 0.79580  0.90470  0.64410  Biso   1.000  C
  H19      1.0000 0.80720  0.92600  0.57070  Biso   1.000  H
  C34      1.0000 0.83380  0.86220  0.85320  Biso   1.000  C
  H20      1.0000 0.87100  0.85350  0.92370  Biso   1.000  H
  N4       1.0000 0.85870  0.99760  0.75380  Biso   1.000  N
  Zn3      1.0000 0.99792  0.29272  0.57171  Biso   1.000  Zn
  C35      1.0000 0.57080  0.42116  0.74760  Biso   1.000  C
  C36      1.0000 0.49140  0.62545  0.87630  Biso   1.000  C
  H21      1.0000 0.48530  0.64180  0.96220  Biso   1.000  H
  C37      1.0000 0.57060  0.47116  0.74730  Biso   1.000  C
  O7       1.0000 0.49630  0.72458  0.86750  Biso   1.000  O
  C38      1.0000 0.64690  0.39523  0.74710  Biso   1.000  C
  C39      1.0000 0.49200  0.57617  0.87540  Biso   1.000  C
  H22      1.0000 0.48680  0.55960  0.96130  Biso   1.000  H
  C40      1.0000 0.79260  0.34955  0.74460  Biso   1.000  C
  C41      1.0000 0.87110  0.32665  0.74390  Biso   1.000  C
  O8       1.0000 0.89640  0.31510  0.62910  Biso   1.000  O
  N5       1.0000 0.00030  0.28080  0.36740  Biso   1.000  N
  O9       1.0000 0.90770  0.32290  0.85970  Biso   1.000  O
  C42      1.0000 0.74100  0.34380  0.84560  Biso   1.000  C
  H23      1.0000 0.75520  0.32440  0.92340  Biso   1.000  H
  C43      1.0000 0.76750  0.38090  0.63200  Biso   1.000  C
  H24      1.0000 0.80120  0.38790  0.55890  Biso   1.000  H
  C44      1.0000 0.66770  0.36440  0.84400  Biso   1.000  C
  H25      1.0000 0.63280  0.35600  0.91400  Biso   1.000  H
  C45      1.0000 0.69570  0.40050  0.63020  Biso   1.000  C
  H26      1.0000 0.67800  0.41780  0.55010  Biso   1.000  H
  C46      1.0000 0.06850  0.24480  0.31700  Biso   1.000  C
  C47      1.0000 0.92390  0.24800  0.31200  Biso   1.000  C
  C48      1.0000 0.73950  0.34100  0.64640  Biso   1.000  C
  H27      1.0000 0.75090  0.31990  0.57260  Biso   1.000  H
  C49      1.0000 0.77740  0.38280  0.85570  Biso   1.000  C
  H28      1.0000 0.81530  0.38970  0.92660  Biso   1.000  H
  C50      1.0000 0.70420  0.40470  0.85590  Biso   1.000  C
  H29      1.0000 0.69280  0.42600  0.92930  Biso   1.000  H
  C51      1.0000 0.66620  0.36220  0.64680  Biso   1.000  C
  H30      1.0000 0.62900  0.35350  0.57630  Biso   1.000  H
  N6       1.0000 0.64130  0.49760  0.74620  Biso   1.000  N
  Zn4      1.0000 0.49792  0.79272  0.57171  Biso   1.000  Zn
  C52      1.0000 0.07080  0.92116  0.74760  Biso   1.000  C
  C53      1.0000 0.99140  0.12545  0.87630  Biso   1.000  C
  H31      1.0000 0.98530  0.14180  0.96220  Biso   1.000  H
  C54      1.0000 0.07060  0.97116  0.74730  Biso   1.000  C
  O10      1.0000 0.99630  0.22458  0.86750  Biso   1.000  O
  C55      1.0000 0.14690  0.89523  0.74710  Biso   1.000  C
  C56      1.0000 0.99200  0.07617  0.87540  Biso   1.000  C
  H32      1.0000 0.98680  0.05960  0.96130  Biso   1.000  H
  C57      1.0000 0.29260  0.84955  0.74460  Biso   1.000  C
  C58      1.0000 0.37110  0.82665  0.74390  Biso   1.000  C
  O11      1.0000 0.39640  0.81510  0.62910  Biso   1.000  O
  N7       1.0000 0.50030  0.78080  0.36740  Biso   1.000  N
  O12      1.0000 0.40770  0.82290  0.85970  Biso   1.000  O
  C59      1.0000 0.24100  0.84380  0.84560  Biso   1.000  C
  H33      1.0000 0.25520  0.82440  0.92340  Biso   1.000  H
  C60      1.0000 0.26750  0.88090  0.63200  Biso   1.000  C
  H34      1.0000 0.30120  0.88790  0.55890  Biso   1.000  H
  C61      1.0000 0.16770  0.86440  0.84400  Biso   1.000  C
  H35      1.0000 0.13280  0.85600  0.91400  Biso   1.000  H
  C62      1.0000 0.19570  0.90050  0.63020  Biso   1.000  C
  H36      1.0000 0.17800  0.91780  0.55010  Biso   1.000  H
  C63      1.0000 0.56850  0.74480  0.31700  Biso   1.000  C
  C64      1.0000 0.42390  0.74800  0.31200  Biso   1.000  C
  C65      1.0000 0.23950  0.84100  0.64640  Biso   1.000  C
  H37      1.0000 0.25090  0.81990  0.57260  Biso   1.000  H
  C66      1.0000 0.27740  0.88280  0.85570  Biso   1.000  C
  H38      1.0000 0.31530  0.88970  0.92660  Biso   1.000  H
  C67      1.0000 0.20420  0.90470  0.85590  Biso   1.000  C
  H39      1.0000 0.19280  0.92600  0.92930  Biso   1.000  H
  C68      1.0000 0.16620  0.86220  0.64680  Biso   1.000  C
  H40      1.0000 0.12900  0.85350  0.57630  Biso   1.000  H
  N8       1.0000 0.14130  0.99760  0.74620  Biso   1.000  N
  C69      1.0000 0.00000  0.29386  0.25000  Biso   1.000  C
  C70      1.0000 0.50000  0.79386  0.25000  Biso   1.000  C
  C71      1.0000 0.50000  0.49710  0.75000  Biso   1.000  C
  C72      1.0000 0.50000  0.39660  0.75000  Biso   1.000  C
  C73      1.0000 0.50000  0.55030  0.75000  Biso   1.000  C
  C74      1.0000 0.50000  0.65130  0.75000  Biso   1.000  C
  C75      1.0000 0.50000  0.70440  0.75000  Biso   1.000  C
  N9       1.0000 0.50000  0.34340  0.75000  Biso   1.000  N
  C76      1.0000 0.00000  0.99710  0.75000  Biso   1.000  C
  C77      1.0000 0.00000  0.89660  0.75000  Biso   1.000  C
  C78      1.0000 0.00000  0.05030  0.75000  Biso   1.000  C
  C79      1.0000 0.00000  0.15130  0.75000  Biso   1.000  C
  C80      1.0000 0.00000  0.20440  0.75000  Biso   1.000  C
  N10      1.0000 0.00000  0.84340  0.75000  Biso   1.000  N
  Zn5      1.0000 0.99792  0.70728  0.07171  Biso   1.000  Zn
  C81      1.0000 0.57080  0.57884  0.24760  Biso   1.000  C
  C82      1.0000 0.49140  0.37455  0.37630  Biso   1.000  C
  H41      1.0000 0.48530  0.35820  0.46220  Biso   1.000  H
  C83      1.0000 0.57060  0.52884  0.24730  Biso   1.000  C
  O13      1.0000 0.49630  0.27542  0.36750  Biso   1.000  O
  C84      1.0000 0.64690  0.60477  0.24710  Biso   1.000  C
  C85      1.0000 0.49200  0.42383  0.37540  Biso   1.000  C
  H42      1.0000 0.48680  0.44040  0.46130  Biso   1.000  H
  C86      1.0000 0.79260  0.65045  0.24460  Biso   1.000  C
  C87      1.0000 0.87110  0.67335  0.24390  Biso   1.000  C
  O14      1.0000 0.89640  0.68490  0.12910  Biso   1.000  O
  N11      1.0000 0.00030  0.71920  0.86740  Biso   1.000  N
  O15      1.0000 0.90770  0.67710  0.35970  Biso   1.000  O
  C88      1.0000 0.74100  0.65620  0.34560  Biso   1.000  C
  H43      1.0000 0.75520  0.67560  0.42340  Biso   1.000  H
  C89      1.0000 0.76750  0.61910  0.13200  Biso   1.000  C
  H44      1.0000 0.80120  0.61210  0.05890  Biso   1.000  H
  C90      1.0000 0.66770  0.63560  0.34400  Biso   1.000  C
  H45      1.0000 0.63280  0.64400  0.41400  Biso   1.000  H
  C91      1.0000 0.69570  0.59950  0.13020  Biso   1.000  C
  H46      1.0000 0.67800  0.58220  0.05010  Biso   1.000  H
  C92      1.0000 0.06850  0.75520  0.81700  Biso   1.000  C
  C93      1.0000 0.92390  0.75200  0.81200  Biso   1.000  C
  C94      1.0000 0.73950  0.65900  0.14640  Biso   1.000  C
  H47      1.0000 0.75090  0.68010  0.07260  Biso   1.000  H
  C95      1.0000 0.77740  0.61720  0.35570  Biso   1.000  C
  H48      1.0000 0.81530  0.61030  0.42660  Biso   1.000  H
  C96      1.0000 0.70420  0.59530  0.35590  Biso   1.000  C
  H49      1.0000 0.69280  0.57400  0.42930  Biso   1.000  H
  C97      1.0000 0.66620  0.63780  0.14680  Biso   1.000  C
  H50      1.0000 0.62900  0.64650  0.07630  Biso   1.000  H
  N12      1.0000 0.64130  0.50240  0.24620  Biso   1.000  N
  Zn6      1.0000 0.49792  0.20728  0.07171  Biso   1.000  Zn
  C98      1.0000 0.07080  0.07884  0.24760  Biso   1.000  C
  C99      1.0000 0.99140  0.87455  0.37630  Biso   1.000  C
  H51      1.0000 0.98530  0.85820  0.46220  Biso   1.000  H
  C100     1.0000 0.07060  0.02884  0.24730  Biso   1.000  C
  O16      1.0000 0.99630  0.77542  0.36750  Biso   1.000  O
  C101     1.0000 0.14690  0.10477  0.24710  Biso   1.000  C
  C102     1.0000 0.99200  0.92383  0.37540  Biso   1.000  C
  H52      1.0000 0.98680  0.94040  0.46130  Biso   1.000  H
  C103     1.0000 0.29260  0.15045  0.24460  Biso   1.000  C
  C104     1.0000 0.37110  0.17335  0.24390  Biso   1.000  C
  O17      1.0000 0.39640  0.18490  0.12910  Biso   1.000  O
  N13      1.0000 0.50030  0.21920  0.86740  Biso   1.000  N
  O18      1.0000 0.40770  0.17710  0.35970  Biso   1.000  O
  C105     1.0000 0.24100  0.15620  0.34560  Biso   1.000  C
  H53      1.0000 0.25520  0.17560  0.42340  Biso   1.000  H
  C106     1.0000 0.26750  0.11910  0.13200  Biso   1.000  C
  H54      1.0000 0.30120  0.11210  0.05890  Biso   1.000  H
  C107     1.0000 0.16770  0.13560  0.34400  Biso   1.000  C
  H55      1.0000 0.13280  0.14400  0.41400  Biso   1.000  H
  C108     1.0000 0.19570  0.09950  0.13020  Biso   1.000  C
  H56      1.0000 0.17800  0.08220  0.05010  Biso   1.000  H
  C109     1.0000 0.56850  0.25520  0.81700  Biso   1.000  C
  C110     1.0000 0.42390  0.25200  0.81200  Biso   1.000  C
  C111     1.0000 0.23950  0.15900  0.14640  Biso   1.000  C
  H57      1.0000 0.25090  0.18010  0.07260  Biso   1.000  H
  C112     1.0000 0.27740  0.11720  0.35570  Biso   1.000  C
  H58      1.0000 0.31530  0.11030  0.42660  Biso   1.000  H
  C113     1.0000 0.20420  0.09530  0.35590  Biso   1.000  C
  H59      1.0000 0.19280  0.07400  0.42930  Biso   1.000  H
  C114     1.0000 0.16620  0.13780  0.14680  Biso   1.000  C
  H60      1.0000 0.12900  0.14650  0.07630  Biso   1.000  H
  N14      1.0000 0.14130  0.00240  0.24620  Biso   1.000  N
  Zn7      1.0000 0.00208  0.70728  0.42829  Biso   1.000  Zn
  C115     1.0000 0.42920  0.57884  0.25240  Biso   1.000  C
  C116     1.0000 0.50860  0.37455  0.12370  Biso   1.000  C
  H61      1.0000 0.51470  0.35820  0.03780  Biso   1.000  H
  C117     1.0000 0.42940  0.52884  0.25270  Biso   1.000  C
  O19      1.0000 0.50370  0.27542  0.13250  Biso   1.000  O
  C118     1.0000 0.35310  0.60477  0.25290  Biso   1.000  C
  C119     1.0000 0.50800  0.42383  0.12460  Biso   1.000  C
  H62      1.0000 0.51320  0.44040  0.03870  Biso   1.000  H
  C120     1.0000 0.20740  0.65045  0.25540  Biso   1.000  C
  C121     1.0000 0.12890  0.67335  0.25610  Biso   1.000  C
  O20      1.0000 0.10360  0.68490  0.37090  Biso   1.000  O
  N15      1.0000 0.99970  0.71920  0.63260  Biso   1.000  N
  O21      1.0000 0.09230  0.67710  0.14030  Biso   1.000  O
  C122     1.0000 0.25900  0.65620  0.15440  Biso   1.000  C
  H63      1.0000 0.24480  0.67560  0.07660  Biso   1.000  H
  C123     1.0000 0.23250  0.61910  0.36800  Biso   1.000  C
  H64      1.0000 0.19880  0.61210  0.44110  Biso   1.000  H
  C124     1.0000 0.33230  0.63560  0.15600  Biso   1.000  C
  H65      1.0000 0.36720  0.64400  0.08600  Biso   1.000  H
  C125     1.0000 0.30430  0.59950  0.36980  Biso   1.000  C
  H66      1.0000 0.32200  0.58220  0.44990  Biso   1.000  H
  C126     1.0000 0.93150  0.75520  0.68300  Biso   1.000  C
  C127     1.0000 0.07610  0.75200  0.68800  Biso   1.000  C
  C128     1.0000 0.26050  0.65900  0.35360  Biso   1.000  C
  H67      1.0000 0.24910  0.68010  0.42740  Biso   1.000  H
  C129     1.0000 0.22260  0.61720  0.14430  Biso   1.000  C
  H68      1.0000 0.18470  0.61030  0.07340  Biso   1.000  H
  C130     1.0000 0.29580  0.59530  0.14410  Biso   1.000  C
  H69      1.0000 0.30720  0.57400  0.07070  Biso   1.000  H
  C131     1.0000 0.33380  0.63780  0.35320  Biso   1.000  C
  H70      1.0000 0.37100  0.64650  0.42370  Biso   1.000  H
  N16      1.0000 0.35870  0.50240  0.25380  Biso   1.000  N
  Zn8      1.0000 0.50208  0.20728  0.42829  Biso   1.000  Zn
  C132     1.0000 0.92920  0.07884  0.25240  Biso   1.000  C
  C133     1.0000 0.00860  0.87455  0.12370  Biso   1.000  C
  H71      1.0000 0.01470  0.85820  0.03780  Biso   1.000  H
  C134     1.0000 0.92940  0.02884  0.25270  Biso   1.000  C
  O22      1.0000 0.00370  0.77542  0.13250  Biso   1.000  O
  C135     1.0000 0.85310  0.10477  0.25290  Biso   1.000  C
  C136     1.0000 0.00800  0.92383  0.12460  Biso   1.000  C
  H72      1.0000 0.01320  0.94040  0.03870  Biso   1.000  H
  C137     1.0000 0.70740  0.15045  0.25540  Biso   1.000  C
  C138     1.0000 0.62890  0.17335  0.25610  Biso   1.000  C
  O23      1.0000 0.60360  0.18490  0.37090  Biso   1.000  O
  N17      1.0000 0.49970  0.21920  0.63260  Biso   1.000  N
  O24      1.0000 0.59230  0.17710  0.14030  Biso   1.000  O
  C139     1.0000 0.75900  0.15620  0.15440  Biso   1.000  C
  H73      1.0000 0.74480  0.17560  0.07660  Biso   1.000  H
  C140     1.0000 0.73250  0.11910  0.36800  Biso   1.000  C
  H74      1.0000 0.69880  0.11210  0.44110  Biso   1.000  H
  C141     1.0000 0.83230  0.13560  0.15600  Biso   1.000  C
  H75      1.0000 0.86720  0.14400  0.08600  Biso   1.000  H
  C142     1.0000 0.80430  0.09950  0.36980  Biso   1.000  C
  H76      1.0000 0.82200  0.08220  0.44990  Biso   1.000  H
  C143     1.0000 0.43150  0.25520  0.68300  Biso   1.000  C
  C144     1.0000 0.57610  0.25200  0.68800  Biso   1.000  C
  C145     1.0000 0.76050  0.15900  0.35360  Biso   1.000  C
  H77      1.0000 0.74910  0.18010  0.42740  Biso   1.000  H
  C146     1.0000 0.72260  0.11720  0.14430  Biso   1.000  C
  H78      1.0000 0.68470  0.11030  0.07340  Biso   1.000  H
  C147     1.0000 0.79580  0.09530  0.14410  Biso   1.000  C
  H79      1.0000 0.80720  0.07400  0.07070  Biso   1.000  H
  C148     1.0000 0.83380  0.13780  0.35320  Biso   1.000  C
  H80      1.0000 0.87100  0.14650  0.42370  Biso   1.000  H
  N18      1.0000 0.85870  0.00240  0.25380  Biso   1.000  N
  C149     1.0000 0.00000  0.70614  0.75000  Biso   1.000  C
  C150     1.0000 0.50000  0.20614  0.75000  Biso   1.000  C
  C151     1.0000 0.50000  0.50290  0.25000  Biso   1.000  C
  C152     1.0000 0.50000  0.60340  0.25000  Biso   1.000  C
  C153     1.0000 0.50000  0.44970  0.25000  Biso   1.000  C
  C154     1.0000 0.50000  0.34870  0.25000  Biso   1.000  C
  C155     1.0000 0.50000  0.29560  0.25000  Biso   1.000  C
  N19      1.0000 0.50000  0.65660  0.25000  Biso   1.000  N
  C156     1.0000 0.00000  0.00290  0.25000  Biso   1.000  C
  C157     1.0000 0.00000  0.10340  0.25000  Biso   1.000  C
  C158     1.0000 0.00000  0.94970  0.25000  Biso   1.000  C
  C159     1.0000 0.00000  0.84870  0.25000  Biso   1.000  C
  C160     1.0000 0.00000  0.79560  0.25000  Biso   1.000  C
  N20      1.0000 0.00000  0.15660  0.25000  Biso   1.000  N
