data_image0
_cell_length_a       16.3307
_cell_length_b       29.0681
_cell_length_c       9.2803
_cell_angle_alpha    90
_cell_angle_beta     96.324
_cell_angle_gamma    90

_symmetry_space_group_name_H-M    "P 1"
_symmetry_int_tables_number       1

loop_
  _symmetry_equiv_pos_as_xyz
  'x, y, z'

loop_
  _atom_site_label
  _atom_site_occupancy
  _atom_site_fract_x
  _atom_site_fract_y
  _atom_site_fract_z
  _atom_site_thermal_displace_type
  _atom_site_B_iso_or_equiv
  _atom_site_type_symbol
  Zn1      1.0000 0.99208  0.23065  0.57077  Biso   1.000  Zn
  C1       1.0000 0.03080  0.38894  0.63900  Biso   1.000  C
  O1       1.0000 0.01239  0.29361  0.63410  Biso   1.000  O
  O2       1.0000 0.61488  0.70960  0.88080  Biso   1.000  O
  C2       1.0000 0.92650  0.53637  0.75690  Biso   1.000  C
  O3       1.0000 0.57748  0.68845  0.65180  Biso   1.000  O
  C3       1.0000 0.62680  0.68867  0.76570  Biso   1.000  C
  C4       1.0000 0.92640  0.58439  0.75650  Biso   1.000  C
  C5       1.0000 0.84810  0.61032  0.76120  Biso   1.000  C
  C6       1.0000 0.03090  0.43626  0.63940  Biso   1.000  C
  C7       1.0000 0.70350  0.66102  0.76600  Biso   1.000  C
  C8       1.0000 0.78280  0.60432  0.65530  Biso   1.000  C
  C9       1.0000 0.71210  0.63026  0.65560  Biso   1.000  C
  C10      1.0000 0.76760  0.66606  0.87490  Biso   1.000  C
  H1       1.0000 0.76240  0.68640  0.95070  Biso   1.000  H
  C11      1.0000 0.83910  0.64119  0.87220  Biso   1.000  C
  H2       1.0000 0.88190  0.64510  0.94580  Biso   1.000  H
  C12      1.0000 0.11360  0.22320  0.20320  Biso   1.000  C
  C13      1.0000 0.14110  0.18930  0.27300  Biso   1.000  C
  C14      1.0000 0.11110  0.22550  0.34500  Biso   1.000  C
  H3       1.0000 0.05100  0.37530  0.56600  Biso   1.000  H
  H4       1.0000 0.66700  0.62330  0.58900  Biso   1.000  H
  H5       1.0000 0.78900  0.57600  0.58100  Biso   1.000  H
  H6       1.0000 0.05500  0.45700  0.53500  Biso   1.000  H
  N1       1.0000 0.02640  0.22830  0.37180  Biso   1.000  N
  N2       1.0000 0.96330  0.22867  0.36090  Biso   1.000  N
  C15      1.0000 0.10010  0.24440  0.27780  Biso   1.000  C
  N3       1.0000 0.85230  0.51370  0.76480  Biso   1.000  N
  Zn2      1.0000 0.49208  0.73065  0.57077  Biso   1.000  Zn
  C16      1.0000 0.53080  0.88894  0.63900  Biso   1.000  C
  O4       1.0000 0.51239  0.79361  0.63410  Biso   1.000  O
  O5       1.0000 0.11488  0.20960  0.88080  Biso   1.000  O
  C17      1.0000 0.42650  0.03637  0.75690  Biso   1.000  C
  O6       1.0000 0.07748  0.18845  0.65180  Biso   1.000  O
  C18      1.0000 0.12680  0.18867  0.76570  Biso   1.000  C
  C19      1.0000 0.42640  0.08439  0.75650  Biso   1.000  C
  C20      1.0000 0.34810  0.11032  0.76120  Biso   1.000  C
  C21      1.0000 0.53090  0.93626  0.63940  Biso   1.000  C
  C22      1.0000 0.20350  0.16102  0.76600  Biso   1.000  C
  C23      1.0000 0.28280  0.10432  0.65530  Biso   1.000  C
  C24      1.0000 0.21210  0.13026  0.65560  Biso   1.000  C
  C25      1.0000 0.26760  0.16606  0.87490  Biso   1.000  C
  H7       1.0000 0.26240  0.18640  0.95070  Biso   1.000  H
  C26      1.0000 0.33910  0.14119  0.87220  Biso   1.000  C
  H8       1.0000 0.38190  0.14510  0.94580  Biso   1.000  H
  C27      1.0000 0.61360  0.72320  0.20320  Biso   1.000  C
  C28      1.0000 0.64110  0.68930  0.27300  Biso   1.000  C
  C29      1.0000 0.61110  0.72550  0.34500  Biso   1.000  C
  H9       1.0000 0.55100  0.87530  0.56600  Biso   1.000  H
  H10      1.0000 0.16700  0.12330  0.58900  Biso   1.000  H
  H11      1.0000 0.28900  0.07600  0.58100  Biso   1.000  H
  H12      1.0000 0.55500  0.95700  0.53500  Biso   1.000  H
  N4       1.0000 0.52640  0.72830  0.37180  Biso   1.000  N
  N5       1.0000 0.46330  0.72867  0.36090  Biso   1.000  N
  C30      1.0000 0.60010  0.74440  0.27780  Biso   1.000  C
  N6       1.0000 0.35230  0.01370  0.76480  Biso   1.000  N
  Zn3      1.0000 0.00792  0.23065  0.92923  Biso   1.000  Zn
  C31      1.0000 0.96920  0.38894  0.86100  Biso   1.000  C
  O7       1.0000 0.98761  0.29361  0.86590  Biso   1.000  O
  O8       1.0000 0.38512  0.70960  0.61920  Biso   1.000  O
  C32      1.0000 0.07350  0.53637  0.74310  Biso   1.000  C
  O9       1.0000 0.42252  0.68845  0.84820  Biso   1.000  O
  C33      1.0000 0.37320  0.68867  0.73430  Biso   1.000  C
  C34      1.0000 0.07360  0.58439  0.74350  Biso   1.000  C
  C35      1.0000 0.15190  0.61032  0.73880  Biso   1.000  C
  C36      1.0000 0.96910  0.43626  0.86060  Biso   1.000  C
  C37      1.0000 0.29650  0.66102  0.73400  Biso   1.000  C
  C38      1.0000 0.21720  0.60432  0.84470  Biso   1.000  C
  C39      1.0000 0.28790  0.63026  0.84440  Biso   1.000  C
  C40      1.0000 0.23240  0.66606  0.62510  Biso   1.000  C
  H13      1.0000 0.23760  0.68640  0.54930  Biso   1.000  H
  C41      1.0000 0.16090  0.64119  0.62780  Biso   1.000  C
  H14      1.0000 0.11810  0.64510  0.55420  Biso   1.000  H
  C42      1.0000 0.88640  0.22320  0.29680  Biso   1.000  C
  C43      1.0000 0.85890  0.18930  0.22700  Biso   1.000  C
  C44      1.0000 0.88890  0.22550  0.15500  Biso   1.000  C
  H15      1.0000 0.94900  0.37530  0.93400  Biso   1.000  H
  H16      1.0000 0.33300  0.62330  0.91100  Biso   1.000  H
  H17      1.0000 0.21100  0.57600  0.91900  Biso   1.000  H
  H18      1.0000 0.94500  0.45700  0.96500  Biso   1.000  H
  N7       1.0000 0.97360  0.22830  0.12820  Biso   1.000  N
  N8       1.0000 0.03670  0.22867  0.13910  Biso   1.000  N
  C45      1.0000 0.89990  0.24440  0.22220  Biso   1.000  C
  N9       1.0000 0.14770  0.51370  0.73520  Biso   1.000  N
  Zn4      1.0000 0.50792  0.73065  0.92923  Biso   1.000  Zn
  C46      1.0000 0.46920  0.88894  0.86100  Biso   1.000  C
  O10      1.0000 0.48761  0.79361  0.86590  Biso   1.000  O
  O11      1.0000 0.88512  0.20960  0.61920  Biso   1.000  O
  C47      1.0000 0.57350  0.03637  0.74310  Biso   1.000  C
  O12      1.0000 0.92252  0.18845  0.84820  Biso   1.000  O
  C48      1.0000 0.87320  0.18867  0.73430  Biso   1.000  C
  C49      1.0000 0.57360  0.08439  0.74350  Biso   1.000  C
  C50      1.0000 0.65190  0.11032  0.73880  Biso   1.000  C
  C51      1.0000 0.46910  0.93626  0.86060  Biso   1.000  C
  C52      1.0000 0.79650  0.16102  0.73400  Biso   1.000  C
  C53      1.0000 0.71720  0.10432  0.84470  Biso   1.000  C
  C54      1.0000 0.78790  0.13026  0.84440  Biso   1.000  C
  C55      1.0000 0.73240  0.16606  0.62510  Biso   1.000  C
  H19      1.0000 0.73760  0.18640  0.54930  Biso   1.000  H
  C56      1.0000 0.66090  0.14119  0.62780  Biso   1.000  C
  H20      1.0000 0.61810  0.14510  0.55420  Biso   1.000  H
  C57      1.0000 0.38640  0.72320  0.29680  Biso   1.000  C
  C58      1.0000 0.35890  0.68930  0.22700  Biso   1.000  C
  C59      1.0000 0.38890  0.72550  0.15500  Biso   1.000  C
  H21      1.0000 0.44900  0.87530  0.93400  Biso   1.000  H
  H22      1.0000 0.83300  0.12330  0.91100  Biso   1.000  H
  H23      1.0000 0.71100  0.07600  0.91900  Biso   1.000  H
  H24      1.0000 0.44500  0.95700  0.96500  Biso   1.000  H
  N10      1.0000 0.47360  0.72830  0.12820  Biso   1.000  N
  N11      1.0000 0.53670  0.72867  0.13910  Biso   1.000  N
  C60      1.0000 0.39990  0.74440  0.22220  Biso   1.000  C
  N12      1.0000 0.64770  0.01370  0.73520  Biso   1.000  N
  C61      1.0000 0.00000  0.60789  0.75000  Biso   1.000  C
  C62      1.0000 0.00000  0.31380  0.75000  Biso   1.000  C
  C63      1.0000 0.00000  0.46119  0.75000  Biso   1.000  C
  C64      1.0000 0.00000  0.36446  0.75000  Biso   1.000  C
  C65      1.0000 0.00000  0.51185  0.75000  Biso   1.000  C
  N13      1.0000 0.00000  0.65370  0.75000  Biso   1.000  N
  C66      1.0000 0.50000  0.10789  0.75000  Biso   1.000  C
  C67      1.0000 0.50000  0.81380  0.75000  Biso   1.000  C
  C68      1.0000 0.50000  0.96119  0.75000  Biso   1.000  C
  C69      1.0000 0.50000  0.86446  0.75000  Biso   1.000  C
  C70      1.0000 0.50000  0.01185  0.75000  Biso   1.000  C
  N14      1.0000 0.50000  0.15370  0.75000  Biso   1.000  N
  C71      1.0000 0.00000  0.23061  0.25000  Biso   1.000  C
  C72      1.0000 0.50000  0.73061  0.25000  Biso   1.000  C
  Zn5      1.0000 0.00792  0.76935  0.42923  Biso   1.000  Zn
  C73      1.0000 0.96920  0.61106  0.36100  Biso   1.000  C
  O13      1.0000 0.98761  0.70639  0.36590  Biso   1.000  O
  O14      1.0000 0.38512  0.29040  0.11920  Biso   1.000  O
  C74      1.0000 0.07350  0.46363  0.24310  Biso   1.000  C
  O15      1.0000 0.42252  0.31155  0.34820  Biso   1.000  O
  C75      1.0000 0.37320  0.31133  0.23430  Biso   1.000  C
  C76      1.0000 0.07360  0.41561  0.24350  Biso   1.000  C
  C77      1.0000 0.15190  0.38968  0.23880  Biso   1.000  C
  C78      1.0000 0.96910  0.56374  0.36060  Biso   1.000  C
  C79      1.0000 0.29650  0.33898  0.23400  Biso   1.000  C
  C80      1.0000 0.21720  0.39568  0.34470  Biso   1.000  C
  C81      1.0000 0.28790  0.36974  0.34440  Biso   1.000  C
  C82      1.0000 0.23240  0.33394  0.12510  Biso   1.000  C
  H25      1.0000 0.23760  0.31360  0.04930  Biso   1.000  H
  C83      1.0000 0.16090  0.35881  0.12780  Biso   1.000  C
  H26      1.0000 0.11810  0.35490  0.05420  Biso   1.000  H
  C84      1.0000 0.88640  0.77680  0.79680  Biso   1.000  C
  C85      1.0000 0.85890  0.81070  0.72700  Biso   1.000  C
  C86      1.0000 0.88890  0.77450  0.65500  Biso   1.000  C
  H27      1.0000 0.94900  0.62470  0.43400  Biso   1.000  H
  H28      1.0000 0.33300  0.37670  0.41100  Biso   1.000  H
  H29      1.0000 0.21100  0.42400  0.41900  Biso   1.000  H
  H30      1.0000 0.94500  0.54300  0.46500  Biso   1.000  H
  N15      1.0000 0.97360  0.77170  0.62820  Biso   1.000  N
  N16      1.0000 0.03670  0.77133  0.63910  Biso   1.000  N
  C87      1.0000 0.89990  0.75560  0.72220  Biso   1.000  C
  N17      1.0000 0.14770  0.48630  0.23520  Biso   1.000  N
  Zn6      1.0000 0.50792  0.26935  0.42923  Biso   1.000  Zn
  C88      1.0000 0.46920  0.11106  0.36100  Biso   1.000  C
  O16      1.0000 0.48761  0.20639  0.36590  Biso   1.000  O
  O17      1.0000 0.88512  0.79040  0.11920  Biso   1.000  O
  C89      1.0000 0.57350  0.96363  0.24310  Biso   1.000  C
  O18      1.0000 0.92252  0.81155  0.34820  Biso   1.000  O
  C90      1.0000 0.87320  0.81133  0.23430  Biso   1.000  C
  C91      1.0000 0.57360  0.91561  0.24350  Biso   1.000  C
  C92      1.0000 0.65190  0.88968  0.23880  Biso   1.000  C
  C93      1.0000 0.46910  0.06374  0.36060  Biso   1.000  C
  C94      1.0000 0.79650  0.83898  0.23400  Biso   1.000  C
  C95      1.0000 0.71720  0.89568  0.34470  Biso   1.000  C
  C96      1.0000 0.78790  0.86974  0.34440  Biso   1.000  C
  C97      1.0000 0.73240  0.83394  0.12510  Biso   1.000  C
  H31      1.0000 0.73760  0.81360  0.04930  Biso   1.000  H
  C98      1.0000 0.66090  0.85881  0.12780  Biso   1.000  C
  H32      1.0000 0.61810  0.85490  0.05420  Biso   1.000  H
  C99      1.0000 0.38640  0.27680  0.79680  Biso   1.000  C
  C100     1.0000 0.35890  0.31070  0.72700  Biso   1.000  C
  C101     1.0000 0.38890  0.27450  0.65500  Biso   1.000  C
  H33      1.0000 0.44900  0.12470  0.43400  Biso   1.000  H
  H34      1.0000 0.83300  0.87670  0.41100  Biso   1.000  H
  H35      1.0000 0.71100  0.92400  0.41900  Biso   1.000  H
  H36      1.0000 0.44500  0.04300  0.46500  Biso   1.000  H
  N18      1.0000 0.47360  0.27170  0.62820  Biso   1.000  N
  N19      1.0000 0.53670  0.27133  0.63910  Biso   1.000  N
  C102     1.0000 0.39990  0.25560  0.72220  Biso   1.000  C
  N20      1.0000 0.64770  0.98630  0.23520  Biso   1.000  N
  Zn7      1.0000 0.99208  0.76935  0.07077  Biso   1.000  Zn
  C103     1.0000 0.03080  0.61106  0.13900  Biso   1.000  C
  O19      1.0000 0.01239  0.70639  0.13410  Biso   1.000  O
  O20      1.0000 0.61488  0.29040  0.38080  Biso   1.000  O
  C104     1.0000 0.92650  0.46363  0.25690  Biso   1.000  C
  O21      1.0000 0.57748  0.31155  0.15180  Biso   1.000  O
  C105     1.0000 0.62680  0.31133  0.26570  Biso   1.000  C
  C106     1.0000 0.92640  0.41561  0.25650  Biso   1.000  C
  C107     1.0000 0.84810  0.38968  0.26120  Biso   1.000  C
  C108     1.0000 0.03090  0.56374  0.13940  Biso   1.000  C
  C109     1.0000 0.70350  0.33898  0.26600  Biso   1.000  C
  C110     1.0000 0.78280  0.39568  0.15530  Biso   1.000  C
  C111     1.0000 0.71210  0.36974  0.15560  Biso   1.000  C
  C112     1.0000 0.76760  0.33394  0.37490  Biso   1.000  C
  H37      1.0000 0.76240  0.31360  0.45070  Biso   1.000  H
  C113     1.0000 0.83910  0.35881  0.37220  Biso   1.000  C
  H38      1.0000 0.88190  0.35490  0.44580  Biso   1.000  H
  C114     1.0000 0.11360  0.77680  0.70320  Biso   1.000  C
  C115     1.0000 0.14110  0.81070  0.77300  Biso   1.000  C
  C116     1.0000 0.11110  0.77450  0.84500  Biso   1.000  C
  H39      1.0000 0.05100  0.62470  0.06600  Biso   1.000  H
  H40      1.0000 0.66700  0.37670  0.08900  Biso   1.000  H
  H41      1.0000 0.78900  0.42400  0.08100  Biso   1.000  H
  H42      1.0000 0.05500  0.54300  0.03500  Biso   1.000  H
  N21      1.0000 0.02640  0.77170  0.87180  Biso   1.000  N
  N22      1.0000 0.96330  0.77133  0.86090  Biso   1.000  N
  C117     1.0000 0.10010  0.75560  0.77780  Biso   1.000  C
  N23      1.0000 0.85230  0.48630  0.26480  Biso   1.000  N
  Zn8      1.0000 0.49208  0.26935  0.07077  Biso   1.000  Zn
  C118     1.0000 0.53080  0.11106  0.13900  Biso   1.000  C
  O22      1.0000 0.51239  0.20639  0.13410  Biso   1.000  O
  O23      1.0000 0.11488  0.79040  0.38080  Biso   1.000  O
  C119     1.0000 0.42650  0.96363  0.25690  Biso   1.000  C
  O24      1.0000 0.07748  0.81155  0.15180  Biso   1.000  O
  C120     1.0000 0.12680  0.81133  0.26570  Biso   1.000  C
  C121     1.0000 0.42640  0.91561  0.25650  Biso   1.000  C
  C122     1.0000 0.34810  0.88968  0.26120  Biso   1.000  C
  C123     1.0000 0.53090  0.06374  0.13940  Biso   1.000  C
  C124     1.0000 0.20350  0.83898  0.26600  Biso   1.000  C
  C125     1.0000 0.28280  0.89568  0.15530  Biso   1.000  C
  C126     1.0000 0.21210  0.86974  0.15560  Biso   1.000  C
  C127     1.0000 0.26760  0.83394  0.37490  Biso   1.000  C
  H43      1.0000 0.26240  0.81360  0.45070  Biso   1.000  H
  C128     1.0000 0.33910  0.85881  0.37220  Biso   1.000  C
  H44      1.0000 0.38190  0.85490  0.44580  Biso   1.000  H
  C129     1.0000 0.61360  0.27680  0.70320  Biso   1.000  C
  C130     1.0000 0.64110  0.31070  0.77300  Biso   1.000  C
  C131     1.0000 0.61110  0.27450  0.84500  Biso   1.000  C
  H45      1.0000 0.55100  0.12470  0.06600  Biso   1.000  H
  H46      1.0000 0.16700  0.87670  0.08900  Biso   1.000  H
  H47      1.0000 0.28900  0.92400  0.08100  Biso   1.000  H
  H48      1.0000 0.55500  0.04300  0.03500  Biso   1.000  H
  N24      1.0000 0.52640  0.27170  0.87180  Biso   1.000  N
  N25      1.0000 0.46330  0.27133  0.86090  Biso   1.000  N
  C132     1.0000 0.60010  0.25560  0.77780  Biso   1.000  C
  N26      1.0000 0.35230  0.98630  0.26480  Biso   1.000  N
  C133     1.0000 0.00000  0.39211  0.25000  Biso   1.000  C
  C134     1.0000 0.00000  0.68620  0.25000  Biso   1.000  C
  C135     1.0000 0.00000  0.53881  0.25000  Biso   1.000  C
  C136     1.0000 0.00000  0.63554  0.25000  Biso   1.000  C
  C137     1.0000 0.00000  0.48815  0.25000  Biso   1.000  C
  N27      1.0000 0.00000  0.34630  0.25000  Biso   1.000  N
  C138     1.0000 0.50000  0.89211  0.25000  Biso   1.000  C
  C139     1.0000 0.50000  0.18620  0.25000  Biso   1.000  C
  C140     1.0000 0.50000  0.03881  0.25000  Biso   1.000  C
  C141     1.0000 0.50000  0.13554  0.25000  Biso   1.000  C
  C142     1.0000 0.50000  0.98815  0.25000  Biso   1.000  C
  N28      1.0000 0.50000  0.84630  0.25000  Biso   1.000  N
  C143     1.0000 0.00000  0.76939  0.75000  Biso   1.000  C
  C144     1.0000 0.50000  0.26939  0.75000  Biso   1.000  C
