data_image0
_cell_length_a       27.8885
_cell_length_b       11.4437
_cell_length_c       17.7204
_cell_angle_alpha    90
_cell_angle_beta     90
_cell_angle_gamma    90

_symmetry_space_group_name_H-M    "P 1"
_symmetry_int_tables_number       1

loop_
  _symmetry_equiv_pos_as_xyz
  'x, y, z'

loop_
  _atom_site_label
  _atom_site_occupancy
  _atom_site_fract_x
  _atom_site_fract_y
  _atom_site_fract_z
  _atom_site_thermal_displace_type
  _atom_site_B_iso_or_equiv
  _atom_site_type_symbol
  Eu1      1.0000 0.06808  0.18380  0.22246  Biso   1.000  Eu
  O1       1.0000 0.12485  0.30200  0.14970  Biso   1.000  O
  O2       1.0000 0.13729  0.30410  0.27210  Biso   1.000  O
  O3       1.0000 0.35122  0.53460  0.08530  Biso   1.000  O
  O4       1.0000 0.36188  0.56170  0.20760  Biso   1.000  O
  O5       1.0000 0.19460  0.33900  0.05850  Biso   1.000  O
  H1       1.0000 0.16830  0.31370  0.07120  Biso   1.000  H
  O6       1.0000 0.28960  0.53500  0.30080  Biso   1.000  O
  H2       1.0000 0.31840  0.54460  0.29370  Biso   1.000  H
  O7       1.0000 0.08154  0.11670  0.35680  Biso   1.000  O
  O8       1.0000 0.01064  0.18680  0.32865  Biso   1.000  O
  O9       1.0000 0.93496  0.11510  0.40850  Biso   1.000  O
  H3       1.0000 0.90860  0.08420  0.41330  Biso   1.000  H
  O10      1.0000 0.03799  0.98590  0.23000  Biso   1.000  O
  O11      1.0000 0.03803  0.37900  0.23060  Biso   1.000  O
  O12      1.0000 0.08010  0.79260  0.19390  Biso   1.000  O
  H4       1.0000 0.07840  0.86390  0.19740  Biso   1.000  H
  C1       1.0000 0.15030  0.32930  0.20630  Biso   1.000  C
  C2       1.0000 0.19790  0.38550  0.19230  Biso   1.000  C
  C3       1.0000 0.21640  0.39270  0.12000  Biso   1.000  C
  C4       1.0000 0.26150  0.43910  0.10800  Biso   1.000  C
  H5       1.0000 0.27370  0.44300  0.05920  Biso   1.000  H
  C5       1.0000 0.28870  0.47980  0.16790  Biso   1.000  C
  C6       1.0000 0.26990  0.47340  0.24010  Biso   1.000  C
  C7       1.0000 0.22510  0.42630  0.25200  Biso   1.000  C
  H6       1.0000 0.21290  0.42190  0.30080  Biso   1.000  H
  C8       1.0000 0.33750  0.52800  0.15150  Biso   1.000  C
  C9       1.0000 0.03764  0.12510  0.37180  Biso   1.000  C
  C10      1.0000 0.01653  0.06350  0.43760  Biso   1.000  C
  C11      1.0000 0.96757  0.05830  0.45290  Biso   1.000  C
  C12      1.0000 0.95228  0.99590  0.51450  Biso   1.000  C
  H7       1.0000 0.91960  0.99310  0.52470  Biso   1.000  H
  C13      1.0000 0.03860  0.74310  0.22150  Biso   1.000  C
  C14      1.0000 0.03920  0.62160  0.22190  Biso   1.000  C
  H8       1.0000 0.06640  0.57940  0.20280  Biso   1.000  H
  O13      1.0000 0.18780  0.37800  0.05640  Biso   1.000  O
  H9       1.0000 0.16180  0.35110  0.06890  Biso   1.000  H
  O14      1.0000 0.30020  0.48300  0.30290  Biso   1.000  O
  H10      1.0000 0.32660  0.50590  0.28930  Biso   1.000  H
  O15      1.0000 0.07910  0.56960  0.19270  Biso   1.000  O
  H11      1.0000 0.07670  0.49840  0.19670  Biso   1.000  H
  H12      1.0000 0.06550  0.78520  0.20140  Biso   1.000  H
  Eu2      1.0000 0.43192  0.31620  0.72246  Biso   1.000  Eu
  O16      1.0000 0.37515  0.19800  0.64970  Biso   1.000  O
  O17      1.0000 0.36271  0.19590  0.77210  Biso   1.000  O
  O18      1.0000 0.14878  0.96540  0.58530  Biso   1.000  O
  O19      1.0000 0.13812  0.93830  0.70760  Biso   1.000  O
  O20      1.0000 0.30540  0.16100  0.55850  Biso   1.000  O
  H13      1.0000 0.33170  0.18630  0.57120  Biso   1.000  H
  O21      1.0000 0.21040  0.96500  0.80080  Biso   1.000  O
  H14      1.0000 0.18160  0.95540  0.79370  Biso   1.000  H
  O22      1.0000 0.41846  0.38330  0.85680  Biso   1.000  O
  O23      1.0000 0.48936  0.31320  0.82865  Biso   1.000  O
  O24      1.0000 0.56504  0.38490  0.90850  Biso   1.000  O
  H15      1.0000 0.59140  0.41580  0.91330  Biso   1.000  H
  O25      1.0000 0.46201  0.51410  0.73000  Biso   1.000  O
  O26      1.0000 0.46197  0.12100  0.73060  Biso   1.000  O
  O27      1.0000 0.41990  0.70740  0.69390  Biso   1.000  O
  H16      1.0000 0.42160  0.63610  0.69740  Biso   1.000  H
  C15      1.0000 0.34970  0.17070  0.70630  Biso   1.000  C
  C16      1.0000 0.30210  0.11450  0.69230  Biso   1.000  C
  C17      1.0000 0.28360  0.10730  0.62000  Biso   1.000  C
  C18      1.0000 0.23850  0.06090  0.60800  Biso   1.000  C
  H17      1.0000 0.22630  0.05700  0.55920  Biso   1.000  H
  C19      1.0000 0.21130  0.02020  0.66790  Biso   1.000  C
  C20      1.0000 0.23010  0.02660  0.74010  Biso   1.000  C
  C21      1.0000 0.27490  0.07370  0.75200  Biso   1.000  C
  H18      1.0000 0.28710  0.07810  0.80080  Biso   1.000  H
  C22      1.0000 0.16250  0.97200  0.65150  Biso   1.000  C
  C23      1.0000 0.46236  0.37490  0.87180  Biso   1.000  C
  C24      1.0000 0.48347  0.43650  0.93760  Biso   1.000  C
  C25      1.0000 0.53243  0.44170  0.95290  Biso   1.000  C
  C26      1.0000 0.54772  0.50410  0.01450  Biso   1.000  C
  H19      1.0000 0.58040  0.50690  0.02470  Biso   1.000  H
  C27      1.0000 0.46140  0.75690  0.72150  Biso   1.000  C
  C28      1.0000 0.46080  0.87840  0.72190  Biso   1.000  C
  H20      1.0000 0.43360  0.92060  0.70280  Biso   1.000  H
  O28      1.0000 0.31220  0.12200  0.55640  Biso   1.000  O
  H21      1.0000 0.33820  0.14890  0.56890  Biso   1.000  H
  O29      1.0000 0.19980  0.01700  0.80290  Biso   1.000  O
  H22      1.0000 0.17340  0.99410  0.78930  Biso   1.000  H
  O30      1.0000 0.42090  0.93040  0.69270  Biso   1.000  O
  H23      1.0000 0.42330  0.00160  0.69670  Biso   1.000  H
  H24      1.0000 0.43450  0.71480  0.70140  Biso   1.000  H
  Eu3      1.0000 0.93192  0.18380  0.27754  Biso   1.000  Eu
  O31      1.0000 0.87515  0.30200  0.35030  Biso   1.000  O
  O32      1.0000 0.86271  0.30410  0.22790  Biso   1.000  O
  O33      1.0000 0.64878  0.53460  0.41470  Biso   1.000  O
  O34      1.0000 0.63812  0.56170  0.29240  Biso   1.000  O
  O35      1.0000 0.80540  0.33900  0.44150  Biso   1.000  O
  H25      1.0000 0.83170  0.31370  0.42880  Biso   1.000  H
  O36      1.0000 0.71040  0.53500  0.19920  Biso   1.000  O
  H26      1.0000 0.68160  0.54460  0.20630  Biso   1.000  H
  O37      1.0000 0.91846  0.11670  0.14320  Biso   1.000  O
  O38      1.0000 0.98936  0.18680  0.17135  Biso   1.000  O
  O39      1.0000 0.06504  0.11510  0.09150  Biso   1.000  O
  H27      1.0000 0.09140  0.08420  0.08670  Biso   1.000  H
  O40      1.0000 0.96201  0.98590  0.27000  Biso   1.000  O
  O41      1.0000 0.96197  0.37900  0.26940  Biso   1.000  O
  O42      1.0000 0.91990  0.79260  0.30610  Biso   1.000  O
  H28      1.0000 0.92160  0.86390  0.30260  Biso   1.000  H
  C29      1.0000 0.84970  0.32930  0.29370  Biso   1.000  C
  C30      1.0000 0.80210  0.38550  0.30770  Biso   1.000  C
  C31      1.0000 0.78360  0.39270  0.38000  Biso   1.000  C
  C32      1.0000 0.73850  0.43910  0.39200  Biso   1.000  C
  H29      1.0000 0.72630  0.44300  0.44080  Biso   1.000  H
  C33      1.0000 0.71130  0.47980  0.33210  Biso   1.000  C
  C34      1.0000 0.73010  0.47340  0.25990  Biso   1.000  C
  C35      1.0000 0.77490  0.42630  0.24800  Biso   1.000  C
  H30      1.0000 0.78710  0.42190  0.19920  Biso   1.000  H
  C36      1.0000 0.66250  0.52800  0.34850  Biso   1.000  C
  C37      1.0000 0.96236  0.12510  0.12820  Biso   1.000  C
  C38      1.0000 0.98347  0.06350  0.06240  Biso   1.000  C
  C39      1.0000 0.03243  0.05830  0.04710  Biso   1.000  C
  C40      1.0000 0.04772  0.99590  0.98550  Biso   1.000  C
  H31      1.0000 0.08040  0.99310  0.97530  Biso   1.000  H
  C41      1.0000 0.96140  0.74310  0.27850  Biso   1.000  C
  C42      1.0000 0.96080  0.62160  0.27810  Biso   1.000  C
  H32      1.0000 0.93360  0.57940  0.29720  Biso   1.000  H
  O43      1.0000 0.81220  0.37800  0.44360  Biso   1.000  O
  H33      1.0000 0.83820  0.35110  0.43110  Biso   1.000  H
  O44      1.0000 0.69980  0.48300  0.19710  Biso   1.000  O
  H34      1.0000 0.67340  0.50590  0.21070  Biso   1.000  H
  O45      1.0000 0.92090  0.56960  0.30730  Biso   1.000  O
  H35      1.0000 0.92330  0.49840  0.30330  Biso   1.000  H
  H36      1.0000 0.93450  0.78520  0.29860  Biso   1.000  H
  Eu4      1.0000 0.56808  0.31620  0.77754  Biso   1.000  Eu
  O46      1.0000 0.62485  0.19800  0.85030  Biso   1.000  O
  O47      1.0000 0.63729  0.19590  0.72790  Biso   1.000  O
  O48      1.0000 0.85122  0.96540  0.91470  Biso   1.000  O
  O49      1.0000 0.86188  0.93830  0.79240  Biso   1.000  O
  O50      1.0000 0.69460  0.16100  0.94150  Biso   1.000  O
  H37      1.0000 0.66830  0.18630  0.92880  Biso   1.000  H
  O51      1.0000 0.78960  0.96500  0.69920  Biso   1.000  O
  H38      1.0000 0.81840  0.95540  0.70630  Biso   1.000  H
  O52      1.0000 0.58154  0.38330  0.64320  Biso   1.000  O
  O53      1.0000 0.51064  0.31320  0.67135  Biso   1.000  O
  O54      1.0000 0.43496  0.38490  0.59150  Biso   1.000  O
  H39      1.0000 0.40860  0.41580  0.58670  Biso   1.000  H
  O55      1.0000 0.53799  0.51410  0.77000  Biso   1.000  O
  O56      1.0000 0.53803  0.12100  0.76940  Biso   1.000  O
  O57      1.0000 0.58010  0.70740  0.80610  Biso   1.000  O
  H40      1.0000 0.57840  0.63610  0.80260  Biso   1.000  H
  C43      1.0000 0.65030  0.17070  0.79370  Biso   1.000  C
  C44      1.0000 0.69790  0.11450  0.80770  Biso   1.000  C
  C45      1.0000 0.71640  0.10730  0.88000  Biso   1.000  C
  C46      1.0000 0.76150  0.06090  0.89200  Biso   1.000  C
  H41      1.0000 0.77370  0.05700  0.94080  Biso   1.000  H
  C47      1.0000 0.78870  0.02020  0.83210  Biso   1.000  C
  C48      1.0000 0.76990  0.02660  0.75990  Biso   1.000  C
  C49      1.0000 0.72510  0.07370  0.74800  Biso   1.000  C
  H42      1.0000 0.71290  0.07810  0.69920  Biso   1.000  H
  C50      1.0000 0.83750  0.97200  0.84850  Biso   1.000  C
  C51      1.0000 0.53764  0.37490  0.62820  Biso   1.000  C
  C52      1.0000 0.51653  0.43650  0.56240  Biso   1.000  C
  C53      1.0000 0.46757  0.44170  0.54710  Biso   1.000  C
  C54      1.0000 0.45228  0.50410  0.48550  Biso   1.000  C
  H43      1.0000 0.41960  0.50690  0.47530  Biso   1.000  H
  C55      1.0000 0.53860  0.75690  0.77850  Biso   1.000  C
  C56      1.0000 0.53920  0.87840  0.77810  Biso   1.000  C
  H44      1.0000 0.56640  0.92060  0.79720  Biso   1.000  H
  O58      1.0000 0.68780  0.12200  0.94360  Biso   1.000  O
  H45      1.0000 0.66180  0.14890  0.93110  Biso   1.000  H
  O59      1.0000 0.80020  0.01700  0.69710  Biso   1.000  O
  H46      1.0000 0.82660  0.99410  0.71070  Biso   1.000  H
  O60      1.0000 0.57910  0.93040  0.80730  Biso   1.000  O
  H47      1.0000 0.57670  0.00160  0.80330  Biso   1.000  H
  H48      1.0000 0.56550  0.71480  0.79860  Biso   1.000  H
  Eu5      1.0000 0.93192  0.81620  0.77754  Biso   1.000  Eu
  O61      1.0000 0.87515  0.69800  0.85030  Biso   1.000  O
  O62      1.0000 0.86271  0.69590  0.72790  Biso   1.000  O
  O63      1.0000 0.64878  0.46540  0.91470  Biso   1.000  O
  O64      1.0000 0.63812  0.43830  0.79240  Biso   1.000  O
  O65      1.0000 0.80540  0.66100  0.94150  Biso   1.000  O
  H49      1.0000 0.83170  0.68630  0.92880  Biso   1.000  H
  O66      1.0000 0.71040  0.46500  0.69920  Biso   1.000  O
  H50      1.0000 0.68160  0.45540  0.70630  Biso   1.000  H
  O67      1.0000 0.91846  0.88330  0.64320  Biso   1.000  O
  O68      1.0000 0.98936  0.81320  0.67135  Biso   1.000  O
  O69      1.0000 0.06504  0.88490  0.59150  Biso   1.000  O
  H51      1.0000 0.09140  0.91580  0.58670  Biso   1.000  H
  O70      1.0000 0.96201  0.01410  0.77000  Biso   1.000  O
  O71      1.0000 0.96197  0.62100  0.76940  Biso   1.000  O
  O72      1.0000 0.91990  0.20740  0.80610  Biso   1.000  O
  H52      1.0000 0.92160  0.13610  0.80260  Biso   1.000  H
  C57      1.0000 0.84970  0.67070  0.79370  Biso   1.000  C
  C58      1.0000 0.80210  0.61450  0.80770  Biso   1.000  C
  C59      1.0000 0.78360  0.60730  0.88000  Biso   1.000  C
  C60      1.0000 0.73850  0.56090  0.89200  Biso   1.000  C
  H53      1.0000 0.72630  0.55700  0.94080  Biso   1.000  H
  C61      1.0000 0.71130  0.52020  0.83210  Biso   1.000  C
  C62      1.0000 0.73010  0.52660  0.75990  Biso   1.000  C
  C63      1.0000 0.77490  0.57370  0.74800  Biso   1.000  C
  H54      1.0000 0.78710  0.57810  0.69920  Biso   1.000  H
  C64      1.0000 0.66250  0.47200  0.84850  Biso   1.000  C
  C65      1.0000 0.96236  0.87490  0.62820  Biso   1.000  C
  C66      1.0000 0.98347  0.93650  0.56240  Biso   1.000  C
  C67      1.0000 0.03243  0.94170  0.54710  Biso   1.000  C
  C68      1.0000 0.04772  0.00410  0.48550  Biso   1.000  C
  H55      1.0000 0.08040  0.00690  0.47530  Biso   1.000  H
  C69      1.0000 0.96140  0.25690  0.77850  Biso   1.000  C
  C70      1.0000 0.96080  0.37840  0.77810  Biso   1.000  C
  H56      1.0000 0.93360  0.42060  0.79720  Biso   1.000  H
  O73      1.0000 0.81220  0.62200  0.94360  Biso   1.000  O
  H57      1.0000 0.83820  0.64890  0.93110  Biso   1.000  H
  O74      1.0000 0.69980  0.51700  0.69710  Biso   1.000  O
  H58      1.0000 0.67340  0.49410  0.71070  Biso   1.000  H
  O75      1.0000 0.92090  0.43040  0.80730  Biso   1.000  O
  H59      1.0000 0.92330  0.50160  0.80330  Biso   1.000  H
  H60      1.0000 0.93450  0.21480  0.79860  Biso   1.000  H
  Eu6      1.0000 0.56808  0.68380  0.27754  Biso   1.000  Eu
  O76      1.0000 0.62485  0.80200  0.35030  Biso   1.000  O
  O77      1.0000 0.63729  0.80410  0.22790  Biso   1.000  O
  O78      1.0000 0.85122  0.03460  0.41470  Biso   1.000  O
  O79      1.0000 0.86188  0.06170  0.29240  Biso   1.000  O
  O80      1.0000 0.69460  0.83900  0.44150  Biso   1.000  O
  H61      1.0000 0.66830  0.81370  0.42880  Biso   1.000  H
  O81      1.0000 0.78960  0.03500  0.19920  Biso   1.000  O
  H62      1.0000 0.81840  0.04460  0.20630  Biso   1.000  H
  O82      1.0000 0.58154  0.61670  0.14320  Biso   1.000  O
  O83      1.0000 0.51064  0.68680  0.17135  Biso   1.000  O
  O84      1.0000 0.43496  0.61510  0.09150  Biso   1.000  O
  H63      1.0000 0.40860  0.58420  0.08670  Biso   1.000  H
  O85      1.0000 0.53799  0.48590  0.27000  Biso   1.000  O
  O86      1.0000 0.53803  0.87900  0.26940  Biso   1.000  O
  O87      1.0000 0.58010  0.29260  0.30610  Biso   1.000  O
  H64      1.0000 0.57840  0.36390  0.30260  Biso   1.000  H
  C71      1.0000 0.65030  0.82930  0.29370  Biso   1.000  C
  C72      1.0000 0.69790  0.88550  0.30770  Biso   1.000  C
  C73      1.0000 0.71640  0.89270  0.38000  Biso   1.000  C
  C74      1.0000 0.76150  0.93910  0.39200  Biso   1.000  C
  H65      1.0000 0.77370  0.94300  0.44080  Biso   1.000  H
  C75      1.0000 0.78870  0.97980  0.33210  Biso   1.000  C
  C76      1.0000 0.76990  0.97340  0.25990  Biso   1.000  C
  C77      1.0000 0.72510  0.92630  0.24800  Biso   1.000  C
  H66      1.0000 0.71290  0.92190  0.19920  Biso   1.000  H
  C78      1.0000 0.83750  0.02800  0.34850  Biso   1.000  C
  C79      1.0000 0.53764  0.62510  0.12820  Biso   1.000  C
  C80      1.0000 0.51653  0.56350  0.06240  Biso   1.000  C
  C81      1.0000 0.46757  0.55830  0.04710  Biso   1.000  C
  C82      1.0000 0.45228  0.49590  0.98550  Biso   1.000  C
  H67      1.0000 0.41960  0.49310  0.97530  Biso   1.000  H
  C83      1.0000 0.53860  0.24310  0.27850  Biso   1.000  C
  C84      1.0000 0.53920  0.12160  0.27810  Biso   1.000  C
  H68      1.0000 0.56640  0.07940  0.29720  Biso   1.000  H
  O88      1.0000 0.68780  0.87800  0.44360  Biso   1.000  O
  H69      1.0000 0.66180  0.85110  0.43110  Biso   1.000  H
  O89      1.0000 0.80020  0.98300  0.19710  Biso   1.000  O
  H70      1.0000 0.82660  0.00590  0.21070  Biso   1.000  H
  O90      1.0000 0.57910  0.06960  0.30730  Biso   1.000  O
  H71      1.0000 0.57670  0.99840  0.30330  Biso   1.000  H
  H72      1.0000 0.56550  0.28520  0.29860  Biso   1.000  H
  Eu7      1.0000 0.06808  0.81620  0.72246  Biso   1.000  Eu
  O91      1.0000 0.12485  0.69800  0.64970  Biso   1.000  O
  O92      1.0000 0.13729  0.69590  0.77210  Biso   1.000  O
  O93      1.0000 0.35122  0.46540  0.58530  Biso   1.000  O
  O94      1.0000 0.36188  0.43830  0.70760  Biso   1.000  O
  O95      1.0000 0.19460  0.66100  0.55850  Biso   1.000  O
  H73      1.0000 0.16830  0.68630  0.57120  Biso   1.000  H
  O96      1.0000 0.28960  0.46500  0.80080  Biso   1.000  O
  H74      1.0000 0.31840  0.45540  0.79370  Biso   1.000  H
  O97      1.0000 0.08154  0.88330  0.85680  Biso   1.000  O
  O98      1.0000 0.01064  0.81320  0.82865  Biso   1.000  O
  O99      1.0000 0.93496  0.88490  0.90850  Biso   1.000  O
  H75      1.0000 0.90860  0.91580  0.91330  Biso   1.000  H
  O100     1.0000 0.03799  0.01410  0.73000  Biso   1.000  O
  O101     1.0000 0.03803  0.62100  0.73060  Biso   1.000  O
  O102     1.0000 0.08010  0.20740  0.69390  Biso   1.000  O
  H76      1.0000 0.07840  0.13610  0.69740  Biso   1.000  H
  C85      1.0000 0.15030  0.67070  0.70630  Biso   1.000  C
  C86      1.0000 0.19790  0.61450  0.69230  Biso   1.000  C
  C87      1.0000 0.21640  0.60730  0.62000  Biso   1.000  C
  C88      1.0000 0.26150  0.56090  0.60800  Biso   1.000  C
  H77      1.0000 0.27370  0.55700  0.55920  Biso   1.000  H
  C89      1.0000 0.28870  0.52020  0.66790  Biso   1.000  C
  C90      1.0000 0.26990  0.52660  0.74010  Biso   1.000  C
  C91      1.0000 0.22510  0.57370  0.75200  Biso   1.000  C
  H78      1.0000 0.21290  0.57810  0.80080  Biso   1.000  H
  C92      1.0000 0.33750  0.47200  0.65150  Biso   1.000  C
  C93      1.0000 0.03764  0.87490  0.87180  Biso   1.000  C
  C94      1.0000 0.01653  0.93650  0.93760  Biso   1.000  C
  C95      1.0000 0.96757  0.94170  0.95290  Biso   1.000  C
  C96      1.0000 0.95228  0.00410  0.01450  Biso   1.000  C
  H79      1.0000 0.91960  0.00690  0.02470  Biso   1.000  H
  C97      1.0000 0.03860  0.25690  0.72150  Biso   1.000  C
  C98      1.0000 0.03920  0.37840  0.72190  Biso   1.000  C
  H80      1.0000 0.06640  0.42060  0.70280  Biso   1.000  H
  O103     1.0000 0.18780  0.62200  0.55640  Biso   1.000  O
  H81      1.0000 0.16180  0.64890  0.56890  Biso   1.000  H
  O104     1.0000 0.30020  0.51700  0.80290  Biso   1.000  O
  H82      1.0000 0.32660  0.49410  0.78930  Biso   1.000  H
  O105     1.0000 0.07910  0.43040  0.69270  Biso   1.000  O
  H83      1.0000 0.07670  0.50160  0.69670  Biso   1.000  H
  H84      1.0000 0.06550  0.21480  0.70140  Biso   1.000  H
  Eu8      1.0000 0.43192  0.68380  0.22246  Biso   1.000  Eu
  O106     1.0000 0.37515  0.80200  0.14970  Biso   1.000  O
  O107     1.0000 0.36271  0.80410  0.27210  Biso   1.000  O
  O108     1.0000 0.14878  0.03460  0.08530  Biso   1.000  O
  O109     1.0000 0.13812  0.06170  0.20760  Biso   1.000  O
  O110     1.0000 0.30540  0.83900  0.05850  Biso   1.000  O
  H85      1.0000 0.33170  0.81370  0.07120  Biso   1.000  H
  O111     1.0000 0.21040  0.03500  0.30080  Biso   1.000  O
  H86      1.0000 0.18160  0.04460  0.29370  Biso   1.000  H
  O112     1.0000 0.41846  0.61670  0.35680  Biso   1.000  O
  O113     1.0000 0.48936  0.68680  0.32865  Biso   1.000  O
  O114     1.0000 0.56504  0.61510  0.40850  Biso   1.000  O
  H87      1.0000 0.59140  0.58420  0.41330  Biso   1.000  H
  O115     1.0000 0.46201  0.48590  0.23000  Biso   1.000  O
  O116     1.0000 0.46197  0.87900  0.23060  Biso   1.000  O
  O117     1.0000 0.41990  0.29260  0.19390  Biso   1.000  O
  H88      1.0000 0.42160  0.36390  0.19740  Biso   1.000  H
  C99      1.0000 0.34970  0.82930  0.20630  Biso   1.000  C
  C100     1.0000 0.30210  0.88550  0.19230  Biso   1.000  C
  C101     1.0000 0.28360  0.89270  0.12000  Biso   1.000  C
  C102     1.0000 0.23850  0.93910  0.10800  Biso   1.000  C
  H89      1.0000 0.22630  0.94300  0.05920  Biso   1.000  H
  C103     1.0000 0.21130  0.97980  0.16790  Biso   1.000  C
  C104     1.0000 0.23010  0.97340  0.24010  Biso   1.000  C
  C105     1.0000 0.27490  0.92630  0.25200  Biso   1.000  C
  H90      1.0000 0.28710  0.92190  0.30080  Biso   1.000  H
  C106     1.0000 0.16250  0.02800  0.15150  Biso   1.000  C
  C107     1.0000 0.46236  0.62510  0.37180  Biso   1.000  C
  C108     1.0000 0.48347  0.56350  0.43760  Biso   1.000  C
  C109     1.0000 0.53243  0.55830  0.45290  Biso   1.000  C
  C110     1.0000 0.54772  0.49590  0.51450  Biso   1.000  C
  H91      1.0000 0.58040  0.49310  0.52470  Biso   1.000  H
  C111     1.0000 0.46140  0.24310  0.22150  Biso   1.000  C
  C112     1.0000 0.46080  0.12160  0.22190  Biso   1.000  C
  H92      1.0000 0.43360  0.07940  0.20280  Biso   1.000  H
  O118     1.0000 0.31220  0.87800  0.05640  Biso   1.000  O
  H93      1.0000 0.33820  0.85110  0.06890  Biso   1.000  H
  O119     1.0000 0.19980  0.98300  0.30290  Biso   1.000  O
  H94      1.0000 0.17340  0.00590  0.28930  Biso   1.000  H
  O120     1.0000 0.42090  0.06960  0.19270  Biso   1.000  O
  H95      1.0000 0.42330  0.99840  0.19670  Biso   1.000  H
  H96      1.0000 0.43450  0.28520  0.20140  Biso   1.000  H
  C113     1.0000 0.00000  0.93590  0.25000  Biso   1.000  C
  C114     1.0000 0.00000  0.80500  0.25000  Biso   1.000  C
  C115     1.0000 0.00000  0.56130  0.25000  Biso   1.000  C
  C116     1.0000 0.00000  0.43050  0.25000  Biso   1.000  C
  C117     1.0000 0.50000  0.56410  0.75000  Biso   1.000  C
  C118     1.0000 0.50000  0.69500  0.75000  Biso   1.000  C
  C119     1.0000 0.50000  0.93870  0.75000  Biso   1.000  C
  C120     1.0000 0.50000  0.06950  0.75000  Biso   1.000  C
  C121     1.0000 0.00000  0.06410  0.75000  Biso   1.000  C
  C122     1.0000 0.00000  0.19500  0.75000  Biso   1.000  C
  C123     1.0000 0.00000  0.43870  0.75000  Biso   1.000  C
  C124     1.0000 0.00000  0.56950  0.75000  Biso   1.000  C
  C125     1.0000 0.50000  0.43590  0.25000  Biso   1.000  C
  C126     1.0000 0.50000  0.30500  0.25000  Biso   1.000  C
  C127     1.0000 0.50000  0.06130  0.25000  Biso   1.000  C
  C128     1.0000 0.50000  0.93050  0.25000  Biso   1.000  C
