data_image0
_cell_length_a       13.715
_cell_length_b       13.715
_cell_length_c       7.9523
_cell_angle_alpha    90
_cell_angle_beta     90
_cell_angle_gamma    90

_symmetry_space_group_name_H-M    "P 1"
_symmetry_int_tables_number       1

loop_
  _symmetry_equiv_pos_as_xyz
  'x, y, z'

loop_
  _atom_site_label
  _atom_site_occupancy
  _atom_site_fract_x
  _atom_site_fract_y
  _atom_site_fract_z
  _atom_site_thermal_displace_type
  _atom_site_B_iso_or_equiv
  _atom_site_type_symbol
  C1       1.0000 0.02270  0.19917  0.14040  Biso   1.000  C
  C2       1.0000 0.02506  0.30028  0.14690  Biso   1.000  C
  H1       1.0000 0.03530  0.15750  0.25510  Biso   1.000  H
  H2       1.0000 0.03660  0.33630  0.26740  Biso   1.000  H
  C3       1.0000 0.97730  0.80083  0.14040  Biso   1.000  C
  C4       1.0000 0.97494  0.69972  0.14690  Biso   1.000  C
  H3       1.0000 0.96470  0.84250  0.25510  Biso   1.000  H
  H4       1.0000 0.96340  0.66370  0.26740  Biso   1.000  H
  C5       1.0000 0.80083  0.02270  0.14040  Biso   1.000  C
  C6       1.0000 0.69972  0.02506  0.14690  Biso   1.000  C
  H5       1.0000 0.84250  0.03530  0.25510  Biso   1.000  H
  H6       1.0000 0.66370  0.03660  0.26740  Biso   1.000  H
  C7       1.0000 0.19917  0.97730  0.14040  Biso   1.000  C
  C8       1.0000 0.30028  0.97494  0.14690  Biso   1.000  C
  H7       1.0000 0.15750  0.96470  0.25510  Biso   1.000  H
  H8       1.0000 0.33630  0.96340  0.26740  Biso   1.000  H
  C9       1.0000 0.97730  0.19917  0.85960  Biso   1.000  C
  C10      1.0000 0.97494  0.30028  0.85310  Biso   1.000  C
  H9       1.0000 0.96470  0.15750  0.74490  Biso   1.000  H
  H10      1.0000 0.96340  0.33630  0.73260  Biso   1.000  H
  C11      1.0000 0.02270  0.80083  0.85960  Biso   1.000  C
  C12      1.0000 0.02506  0.69972  0.85310  Biso   1.000  C
  H11      1.0000 0.03530  0.84250  0.74490  Biso   1.000  H
  H12      1.0000 0.03660  0.66370  0.73260  Biso   1.000  H
  C13      1.0000 0.19917  0.02270  0.85960  Biso   1.000  C
  C14      1.0000 0.30028  0.02506  0.85310  Biso   1.000  C
  H13      1.0000 0.15750  0.03530  0.74490  Biso   1.000  H
  H14      1.0000 0.33630  0.03660  0.73260  Biso   1.000  H
  C15      1.0000 0.80083  0.97730  0.85960  Biso   1.000  C
  C16      1.0000 0.69972  0.97494  0.85310  Biso   1.000  C
  H15      1.0000 0.84250  0.96470  0.74490  Biso   1.000  H
  H16      1.0000 0.66370  0.96340  0.73260  Biso   1.000  H
  C17      1.0000 0.97730  0.80083  0.85960  Biso   1.000  C
  C18      1.0000 0.97494  0.69972  0.85310  Biso   1.000  C
  H17      1.0000 0.96470  0.84250  0.74490  Biso   1.000  H
  H18      1.0000 0.96340  0.66370  0.73260  Biso   1.000  H
  C19      1.0000 0.02270  0.19917  0.85960  Biso   1.000  C
  C20      1.0000 0.02506  0.30028  0.85310  Biso   1.000  C
  H19      1.0000 0.03530  0.15750  0.74490  Biso   1.000  H
  H20      1.0000 0.03660  0.33630  0.73260  Biso   1.000  H
  C21      1.0000 0.19917  0.97730  0.85960  Biso   1.000  C
  C22      1.0000 0.30028  0.97494  0.85310  Biso   1.000  C
  H21      1.0000 0.15750  0.96470  0.74490  Biso   1.000  H
  H22      1.0000 0.33630  0.96340  0.73260  Biso   1.000  H
  C23      1.0000 0.80083  0.02270  0.85960  Biso   1.000  C
  C24      1.0000 0.69972  0.02506  0.85310  Biso   1.000  C
  H23      1.0000 0.84250  0.03530  0.74490  Biso   1.000  H
  H24      1.0000 0.66370  0.03660  0.73260  Biso   1.000  H
  C25      1.0000 0.02270  0.80083  0.14040  Biso   1.000  C
  C26      1.0000 0.02506  0.69972  0.14690  Biso   1.000  C
  H25      1.0000 0.03530  0.84250  0.25510  Biso   1.000  H
  H26      1.0000 0.03660  0.66370  0.26740  Biso   1.000  H
  C27      1.0000 0.97730  0.19917  0.14040  Biso   1.000  C
  C28      1.0000 0.97494  0.30028  0.14690  Biso   1.000  C
  H27      1.0000 0.96470  0.15750  0.25510  Biso   1.000  H
  H28      1.0000 0.96340  0.33630  0.26740  Biso   1.000  H
  C29      1.0000 0.80083  0.97730  0.14040  Biso   1.000  C
  C30      1.0000 0.69972  0.97494  0.14690  Biso   1.000  C
  H29      1.0000 0.84250  0.96470  0.25510  Biso   1.000  H
  H30      1.0000 0.66370  0.96340  0.26740  Biso   1.000  H
  C31      1.0000 0.19917  0.02270  0.14040  Biso   1.000  C
  C32      1.0000 0.30028  0.02506  0.14690  Biso   1.000  C
  H31      1.0000 0.15750  0.03530  0.25510  Biso   1.000  H
  H32      1.0000 0.33630  0.03660  0.26740  Biso   1.000  H
  C33      1.0000 0.00000  0.35210  0.00000  Biso   1.000  C
  C34      1.0000 0.00000  0.45530  0.00000  Biso   1.000  C
  N1       1.0000 0.00000  0.14897  0.00000  Biso   1.000  N
  C35      1.0000 0.00000  0.64790  0.00000  Biso   1.000  C
  C36      1.0000 0.00000  0.54470  0.00000  Biso   1.000  C
  N2       1.0000 0.00000  0.85103  0.00000  Biso   1.000  N
  C37      1.0000 0.64790  0.00000  0.00000  Biso   1.000  C
  C38      1.0000 0.54470  0.00000  0.00000  Biso   1.000  C
  N3       1.0000 0.85103  0.00000  0.00000  Biso   1.000  N
  C39      1.0000 0.35210  0.00000  0.00000  Biso   1.000  C
  C40      1.0000 0.45530  0.00000  0.00000  Biso   1.000  C
  N4       1.0000 0.14897  0.00000  0.00000  Biso   1.000  N
  Cu1      1.0000 0.00000  0.00000  0.00000  Biso   1.000  Cu
  C41      1.0000 0.52270  0.69917  0.64040  Biso   1.000  C
  C42      1.0000 0.52506  0.80028  0.64690  Biso   1.000  C
  H33      1.0000 0.53530  0.65750  0.75510  Biso   1.000  H
  H34      1.0000 0.53660  0.83630  0.76740  Biso   1.000  H
  C43      1.0000 0.47730  0.30083  0.64040  Biso   1.000  C
  C44      1.0000 0.47494  0.19972  0.64690  Biso   1.000  C
  H35      1.0000 0.46470  0.34250  0.75510  Biso   1.000  H
  H36      1.0000 0.46340  0.16370  0.76740  Biso   1.000  H
  C45      1.0000 0.30083  0.52270  0.64040  Biso   1.000  C
  C46      1.0000 0.19972  0.52506  0.64690  Biso   1.000  C
  H37      1.0000 0.34250  0.53530  0.75510  Biso   1.000  H
  H38      1.0000 0.16370  0.53660  0.76740  Biso   1.000  H
  C47      1.0000 0.69917  0.47730  0.64040  Biso   1.000  C
  C48      1.0000 0.80028  0.47494  0.64690  Biso   1.000  C
  H39      1.0000 0.65750  0.46470  0.75510  Biso   1.000  H
  H40      1.0000 0.83630  0.46340  0.76740  Biso   1.000  H
  C49      1.0000 0.47730  0.69917  0.35960  Biso   1.000  C
  C50      1.0000 0.47494  0.80028  0.35310  Biso   1.000  C
  H41      1.0000 0.46470  0.65750  0.24490  Biso   1.000  H
  H42      1.0000 0.46340  0.83630  0.23260  Biso   1.000  H
  C51      1.0000 0.52270  0.30083  0.35960  Biso   1.000  C
  C52      1.0000 0.52506  0.19972  0.35310  Biso   1.000  C
  H43      1.0000 0.53530  0.34250  0.24490  Biso   1.000  H
  H44      1.0000 0.53660  0.16370  0.23260  Biso   1.000  H
  C53      1.0000 0.69917  0.52270  0.35960  Biso   1.000  C
  C54      1.0000 0.80028  0.52506  0.35310  Biso   1.000  C
  H45      1.0000 0.65750  0.53530  0.24490  Biso   1.000  H
  H46      1.0000 0.83630  0.53660  0.23260  Biso   1.000  H
  C55      1.0000 0.30083  0.47730  0.35960  Biso   1.000  C
  C56      1.0000 0.19972  0.47494  0.35310  Biso   1.000  C
  H47      1.0000 0.34250  0.46470  0.24490  Biso   1.000  H
  H48      1.0000 0.16370  0.46340  0.23260  Biso   1.000  H
  C57      1.0000 0.47730  0.30083  0.35960  Biso   1.000  C
  C58      1.0000 0.47494  0.19972  0.35310  Biso   1.000  C
  H49      1.0000 0.46470  0.34250  0.24490  Biso   1.000  H
  H50      1.0000 0.46340  0.16370  0.23260  Biso   1.000  H
  C59      1.0000 0.52270  0.69917  0.35960  Biso   1.000  C
  C60      1.0000 0.52506  0.80028  0.35310  Biso   1.000  C
  H51      1.0000 0.53530  0.65750  0.24490  Biso   1.000  H
  H52      1.0000 0.53660  0.83630  0.23260  Biso   1.000  H
  C61      1.0000 0.69917  0.47730  0.35960  Biso   1.000  C
  C62      1.0000 0.80028  0.47494  0.35310  Biso   1.000  C
  H53      1.0000 0.65750  0.46470  0.24490  Biso   1.000  H
  H54      1.0000 0.83630  0.46340  0.23260  Biso   1.000  H
  C63      1.0000 0.30083  0.52270  0.35960  Biso   1.000  C
  C64      1.0000 0.19972  0.52506  0.35310  Biso   1.000  C
  H55      1.0000 0.34250  0.53530  0.24490  Biso   1.000  H
  H56      1.0000 0.16370  0.53660  0.23260  Biso   1.000  H
  C65      1.0000 0.52270  0.30083  0.64040  Biso   1.000  C
  C66      1.0000 0.52506  0.19972  0.64690  Biso   1.000  C
  H57      1.0000 0.53530  0.34250  0.75510  Biso   1.000  H
  H58      1.0000 0.53660  0.16370  0.76740  Biso   1.000  H
  C67      1.0000 0.47730  0.69917  0.64040  Biso   1.000  C
  C68      1.0000 0.47494  0.80028  0.64690  Biso   1.000  C
  H59      1.0000 0.46470  0.65750  0.75510  Biso   1.000  H
  H60      1.0000 0.46340  0.83630  0.76740  Biso   1.000  H
  C69      1.0000 0.30083  0.47730  0.64040  Biso   1.000  C
  C70      1.0000 0.19972  0.47494  0.64690  Biso   1.000  C
  H61      1.0000 0.34250  0.46470  0.75510  Biso   1.000  H
  H62      1.0000 0.16370  0.46340  0.76740  Biso   1.000  H
  C71      1.0000 0.69917  0.52270  0.64040  Biso   1.000  C
  C72      1.0000 0.80028  0.52506  0.64690  Biso   1.000  C
  H63      1.0000 0.65750  0.53530  0.75510  Biso   1.000  H
  H64      1.0000 0.83630  0.53660  0.76740  Biso   1.000  H
  C73      1.0000 0.50000  0.85210  0.50000  Biso   1.000  C
  C74      1.0000 0.50000  0.95530  0.50000  Biso   1.000  C
  N5       1.0000 0.50000  0.64897  0.50000  Biso   1.000  N
  C75      1.0000 0.50000  0.14790  0.50000  Biso   1.000  C
  C76      1.0000 0.50000  0.04470  0.50000  Biso   1.000  C
  N6       1.0000 0.50000  0.35103  0.50000  Biso   1.000  N
  C77      1.0000 0.14790  0.50000  0.50000  Biso   1.000  C
  C78      1.0000 0.04470  0.50000  0.50000  Biso   1.000  C
  N7       1.0000 0.35103  0.50000  0.50000  Biso   1.000  N
  C79      1.0000 0.85210  0.50000  0.50000  Biso   1.000  C
  C80      1.0000 0.95530  0.50000  0.50000  Biso   1.000  C
  N8       1.0000 0.64897  0.50000  0.50000  Biso   1.000  N
  Cu2      1.0000 0.50000  0.50000  0.50000  Biso   1.000  Cu
