data_image0
_cell_length_a       21.6978
_cell_length_b       21.6978
_cell_length_c       7.4057
_cell_angle_alpha    90
_cell_angle_beta     90
_cell_angle_gamma    90

_symmetry_space_group_name_H-M    "P 1"
_symmetry_int_tables_number       1

loop_
  _symmetry_equiv_pos_as_xyz
  'x, y, z'

loop_
  _atom_site_label
  _atom_site_occupancy
  _atom_site_fract_x
  _atom_site_fract_y
  _atom_site_fract_z
  _atom_site_thermal_displace_type
  _atom_site_B_iso_or_equiv
  _atom_site_type_symbol
  Ba1      1.0000 0.95725  0.46280  0.21367  Biso   1.000  Ba
  N1       1.0000 0.81697  0.19326  0.45340  Biso   1.000  N
  C1       1.0000 0.85107  0.20849  0.31120  Biso   1.000  C
  N2       1.0000 0.90398  0.23818  0.33980  Biso   1.000  N
  C2       1.0000 0.92450  0.25853  0.51560  Biso   1.000  C
  C3       1.0000 0.94256  0.32663  0.51340  Biso   1.000  C
  O1       1.0000 0.96619  0.34813  0.37170  Biso   1.000  O
  O2       1.0000 0.93432  0.35532  0.65950  Biso   1.000  O
  C4       1.0000 0.98030  0.22122  0.58260  Biso   1.000  C
  C5       1.0000 0.98210  0.15120  0.56800  Biso   1.000  C
  S1       1.0000 0.04813  0.10993  0.50360  Biso   1.000  S
  C6       1.0000 0.03260  0.11240  0.27130  Biso   1.000  C
  C7       1.0000 0.96690  0.15280  0.60500  Biso   1.000  C
  S2       1.0000 0.03210  0.10900  0.66100  Biso   1.000  S
  C8       1.0000 0.03650  0.13200  0.88790  Biso   1.000  C
  C9       1.0000 0.95870  0.15540  0.61600  Biso   1.000  C
  S3       1.0000 0.00620  0.10860  0.75040  Biso   1.000  S
  C10      1.0000 0.95910  0.04440  0.78800  Biso   1.000  C
  N3       1.0000 0.83557  0.19498  0.13460  Biso   1.000  N
  C11      1.0000 0.87320  0.21810  0.98530  Biso   1.000  C
  C12      1.0000 0.78340  0.15979  0.09380  Biso   1.000  C
  O3       1.0000 0.77333  0.14408  0.93760  Biso   1.000  O
  C13      1.0000 0.74418  0.14520  0.24750  Biso   1.000  C
  N4       1.0000 0.69166  0.11603  0.20170  Biso   1.000  N
  O4       1.0000 0.65552  0.10002  0.33120  Biso   1.000  O
  C14      1.0000 0.76370  0.16220  0.42460  Biso   1.000  C
  N5       1.0000 0.73105  0.14872  0.56790  Biso   1.000  N
  O5       1.0000 0.93625  0.54798  0.93110  Biso   1.000  O
  O6       1.0000 0.06933  0.52130  0.08270  Biso   1.000  O
  O7       1.0000 0.01385  0.41948  0.88340  Biso   1.000  O
  H1       1.0000 0.92780  0.24580  0.24620  Biso   1.000  H
  H2       1.0000 0.89000  0.25290  0.60340  Biso   1.000  H
  H3       1.0000 0.01690  0.23710  0.51780  Biso   1.000  H
  H4       1.0000 0.98610  0.23150  0.71170  Biso   1.000  H
  H5       1.0000 0.01460  0.22630  0.49580  Biso   1.000  H
  H6       1.0000 0.99400  0.23810  0.70010  Biso   1.000  H
  H7       1.0000 0.01340  0.22160  0.49070  Biso   1.000  H
  H8       1.0000 0.99670  0.23940  0.69550  Biso   1.000  H
  H9       1.0000 0.94920  0.13950  0.48180  Biso   1.000  H
  H10      1.0000 0.96960  0.13490  0.68710  Biso   1.000  H
  H11      1.0000 0.06500  0.09030  0.20570  Biso   1.000  H
  H12      1.0000 0.03150  0.15540  0.23100  Biso   1.000  H
  H13      1.0000 0.99260  0.09290  0.24750  Biso   1.000  H
  H14      1.0000 0.99440  0.13550  0.25040  Biso   1.000  H
  H15      1.0000 0.02790  0.07030  0.22520  Biso   1.000  H
  H16      1.0000 0.06670  0.13280  0.20860  Biso   1.000  H
  H17      1.0000 0.94930  0.13680  0.49070  Biso   1.000  H
  H18      1.0000 0.93550  0.14740  0.70040  Biso   1.000  H
  H19      1.0000 0.06960  0.10920  0.94830  Biso   1.000  H
  H20      1.0000 0.99720  0.12340  0.94810  Biso   1.000  H
  H21      1.0000 0.04520  0.17630  0.89400  Biso   1.000  H
  H22      1.0000 0.00510  0.16340  0.91190  Biso   1.000  H
  H23      1.0000 0.07750  0.14920  0.91220  Biso   1.000  H
  H24      1.0000 0.02950  0.09630  0.96630  Biso   1.000  H
  H25      1.0000 0.95350  0.13490  0.49790  Biso   1.000  H
  H26      1.0000 0.91760  0.15720  0.67390  Biso   1.000  H
  H27      1.0000 0.98090  0.01470  0.86470  Biso   1.000  H
  H28      1.0000 0.94900  0.02500  0.67220  Biso   1.000  H
  H29      1.0000 0.92110  0.05750  0.84820  Biso   1.000  H
  H30      1.0000 0.91980  0.05010  0.72540  Biso   1.000  H
  H31      1.0000 0.95170  0.03980  0.91790  Biso   1.000  H
  H32      1.0000 0.97960  0.00730  0.74190  Biso   1.000  H
  H33      1.0000 0.88020  0.26240  0.00090  Biso   1.000  H
  H34      1.0000 0.85180  0.21080  0.87080  Biso   1.000  H
  H35      1.0000 0.91290  0.19650  0.98420  Biso   1.000  H
  H36      1.0000 0.74410  0.15980  0.67560  Biso   1.000  H
  H37      1.0000 0.69610  0.12860  0.55650  Biso   1.000  H
  H38      1.0000 0.90160  0.53410  0.90100  Biso   1.000  H
  H39      1.0000 0.92720  0.58180  0.97960  Biso   1.000  H
  H40      1.0000 0.07290  0.55850  0.11280  Biso   1.000  H
  H41      1.0000 0.10410  0.50460  0.07140  Biso   1.000  H
  H42      1.0000 0.04190  0.39830  0.93080  Biso   1.000  H
  H43      1.0000 0.99280  0.39710  0.81440  Biso   1.000  H
  Ba2      1.0000 0.04275  0.53720  0.71367  Biso   1.000  Ba
  N6       1.0000 0.18303  0.80674  0.95340  Biso   1.000  N
  C15      1.0000 0.14893  0.79151  0.81120  Biso   1.000  C
  N7       1.0000 0.09602  0.76182  0.83980  Biso   1.000  N
  C16      1.0000 0.07550  0.74147  0.01560  Biso   1.000  C
  C17      1.0000 0.05744  0.67337  0.01340  Biso   1.000  C
  O8       1.0000 0.03381  0.65187  0.87170  Biso   1.000  O
  O9       1.0000 0.06568  0.64468  0.15950  Biso   1.000  O
  C18      1.0000 0.01970  0.77878  0.08260  Biso   1.000  C
  C19      1.0000 0.01790  0.84880  0.06800  Biso   1.000  C
  S4       1.0000 0.95187  0.89007  0.00360  Biso   1.000  S
  C20      1.0000 0.96740  0.88760  0.77130  Biso   1.000  C
  C21      1.0000 0.03310  0.84720  0.10500  Biso   1.000  C
  S5       1.0000 0.96790  0.89100  0.16100  Biso   1.000  S
  C22      1.0000 0.96350  0.86800  0.38790  Biso   1.000  C
  C23      1.0000 0.04130  0.84460  0.11600  Biso   1.000  C
  S6       1.0000 0.99380  0.89140  0.25040  Biso   1.000  S
  C24      1.0000 0.04090  0.95560  0.28800  Biso   1.000  C
  N8       1.0000 0.16443  0.80502  0.63460  Biso   1.000  N
  C25      1.0000 0.12680  0.78190  0.48530  Biso   1.000  C
  C26      1.0000 0.21660  0.84021  0.59380  Biso   1.000  C
  O10      1.0000 0.22667  0.85592  0.43760  Biso   1.000  O
  C27      1.0000 0.25582  0.85480  0.74750  Biso   1.000  C
  N9       1.0000 0.30834  0.88397  0.70170  Biso   1.000  N
  O11      1.0000 0.34448  0.89998  0.83120  Biso   1.000  O
  C28      1.0000 0.23630  0.83780  0.92460  Biso   1.000  C
  N10      1.0000 0.26895  0.85128  0.06790  Biso   1.000  N
  O12      1.0000 0.06375  0.45202  0.43110  Biso   1.000  O
  O13      1.0000 0.93067  0.47870  0.58270  Biso   1.000  O
  O14      1.0000 0.98615  0.58052  0.38340  Biso   1.000  O
  H44      1.0000 0.07220  0.75420  0.74620  Biso   1.000  H
  H45      1.0000 0.11000  0.74710  0.10340  Biso   1.000  H
  H46      1.0000 0.98310  0.76290  0.01780  Biso   1.000  H
  H47      1.0000 0.01390  0.76850  0.21170  Biso   1.000  H
  H48      1.0000 0.98540  0.77370  0.99580  Biso   1.000  H
  H49      1.0000 0.00600  0.76190  0.20010  Biso   1.000  H
  H50      1.0000 0.98660  0.77840  0.99070  Biso   1.000  H
  H51      1.0000 0.00330  0.76060  0.19550  Biso   1.000  H
  H52      1.0000 0.05080  0.86050  0.98180  Biso   1.000  H
  H53      1.0000 0.03040  0.86510  0.18710  Biso   1.000  H
  H54      1.0000 0.93500  0.90970  0.70570  Biso   1.000  H
  H55      1.0000 0.96850  0.84460  0.73100  Biso   1.000  H
  H56      1.0000 0.00740  0.90710  0.74750  Biso   1.000  H
  H57      1.0000 0.00560  0.86450  0.75040  Biso   1.000  H
  H58      1.0000 0.97210  0.92970  0.72520  Biso   1.000  H
  H59      1.0000 0.93330  0.86720  0.70860  Biso   1.000  H
  H60      1.0000 0.05070  0.86320  0.99070  Biso   1.000  H
  H61      1.0000 0.06450  0.85260  0.20040  Biso   1.000  H
  H62      1.0000 0.93040  0.89080  0.44830  Biso   1.000  H
  H63      1.0000 0.00280  0.87660  0.44810  Biso   1.000  H
  H64      1.0000 0.95480  0.82370  0.39400  Biso   1.000  H
  H65      1.0000 0.99490  0.83660  0.41190  Biso   1.000  H
  H66      1.0000 0.92250  0.85080  0.41220  Biso   1.000  H
  H67      1.0000 0.97050  0.90370  0.46630  Biso   1.000  H
  H68      1.0000 0.04650  0.86510  0.99790  Biso   1.000  H
  H69      1.0000 0.08240  0.84280  0.17390  Biso   1.000  H
  H70      1.0000 0.01910  0.98530  0.36470  Biso   1.000  H
  H71      1.0000 0.05100  0.97500  0.17220  Biso   1.000  H
  H72      1.0000 0.07890  0.94250  0.34820  Biso   1.000  H
  H73      1.0000 0.08020  0.94990  0.22540  Biso   1.000  H
  H74      1.0000 0.04830  0.96020  0.41790  Biso   1.000  H
  H75      1.0000 0.02040  0.99270  0.24190  Biso   1.000  H
  H76      1.0000 0.11980  0.73760  0.50090  Biso   1.000  H
  H77      1.0000 0.14820  0.78920  0.37080  Biso   1.000  H
  H78      1.0000 0.08710  0.80350  0.48420  Biso   1.000  H
  H79      1.0000 0.25590  0.84020  0.17560  Biso   1.000  H
  H80      1.0000 0.30390  0.87140  0.05650  Biso   1.000  H
  H81      1.0000 0.09840  0.46590  0.40100  Biso   1.000  H
  H82      1.0000 0.07280  0.41820  0.47960  Biso   1.000  H
  H83      1.0000 0.92710  0.44150  0.61280  Biso   1.000  H
  H84      1.0000 0.89590  0.49540  0.57140  Biso   1.000  H
  H85      1.0000 0.95810  0.60170  0.43080  Biso   1.000  H
  H86      1.0000 0.00720  0.60290  0.31440  Biso   1.000  H
  Ba3      1.0000 0.53720  0.95725  0.96367  Biso   1.000  Ba
  N11      1.0000 0.80674  0.81697  0.20340  Biso   1.000  N
  C29      1.0000 0.79151  0.85107  0.06120  Biso   1.000  C
  N12      1.0000 0.76182  0.90398  0.08980  Biso   1.000  N
  C30      1.0000 0.74147  0.92450  0.26560  Biso   1.000  C
  C31      1.0000 0.67337  0.94256  0.26340  Biso   1.000  C
  O15      1.0000 0.65187  0.96619  0.12170  Biso   1.000  O
  O16      1.0000 0.64468  0.93432  0.40950  Biso   1.000  O
  C32      1.0000 0.77878  0.98030  0.33260  Biso   1.000  C
  C33      1.0000 0.84880  0.98210  0.31800  Biso   1.000  C
  S7       1.0000 0.89007  0.04813  0.25360  Biso   1.000  S
  C34      1.0000 0.88760  0.03260  0.02130  Biso   1.000  C
  C35      1.0000 0.84720  0.96690  0.35500  Biso   1.000  C
  S8       1.0000 0.89100  0.03210  0.41100  Biso   1.000  S
  C36      1.0000 0.86800  0.03650  0.63790  Biso   1.000  C
  C37      1.0000 0.84460  0.95870  0.36600  Biso   1.000  C
  S9       1.0000 0.89140  0.00620  0.50040  Biso   1.000  S
  C38      1.0000 0.95560  0.95910  0.53800  Biso   1.000  C
  N13      1.0000 0.80502  0.83557  0.88460  Biso   1.000  N
  C39      1.0000 0.78190  0.87320  0.73530  Biso   1.000  C
  C40      1.0000 0.84021  0.78340  0.84380  Biso   1.000  C
  O17      1.0000 0.85592  0.77333  0.68760  Biso   1.000  O
  C41      1.0000 0.85480  0.74418  0.99750  Biso   1.000  C
  N14      1.0000 0.88397  0.69166  0.95170  Biso   1.000  N
  O18      1.0000 0.89998  0.65552  0.08120  Biso   1.000  O
  C42      1.0000 0.83780  0.76370  0.17460  Biso   1.000  C
  N15      1.0000 0.85128  0.73105  0.31790  Biso   1.000  N
  O19      1.0000 0.45202  0.93625  0.68110  Biso   1.000  O
  O20      1.0000 0.47870  0.06933  0.83270  Biso   1.000  O
  O21      1.0000 0.58052  0.01385  0.63340  Biso   1.000  O
  H87      1.0000 0.75420  0.92780  0.99620  Biso   1.000  H
  H88      1.0000 0.74710  0.89000  0.35340  Biso   1.000  H
  H89      1.0000 0.76290  0.01690  0.26780  Biso   1.000  H
  H90      1.0000 0.76850  0.98610  0.46170  Biso   1.000  H
  H91      1.0000 0.77370  0.01460  0.24580  Biso   1.000  H
  H92      1.0000 0.76190  0.99400  0.45010  Biso   1.000  H
  H93      1.0000 0.77840  0.01340  0.24070  Biso   1.000  H
  H94      1.0000 0.76060  0.99670  0.44550  Biso   1.000  H
  H95      1.0000 0.86050  0.94920  0.23180  Biso   1.000  H
  H96      1.0000 0.86510  0.96960  0.43710  Biso   1.000  H
  H97      1.0000 0.90970  0.06500  0.95570  Biso   1.000  H
  H98      1.0000 0.84460  0.03150  0.98100  Biso   1.000  H
  H99      1.0000 0.90710  0.99260  0.99750  Biso   1.000  H
  H100     1.0000 0.86450  0.99440  0.00040  Biso   1.000  H
  H101     1.0000 0.92970  0.02790  0.97520  Biso   1.000  H
  H102     1.0000 0.86720  0.06670  0.95860  Biso   1.000  H
  H103     1.0000 0.86320  0.94930  0.24070  Biso   1.000  H
  H104     1.0000 0.85260  0.93550  0.45040  Biso   1.000  H
  H105     1.0000 0.89080  0.06960  0.69830  Biso   1.000  H
  H106     1.0000 0.87660  0.99720  0.69810  Biso   1.000  H
  H107     1.0000 0.82370  0.04520  0.64400  Biso   1.000  H
  H108     1.0000 0.83660  0.00510  0.66190  Biso   1.000  H
  H109     1.0000 0.85080  0.07750  0.66220  Biso   1.000  H
  H110     1.0000 0.90370  0.02950  0.71630  Biso   1.000  H
  H111     1.0000 0.86510  0.95350  0.24790  Biso   1.000  H
  H112     1.0000 0.84280  0.91760  0.42390  Biso   1.000  H
  H113     1.0000 0.98530  0.98090  0.61470  Biso   1.000  H
  H114     1.0000 0.97500  0.94900  0.42220  Biso   1.000  H
  H115     1.0000 0.94250  0.92110  0.59820  Biso   1.000  H
  H116     1.0000 0.94990  0.91980  0.47540  Biso   1.000  H
  H117     1.0000 0.96020  0.95170  0.66790  Biso   1.000  H
  H118     1.0000 0.99270  0.97960  0.49190  Biso   1.000  H
  H119     1.0000 0.73760  0.88020  0.75090  Biso   1.000  H
  H120     1.0000 0.78920  0.85180  0.62080  Biso   1.000  H
  H121     1.0000 0.80350  0.91290  0.73420  Biso   1.000  H
  H122     1.0000 0.84020  0.74410  0.42560  Biso   1.000  H
  H123     1.0000 0.87140  0.69610  0.30650  Biso   1.000  H
  H124     1.0000 0.46590  0.90160  0.65100  Biso   1.000  H
  H125     1.0000 0.41820  0.92720  0.72960  Biso   1.000  H
  H126     1.0000 0.44150  0.07290  0.86280  Biso   1.000  H
  H127     1.0000 0.49540  0.10410  0.82140  Biso   1.000  H
  H128     1.0000 0.60170  0.04190  0.68080  Biso   1.000  H
  H129     1.0000 0.60290  0.99280  0.56440  Biso   1.000  H
  Ba4      1.0000 0.46280  0.04275  0.46367  Biso   1.000  Ba
  N16      1.0000 0.19326  0.18303  0.70340  Biso   1.000  N
  C43      1.0000 0.20849  0.14893  0.56120  Biso   1.000  C
  N17      1.0000 0.23818  0.09602  0.58980  Biso   1.000  N
  C44      1.0000 0.25853  0.07550  0.76560  Biso   1.000  C
  C45      1.0000 0.32663  0.05744  0.76340  Biso   1.000  C
  O22      1.0000 0.34813  0.03381  0.62170  Biso   1.000  O
  O23      1.0000 0.35532  0.06568  0.90950  Biso   1.000  O
  C46      1.0000 0.22122  0.01970  0.83260  Biso   1.000  C
  C47      1.0000 0.15120  0.01790  0.81800  Biso   1.000  C
  S10      1.0000 0.10993  0.95187  0.75360  Biso   1.000  S
  C48      1.0000 0.11240  0.96740  0.52130  Biso   1.000  C
  C49      1.0000 0.15280  0.03310  0.85500  Biso   1.000  C
  S11      1.0000 0.10900  0.96790  0.91100  Biso   1.000  S
  C50      1.0000 0.13200  0.96350  0.13790  Biso   1.000  C
  C51      1.0000 0.15540  0.04130  0.86600  Biso   1.000  C
  S12      1.0000 0.10860  0.99380  0.00040  Biso   1.000  S
  C52      1.0000 0.04440  0.04090  0.03800  Biso   1.000  C
  N18      1.0000 0.19498  0.16443  0.38460  Biso   1.000  N
  C53      1.0000 0.21810  0.12680  0.23530  Biso   1.000  C
  C54      1.0000 0.15979  0.21660  0.34380  Biso   1.000  C
  O24      1.0000 0.14408  0.22667  0.18760  Biso   1.000  O
  C55      1.0000 0.14520  0.25582  0.49750  Biso   1.000  C
  N19      1.0000 0.11603  0.30834  0.45170  Biso   1.000  N
  O25      1.0000 0.10002  0.34448  0.58120  Biso   1.000  O
  C56      1.0000 0.16220  0.23630  0.67460  Biso   1.000  C
  N20      1.0000 0.14872  0.26895  0.81790  Biso   1.000  N
  O26      1.0000 0.54798  0.06375  0.18110  Biso   1.000  O
  O27      1.0000 0.52130  0.93067  0.33270  Biso   1.000  O
  O28      1.0000 0.41948  0.98615  0.13340  Biso   1.000  O
  H130     1.0000 0.24580  0.07220  0.49620  Biso   1.000  H
  H131     1.0000 0.25290  0.11000  0.85340  Biso   1.000  H
  H132     1.0000 0.23710  0.98310  0.76780  Biso   1.000  H
  H133     1.0000 0.23150  0.01390  0.96170  Biso   1.000  H
  H134     1.0000 0.22630  0.98540  0.74580  Biso   1.000  H
  H135     1.0000 0.23810  0.00600  0.95010  Biso   1.000  H
  H136     1.0000 0.22160  0.98660  0.74070  Biso   1.000  H
  H137     1.0000 0.23940  0.00330  0.94550  Biso   1.000  H
  H138     1.0000 0.13950  0.05080  0.73180  Biso   1.000  H
  H139     1.0000 0.13490  0.03040  0.93710  Biso   1.000  H
  H140     1.0000 0.09030  0.93500  0.45570  Biso   1.000  H
  H141     1.0000 0.15540  0.96850  0.48100  Biso   1.000  H
  H142     1.0000 0.09290  0.00740  0.49750  Biso   1.000  H
  H143     1.0000 0.13550  0.00560  0.50040  Biso   1.000  H
  H144     1.0000 0.07030  0.97210  0.47520  Biso   1.000  H
  H145     1.0000 0.13280  0.93330  0.45860  Biso   1.000  H
  H146     1.0000 0.13680  0.05070  0.74070  Biso   1.000  H
  H147     1.0000 0.14740  0.06450  0.95040  Biso   1.000  H
  H148     1.0000 0.10920  0.93040  0.19830  Biso   1.000  H
  H149     1.0000 0.12340  0.00280  0.19810  Biso   1.000  H
  H150     1.0000 0.17630  0.95480  0.14400  Biso   1.000  H
  H151     1.0000 0.16340  0.99490  0.16190  Biso   1.000  H
  H152     1.0000 0.14920  0.92250  0.16220  Biso   1.000  H
  H153     1.0000 0.09630  0.97050  0.21630  Biso   1.000  H
  H154     1.0000 0.13490  0.04650  0.74790  Biso   1.000  H
  H155     1.0000 0.15720  0.08240  0.92390  Biso   1.000  H
  H156     1.0000 0.01470  0.01910  0.11470  Biso   1.000  H
  H157     1.0000 0.02500  0.05100  0.92220  Biso   1.000  H
  H158     1.0000 0.05750  0.07890  0.09820  Biso   1.000  H
  H159     1.0000 0.05010  0.08020  0.97540  Biso   1.000  H
  H160     1.0000 0.03980  0.04830  0.16790  Biso   1.000  H
  H161     1.0000 0.00730  0.02040  0.99190  Biso   1.000  H
  H162     1.0000 0.26240  0.11980  0.25090  Biso   1.000  H
  H163     1.0000 0.21080  0.14820  0.12080  Biso   1.000  H
  H164     1.0000 0.19650  0.08710  0.23420  Biso   1.000  H
  H165     1.0000 0.15980  0.25590  0.92560  Biso   1.000  H
  H166     1.0000 0.12860  0.30390  0.80650  Biso   1.000  H
  H167     1.0000 0.53410  0.09840  0.15100  Biso   1.000  H
  H168     1.0000 0.58180  0.07280  0.22960  Biso   1.000  H
  H169     1.0000 0.55850  0.92710  0.36280  Biso   1.000  H
  H170     1.0000 0.50460  0.89590  0.32140  Biso   1.000  H
  H171     1.0000 0.39830  0.95810  0.18080  Biso   1.000  H
  H172     1.0000 0.39710  0.00720  0.06440  Biso   1.000  H
