data_image0
_cell_length_a       15.29
_cell_length_b       15.29
_cell_length_c       6.905
_cell_angle_alpha    90
_cell_angle_beta     90
_cell_angle_gamma    120

_symmetry_space_group_name_H-M    "P 1"
_symmetry_int_tables_number       1

loop_
  _symmetry_equiv_pos_as_xyz
  'x, y, z'

loop_
  _atom_site_label
  _atom_site_occupancy
  _atom_site_fract_x
  _atom_site_fract_y
  _atom_site_fract_z
  _atom_site_thermal_displace_type
  _atom_site_B_iso_or_equiv
  _atom_site_type_symbol
  Ag1      1.0000 0.26446  0.73554  0.99999  Biso   1.000  Ag
  N1       1.0000 0.48550  0.89590  0.68230  Biso   1.000  N
  N2       1.0000 0.41070  0.89640  0.31710  Biso   1.000  N
  C1       1.0000 0.35740  0.83710  0.20980  Biso   1.000  C
  C2       1.0000 0.47950  0.83710  0.79070  Biso   1.000  C
  N3       1.0000 0.62540  0.01480  0.38210  Biso   1.000  N
  C3       1.0000 0.70560  0.11110  0.34500  Biso   1.000  C
  H1       1.0000 0.69890  0.16730  0.36920  Biso   1.000  H
  C4       1.0000 0.79580  0.12350  0.27190  Biso   1.000  C
  H2       1.0000 0.84940  0.18790  0.24710  Biso   1.000  H
  C5       1.0000 0.80580  0.03950  0.23580  Biso   1.000  C
  H3       1.0000 0.86610  0.04770  0.18680  Biso   1.000  H
  C6       1.0000 0.72560  0.94310  0.27290  Biso   1.000  C
  C7       1.0000 0.63540  0.93080  0.34600  Biso   1.000  C
  H4       1.0000 0.58180  0.86630  0.37080  Biso   1.000  H
  C8       1.0000 0.73970  0.86090  0.24230  Biso   1.000  C
  N4       1.0000 0.75300  0.79390  0.21520  Biso   1.000  N
  N5       1.0000 0.61020  0.98460  0.38250  Biso   1.000  N
  C9       1.0000 0.70410  0.06880  0.34700  Biso   1.000  C
  H5       1.0000 0.71460  0.13320  0.37180  Biso   1.000  H
  C10      1.0000 0.78240  0.05690  0.27440  Biso   1.000  C
  C11      1.0000 0.76670  0.96080  0.23730  Biso   1.000  C
  H6       1.0000 0.81900  0.95280  0.18870  Biso   1.000  H
  C12      1.0000 0.67280  0.87650  0.27280  Biso   1.000  C
  H7       1.0000 0.66230  0.81220  0.24800  Biso   1.000  H
  C13      1.0000 0.59460  0.88840  0.34540  Biso   1.000  C
  H8       1.0000 0.53170  0.83200  0.36920  Biso   1.000  H
  C14      1.0000 0.87980  0.13990  0.24030  Biso   1.000  C
  N6       1.0000 0.96040  0.20660  0.21710  Biso   1.000  N
  Ag2      1.0000 0.26446  0.52892  0.99999  Biso   1.000  Ag
  N7       1.0000 0.10410  0.58960  0.68230  Biso   1.000  N
  N8       1.0000 0.10360  0.51430  0.31710  Biso   1.000  N
  C15      1.0000 0.16290  0.52030  0.20980  Biso   1.000  C
  C16      1.0000 0.16290  0.64240  0.79070  Biso   1.000  C
  N9       1.0000 0.98520  0.61060  0.38210  Biso   1.000  N
  C17      1.0000 0.88890  0.59450  0.34500  Biso   1.000  C
  H9       1.0000 0.83270  0.53160  0.36920  Biso   1.000  H
  C18      1.0000 0.87650  0.67230  0.27190  Biso   1.000  C
  H10      1.0000 0.81210  0.66150  0.24710  Biso   1.000  H
  C19      1.0000 0.96050  0.76630  0.23580  Biso   1.000  C
  H11      1.0000 0.95230  0.81840  0.18680  Biso   1.000  H
  C20      1.0000 0.05690  0.78250  0.27290  Biso   1.000  C
  C21      1.0000 0.06920  0.70460  0.34600  Biso   1.000  C
  H12      1.0000 0.13370  0.71550  0.37080  Biso   1.000  H
  C22      1.0000 0.13910  0.87880  0.24230  Biso   1.000  C
  N10      1.0000 0.20610  0.95910  0.21520  Biso   1.000  N
  N11      1.0000 0.01540  0.62560  0.38250  Biso   1.000  N
  C23      1.0000 0.93120  0.63530  0.34700  Biso   1.000  C
  H13      1.0000 0.86680  0.58140  0.37180  Biso   1.000  H
  C24      1.0000 0.94310  0.72550  0.27440  Biso   1.000  C
  C25      1.0000 0.03920  0.80590  0.23730  Biso   1.000  C
  H14      1.0000 0.04720  0.86620  0.18870  Biso   1.000  H
  C26      1.0000 0.12350  0.79630  0.27280  Biso   1.000  C
  H15      1.0000 0.18780  0.85010  0.24800  Biso   1.000  H
  C27      1.0000 0.11160  0.70620  0.34540  Biso   1.000  C
  H16      1.0000 0.16800  0.69970  0.36920  Biso   1.000  H
  C28      1.0000 0.86010  0.73990  0.24030  Biso   1.000  C
  N12      1.0000 0.79340  0.75380  0.21710  Biso   1.000  N
  Ag3      1.0000 0.47108  0.73554  0.99999  Biso   1.000  Ag
  N13      1.0000 0.41040  0.51450  0.68230  Biso   1.000  N
  N14      1.0000 0.48570  0.58930  0.31710  Biso   1.000  N
  C29      1.0000 0.47970  0.64260  0.20980  Biso   1.000  C
  C30      1.0000 0.35760  0.52050  0.79070  Biso   1.000  C
  N15      1.0000 0.38940  0.37460  0.38210  Biso   1.000  N
  C31      1.0000 0.40550  0.29440  0.34500  Biso   1.000  C
  H17      1.0000 0.46840  0.30110  0.36920  Biso   1.000  H
  C32      1.0000 0.32770  0.20420  0.27190  Biso   1.000  C
  H18      1.0000 0.33850  0.15060  0.24710  Biso   1.000  H
  C33      1.0000 0.23370  0.19420  0.23580  Biso   1.000  C
  H19      1.0000 0.18160  0.13390  0.18680  Biso   1.000  H
  C34      1.0000 0.21750  0.27440  0.27290  Biso   1.000  C
  C35      1.0000 0.29540  0.36460  0.34600  Biso   1.000  C
  H20      1.0000 0.28450  0.41820  0.37080  Biso   1.000  H
  C36      1.0000 0.12120  0.26030  0.24230  Biso   1.000  C
  N16      1.0000 0.04090  0.24700  0.21520  Biso   1.000  N
  N17      1.0000 0.37440  0.38980  0.38250  Biso   1.000  N
  C37      1.0000 0.36470  0.29590  0.34700  Biso   1.000  C
  H21      1.0000 0.41860  0.28540  0.37180  Biso   1.000  H
  C38      1.0000 0.27450  0.21760  0.27440  Biso   1.000  C
  C39      1.0000 0.19410  0.23330  0.23730  Biso   1.000  C
  H22      1.0000 0.13380  0.18100  0.18870  Biso   1.000  H
  C40      1.0000 0.20370  0.32720  0.27280  Biso   1.000  C
  H23      1.0000 0.14990  0.33770  0.24800  Biso   1.000  H
  C41      1.0000 0.29380  0.40540  0.34540  Biso   1.000  C
  H24      1.0000 0.30030  0.46830  0.36920  Biso   1.000  H
  C42      1.0000 0.26010  0.12020  0.24030  Biso   1.000  C
  N18      1.0000 0.24620  0.03960  0.21710  Biso   1.000  N
  Ag4      1.0000 0.73554  0.26446  0.00001  Biso   1.000  Ag
  N19      1.0000 0.51450  0.10410  0.31770  Biso   1.000  N
  N20      1.0000 0.58930  0.10360  0.68290  Biso   1.000  N
  C43      1.0000 0.64260  0.16290  0.79020  Biso   1.000  C
  C44      1.0000 0.52050  0.16290  0.20930  Biso   1.000  C
  N21      1.0000 0.37460  0.98520  0.61790  Biso   1.000  N
  C45      1.0000 0.29440  0.88890  0.65500  Biso   1.000  C
  H25      1.0000 0.30110  0.83270  0.63080  Biso   1.000  H
  C46      1.0000 0.20420  0.87650  0.72810  Biso   1.000  C
  H26      1.0000 0.15060  0.81210  0.75290  Biso   1.000  H
  C47      1.0000 0.19420  0.96050  0.76420  Biso   1.000  C
  H27      1.0000 0.13390  0.95230  0.81320  Biso   1.000  H
  C48      1.0000 0.27440  0.05690  0.72710  Biso   1.000  C
  C49      1.0000 0.36460  0.06920  0.65400  Biso   1.000  C
  H28      1.0000 0.41820  0.13370  0.62920  Biso   1.000  H
  C50      1.0000 0.26030  0.13910  0.75770  Biso   1.000  C
  N22      1.0000 0.24700  0.20610  0.78480  Biso   1.000  N
  N23      1.0000 0.38980  0.01540  0.61750  Biso   1.000  N
  C51      1.0000 0.29590  0.93120  0.65300  Biso   1.000  C
  H29      1.0000 0.28540  0.86680  0.62820  Biso   1.000  H
  C52      1.0000 0.21760  0.94310  0.72560  Biso   1.000  C
  C53      1.0000 0.23330  0.03920  0.76270  Biso   1.000  C
  H30      1.0000 0.18100  0.04720  0.81130  Biso   1.000  H
  C54      1.0000 0.32720  0.12350  0.72720  Biso   1.000  C
  H31      1.0000 0.33770  0.18780  0.75200  Biso   1.000  H
  C55      1.0000 0.40540  0.11160  0.65460  Biso   1.000  C
  H32      1.0000 0.46830  0.16800  0.63080  Biso   1.000  H
  C56      1.0000 0.12020  0.86010  0.75970  Biso   1.000  C
  N24      1.0000 0.03960  0.79340  0.78290  Biso   1.000  N
  Ag5      1.0000 0.73554  0.47108  0.00001  Biso   1.000  Ag
  N25      1.0000 0.89590  0.41040  0.31770  Biso   1.000  N
  N26      1.0000 0.89640  0.48570  0.68290  Biso   1.000  N
  C57      1.0000 0.83710  0.47970  0.79020  Biso   1.000  C
  C58      1.0000 0.83710  0.35760  0.20930  Biso   1.000  C
  N27      1.0000 0.01480  0.38940  0.61790  Biso   1.000  N
  C59      1.0000 0.11110  0.40550  0.65500  Biso   1.000  C
  H33      1.0000 0.16730  0.46840  0.63080  Biso   1.000  H
  C60      1.0000 0.12350  0.32770  0.72810  Biso   1.000  C
  H34      1.0000 0.18790  0.33850  0.75290  Biso   1.000  H
  C61      1.0000 0.03950  0.23370  0.76420  Biso   1.000  C
  H35      1.0000 0.04770  0.18160  0.81320  Biso   1.000  H
  C62      1.0000 0.94310  0.21750  0.72710  Biso   1.000  C
  C63      1.0000 0.93080  0.29540  0.65400  Biso   1.000  C
  H36      1.0000 0.86630  0.28450  0.62920  Biso   1.000  H
  C64      1.0000 0.86090  0.12120  0.75770  Biso   1.000  C
  N28      1.0000 0.79390  0.04090  0.78480  Biso   1.000  N
  N29      1.0000 0.98460  0.37440  0.61750  Biso   1.000  N
  C65      1.0000 0.06880  0.36470  0.65300  Biso   1.000  C
  H37      1.0000 0.13320  0.41860  0.62820  Biso   1.000  H
  C66      1.0000 0.05690  0.27450  0.72560  Biso   1.000  C
  C67      1.0000 0.96080  0.19410  0.76270  Biso   1.000  C
  H38      1.0000 0.95280  0.13380  0.81130  Biso   1.000  H
  C68      1.0000 0.87650  0.20370  0.72720  Biso   1.000  C
  H39      1.0000 0.81220  0.14990  0.75200  Biso   1.000  H
  C69      1.0000 0.88840  0.29380  0.65460  Biso   1.000  C
  H40      1.0000 0.83200  0.30030  0.63080  Biso   1.000  H
  C70      1.0000 0.13990  0.26010  0.75970  Biso   1.000  C
  N30      1.0000 0.20660  0.24620  0.78290  Biso   1.000  N
  Ag6      1.0000 0.52892  0.26446  0.00001  Biso   1.000  Ag
  N31      1.0000 0.58960  0.48550  0.31770  Biso   1.000  N
  N32      1.0000 0.51430  0.41070  0.68290  Biso   1.000  N
  C71      1.0000 0.52030  0.35740  0.79020  Biso   1.000  C
  C72      1.0000 0.64240  0.47950  0.20930  Biso   1.000  C
  N33      1.0000 0.61060  0.62540  0.61790  Biso   1.000  N
  C73      1.0000 0.59450  0.70560  0.65500  Biso   1.000  C
  H41      1.0000 0.53160  0.69890  0.63080  Biso   1.000  H
  C74      1.0000 0.67230  0.79580  0.72810  Biso   1.000  C
  H42      1.0000 0.66150  0.84940  0.75290  Biso   1.000  H
  C75      1.0000 0.76630  0.80580  0.76420  Biso   1.000  C
  H43      1.0000 0.81840  0.86610  0.81320  Biso   1.000  H
  C76      1.0000 0.78250  0.72560  0.72710  Biso   1.000  C
  C77      1.0000 0.70460  0.63540  0.65400  Biso   1.000  C
  H44      1.0000 0.71550  0.58180  0.62920  Biso   1.000  H
  C78      1.0000 0.87880  0.73970  0.75770  Biso   1.000  C
  N34      1.0000 0.95910  0.75300  0.78480  Biso   1.000  N
  N35      1.0000 0.62560  0.61020  0.61750  Biso   1.000  N
  C79      1.0000 0.63530  0.70410  0.65300  Biso   1.000  C
  H45      1.0000 0.58140  0.71460  0.62820  Biso   1.000  H
  C80      1.0000 0.72550  0.78240  0.72560  Biso   1.000  C
  C81      1.0000 0.80590  0.76670  0.76270  Biso   1.000  C
  H46      1.0000 0.86620  0.81900  0.81130  Biso   1.000  H
  C82      1.0000 0.79630  0.67280  0.72720  Biso   1.000  C
  H47      1.0000 0.85010  0.66230  0.75200  Biso   1.000  H
  C83      1.0000 0.70620  0.59460  0.65460  Biso   1.000  C
  H48      1.0000 0.69970  0.53170  0.63080  Biso   1.000  H
  C84      1.0000 0.73990  0.87980  0.75970  Biso   1.000  C
  N36      1.0000 0.75380  0.96040  0.78290  Biso   1.000  N
  Fe1      1.0000 0.50000  0.00000  0.50000  Biso   1.000  Fe
  Fe2      1.0000 0.00000  0.50000  0.50000  Biso   1.000  Fe
  Fe3      1.0000 0.50000  0.50000  0.50000  Biso   1.000  Fe
