data_image0
_cell_length_a       8.265
_cell_length_b       8.265
_cell_length_c       15.512
_cell_angle_alpha    90
_cell_angle_beta     90
_cell_angle_gamma    90

_symmetry_space_group_name_H-M    "P 1"
_symmetry_int_tables_number       1

loop_
  _symmetry_equiv_pos_as_xyz
  'x, y, z'

loop_
  _atom_site_label
  _atom_site_occupancy
  _atom_site_fract_x
  _atom_site_fract_y
  _atom_site_fract_z
  _atom_site_thermal_displace_type
  _atom_site_B_iso_or_equiv
  _atom_site_type_symbol
  C1       1.0000 0.49900  0.29130  0.15970  Biso   1.000  C
  N1       1.0000 0.52000  0.19620  0.10770  Biso   1.000  N
  N2       1.0000 0.21880  0.05900  0.01630  Biso   1.000  N
  H1       1.0000 0.21037  0.17509  0.98435  Biso   1.000  H
  H2       1.0000 0.21037  0.07763  0.08507  Biso   1.000  H
  H3       1.0000 0.09931  0.88550  0.03229  Biso   1.000  H
  H4       1.0000 0.09931  0.98296  0.93158  Biso   1.000  H
  C2       1.0000 0.50100  0.70870  0.15970  Biso   1.000  C
  N3       1.0000 0.48000  0.80380  0.10770  Biso   1.000  N
  N4       1.0000 0.78120  0.94100  0.01630  Biso   1.000  N
  H5       1.0000 0.78963  0.82491  0.98435  Biso   1.000  H
  H6       1.0000 0.78963  0.92237  0.08507  Biso   1.000  H
  H7       1.0000 0.90069  0.11450  0.03229  Biso   1.000  H
  H8       1.0000 0.90069  0.01704  0.93158  Biso   1.000  H
  C3       1.0000 0.70870  0.49900  0.65970  Biso   1.000  C
  N5       1.0000 0.80380  0.52000  0.60770  Biso   1.000  N
  N6       1.0000 0.94100  0.21880  0.51630  Biso   1.000  N
  H9       1.0000 0.82491  0.21037  0.48435  Biso   1.000  H
  H10      1.0000 0.92237  0.21037  0.58507  Biso   1.000  H
  H11      1.0000 0.11450  0.09931  0.53229  Biso   1.000  H
  H12      1.0000 0.01704  0.09931  0.43158  Biso   1.000  H
  C4       1.0000 0.29130  0.50100  0.65970  Biso   1.000  C
  N7       1.0000 0.19620  0.48000  0.60770  Biso   1.000  N
  N8       1.0000 0.05900  0.78120  0.51630  Biso   1.000  N
  H13      1.0000 0.17509  0.78963  0.48435  Biso   1.000  H
  H14      1.0000 0.07763  0.78963  0.58507  Biso   1.000  H
  H15      1.0000 0.88550  0.90069  0.53229  Biso   1.000  H
  H16      1.0000 0.98296  0.90069  0.43158  Biso   1.000  H
  C5       1.0000 0.50100  0.29130  0.84030  Biso   1.000  C
  N9       1.0000 0.48000  0.19620  0.89230  Biso   1.000  N
  N10      1.0000 0.78120  0.05900  0.98370  Biso   1.000  N
  H17      1.0000 0.78963  0.17509  0.01565  Biso   1.000  H
  H18      1.0000 0.78963  0.07763  0.91493  Biso   1.000  H
  H19      1.0000 0.90069  0.88550  0.96771  Biso   1.000  H
  H20      1.0000 0.90069  0.98296  0.06842  Biso   1.000  H
  C6       1.0000 0.49900  0.70870  0.84030  Biso   1.000  C
  N11      1.0000 0.52000  0.80380  0.89230  Biso   1.000  N
  N12      1.0000 0.21880  0.94100  0.98370  Biso   1.000  N
  H21      1.0000 0.21037  0.82491  0.01565  Biso   1.000  H
  H22      1.0000 0.21037  0.92237  0.91493  Biso   1.000  H
  H23      1.0000 0.09931  0.11450  0.96771  Biso   1.000  H
  H24      1.0000 0.09931  0.01704  0.06842  Biso   1.000  H
  C7       1.0000 0.29130  0.49900  0.34030  Biso   1.000  C
  N13      1.0000 0.19620  0.52000  0.39230  Biso   1.000  N
  N14      1.0000 0.05900  0.21880  0.48370  Biso   1.000  N
  H25      1.0000 0.17509  0.21037  0.51565  Biso   1.000  H
  H26      1.0000 0.07763  0.21037  0.41493  Biso   1.000  H
  H27      1.0000 0.88550  0.09931  0.46771  Biso   1.000  H
  H28      1.0000 0.98296  0.09931  0.56842  Biso   1.000  H
  C8       1.0000 0.70870  0.50100  0.34030  Biso   1.000  C
  N15      1.0000 0.80380  0.48000  0.39230  Biso   1.000  N
  N16      1.0000 0.94100  0.78120  0.48370  Biso   1.000  N
  H29      1.0000 0.82491  0.78963  0.51565  Biso   1.000  H
  H30      1.0000 0.92237  0.78963  0.41493  Biso   1.000  H
  H31      1.0000 0.11450  0.90069  0.46771  Biso   1.000  H
  H32      1.0000 0.01704  0.90069  0.56842  Biso   1.000  H
  Cd1      1.0000 0.50000  0.50000  0.25000  Biso   1.000  Cd
  Cd2      1.0000 0.50000  0.50000  0.75000  Biso   1.000  Cd
  Cd3      1.0000 0.50000  0.00000  0.00000  Biso   1.000  Cd
  Cd4      1.0000 0.00000  0.50000  0.50000  Biso   1.000  Cd
  C9       1.0000 0.08220  0.00000  0.00000  Biso   1.000  C
  C10      1.0000 0.91780  0.00000  0.00000  Biso   1.000  C
  C11      1.0000 0.00000  0.08220  0.50000  Biso   1.000  C
  C12      1.0000 0.00000  0.91780  0.50000  Biso   1.000  C
