data_image0
_cell_length_a       8.262
_cell_length_b       8.262
_cell_length_c       15.495
_cell_angle_alpha    90
_cell_angle_beta     90
_cell_angle_gamma    90

_symmetry_space_group_name_H-M    "P 1"
_symmetry_int_tables_number       1

loop_
  _symmetry_equiv_pos_as_xyz
  'x, y, z'

loop_
  _atom_site_label
  _atom_site_occupancy
  _atom_site_fract_x
  _atom_site_fract_y
  _atom_site_fract_z
  _atom_site_thermal_displace_type
  _atom_site_B_iso_or_equiv
  _atom_site_type_symbol
  Cd1      1.0000 0.50000  0.50000  0.25000  Biso   1.000  Cd
  Cd2      1.0000 0.50000  0.50000  0.75000  Biso   1.000  Cd
  Cd3      1.0000 0.50000  0.00000  0.00000  Biso   1.000  Cd
  Cd4      1.0000 0.00000  0.50000  0.50000  Biso   1.000  Cd
  C1       1.0000 0.50000  0.28100  0.16100  Biso   1.000  C
  N1       1.0000 0.50000  0.19600  0.10900  Biso   1.000  N
  C2       1.0000 0.50000  0.71900  0.16100  Biso   1.000  C
  N2       1.0000 0.50000  0.80400  0.10900  Biso   1.000  N
  C3       1.0000 0.71900  0.50000  0.66100  Biso   1.000  C
  N3       1.0000 0.80400  0.50000  0.60900  Biso   1.000  N
  C4       1.0000 0.28100  0.50000  0.66100  Biso   1.000  C
  N4       1.0000 0.19600  0.50000  0.60900  Biso   1.000  N
  C5       1.0000 0.50000  0.28100  0.83900  Biso   1.000  C
  N5       1.0000 0.50000  0.19600  0.89100  Biso   1.000  N
  C6       1.0000 0.50000  0.71900  0.83900  Biso   1.000  C
  N6       1.0000 0.50000  0.80400  0.89100  Biso   1.000  N
  C7       1.0000 0.28100  0.50000  0.33900  Biso   1.000  C
  N7       1.0000 0.19600  0.50000  0.39100  Biso   1.000  N
  C8       1.0000 0.71900  0.50000  0.33900  Biso   1.000  C
  N8       1.0000 0.80400  0.50000  0.39100  Biso   1.000  N
  C9       1.0000 0.10100  0.03200  0.00000  Biso   1.000  C
  N9       1.0000 0.21500  0.05900  0.00000  Biso   1.000  N
  C10      1.0000 0.89900  0.96800  0.00000  Biso   1.000  C
  N10      1.0000 0.78500  0.94100  0.00000  Biso   1.000  N
  C11      1.0000 0.96800  0.10100  0.50000  Biso   1.000  C
  N11      1.0000 0.94100  0.21500  0.50000  Biso   1.000  N
  C12      1.0000 0.03200  0.89900  0.50000  Biso   1.000  C
  N12      1.0000 0.05900  0.78500  0.50000  Biso   1.000  N
  C13      1.0000 0.89900  0.03200  0.00000  Biso   1.000  C
  N13      1.0000 0.78500  0.05900  0.00000  Biso   1.000  N
  C14      1.0000 0.10100  0.96800  0.00000  Biso   1.000  C
  N14      1.0000 0.21500  0.94100  0.00000  Biso   1.000  N
  C15      1.0000 0.03200  0.10100  0.50000  Biso   1.000  C
  N15      1.0000 0.05900  0.21500  0.50000  Biso   1.000  N
  C16      1.0000 0.96800  0.89900  0.50000  Biso   1.000  C
  N16      1.0000 0.94100  0.78500  0.50000  Biso   1.000  N
