data_image0
_cell_length_a       7.675
_cell_length_b       7.675
_cell_length_c       8.056
_cell_angle_alpha    90
_cell_angle_beta     90
_cell_angle_gamma    90

_symmetry_space_group_name_H-M    "P 1"
_symmetry_int_tables_number       1

loop_
  _symmetry_equiv_pos_as_xyz
  'x, y, z'

loop_
  _atom_site_label
  _atom_site_occupancy
  _atom_site_fract_x
  _atom_site_fract_y
  _atom_site_fract_z
  _atom_site_thermal_displace_type
  _atom_site_B_iso_or_equiv
  _atom_site_type_symbol
  Cd1      1.0000 0.00000  0.00000  0.00000  Biso   1.000  Cd
  Ni1      1.0000 0.50000  0.50000  0.00000  Biso   1.000  Ni
  N1       1.0000 0.22110  0.22110  0.00000  Biso   1.000  N
  C1       1.0000 0.32830  0.32830  0.00000  Biso   1.000  C
  N2       1.0000 0.77890  0.77890  0.00000  Biso   1.000  N
  C2       1.0000 0.67170  0.67170  0.00000  Biso   1.000  C
  N3       1.0000 0.77890  0.22110  0.00000  Biso   1.000  N
  C3       1.0000 0.67170  0.32830  0.00000  Biso   1.000  C
  N4       1.0000 0.22110  0.77890  0.00000  Biso   1.000  N
  C4       1.0000 0.32830  0.67170  0.00000  Biso   1.000  C
  C5       1.0000 0.00000  0.00000  0.41590  Biso   1.000  C
  C6       1.0000 0.00000  0.00000  0.58410  Biso   1.000  C
  N5       1.0000 0.00000  0.07400  0.27400  Biso   1.000  N
  N6       1.0000 0.00000  0.92600  0.27400  Biso   1.000  N
  N7       1.0000 0.92600  0.00000  0.27400  Biso   1.000  N
  N8       1.0000 0.07400  0.00000  0.27400  Biso   1.000  N
  N9       1.0000 0.00000  0.07400  0.72600  Biso   1.000  N
  N10      1.0000 0.00000  0.92600  0.72600  Biso   1.000  N
  N11      1.0000 0.07400  0.00000  0.72600  Biso   1.000  N
  N12      1.0000 0.92600  0.00000  0.72600  Biso   1.000  N
