data_image0
_cell_length_a       6.8096
_cell_length_b       12.27
_cell_length_c       14.134
_cell_angle_alpha    84.323
_cell_angle_beta     78.295
_cell_angle_gamma    79.696

_symmetry_space_group_name_H-M    "P 1"
_symmetry_int_tables_number       1

loop_
  _symmetry_equiv_pos_as_xyz
  'x, y, z'

loop_
  _atom_site_label
  _atom_site_occupancy
  _atom_site_fract_x
  _atom_site_fract_y
  _atom_site_fract_z
  _atom_site_thermal_displace_type
  _atom_site_B_iso_or_equiv
  _atom_site_type_symbol
  Zn1      1.0000 0.37202  0.26792  0.69083  Biso   1.000  Zn
  N1       1.0000 0.23670  0.17520  0.61430  Biso   1.000  N
  N2       1.0000 0.58500  0.35930  0.60970  Biso   1.000  N
  O1       1.0000 0.54000  0.15100  0.75700  Biso   1.000  O
  O2       1.0000 0.16090  0.38270  0.75360  Biso   1.000  O
  C1       1.0000 0.33470  0.12850  0.52840  Biso   1.000  C
  C2       1.0000 0.05700  0.14840  0.65190  Biso   1.000  C
  C3       1.0000 0.71540  0.32010  0.53050  Biso   1.000  C
  C4       1.0000 0.62510  0.44250  0.65090  Biso   1.000  C
  C5       1.0000 0.05870  0.34250  0.83260  Biso   1.000  C
  H1       1.0000 0.46610  0.14290  0.50110  Biso   1.000  H
  C6       1.0000 0.24710  0.06100  0.48050  Biso   1.000  C
  C7       1.0000 0.95890  0.08020  0.61060  Biso   1.000  C
  H2       1.0000 0.98970  0.17760  0.71110  Biso   1.000  H
  H3       1.0000 0.69630  0.25540  0.50540  Biso   1.000  H
  C8       1.0000 0.87810  0.37330  0.48480  Biso   1.000  C
  C9       1.0000 0.78590  0.49900  0.61040  Biso   1.000  C
  H4       1.0000 0.54220  0.46460  0.70970  Biso   1.000  H
  C10      1.0000 0.91420  0.42580  0.89540  Biso   1.000  C
  O3       1.0000 0.07140  0.24280  0.85780  Biso   1.000  O
  H5       1.0000 0.31580  0.03240  0.42130  Biso   1.000  H
  C11      1.0000 0.04990  0.03680  0.52420  Biso   1.000  C
  H6       1.0000 0.83080  0.06420  0.64210  Biso   1.000  H
  H7       1.0000 0.96560  0.34490  0.42920  Biso   1.000  H
  C12      1.0000 0.91140  0.47150  0.52290  Biso   1.000  C
  H8       1.0000 0.80970  0.55690  0.64320  Biso   1.000  H
  C13      1.0000 0.80140  0.39940  0.98860  Biso   1.000  C
  C14      1.0000 0.87670  0.54400  0.87920  Biso   1.000  C
  H9       1.0000 0.79660  0.32740  0.01780  Biso   1.000  H
  C15      1.0000 0.69740  0.49930  0.03020  Biso   1.000  C
  C16      1.0000 0.74150  0.58750  0.96290  Biso   1.000  C
  H10      1.0000 0.93120  0.58540  0.82360  Biso   1.000  H
  H11      1.0000 0.61390  0.50530  0.09180  Biso   1.000  H
  H12      1.0000 0.69050  0.66300  0.97140  Biso   1.000  H
  C17      1.0000 0.42040  0.81750  0.16330  Biso   1.000  C
  C18      1.0000 0.32770  0.90900  0.10020  Biso   1.000  C
  O4       1.0000 0.45810  0.72090  0.13890  Biso   1.000  O
  C19      1.0000 0.27260  0.02500  0.11720  Biso   1.000  C
  C20      1.0000 0.29690  0.89710  0.00570  Biso   1.000  C
  H13      1.0000 0.27760  0.05800  0.17380  Biso   1.000  H
  C21      1.0000 0.20880  0.08100  0.03240  Biso   1.000  C
  C22      1.0000 0.22530  0.00190  0.96440  Biso   1.000  C
  H14      1.0000 0.32050  0.82980  0.97550  Biso   1.000  H
  H15      1.0000 0.16350  0.15760  0.02350  Biso   1.000  H
  H16      1.0000 0.19400  0.01660  0.90210  Biso   1.000  H
  C23      1.0000 0.25100  0.17940  0.52230  Biso   1.000  C
  H17      1.0000 0.32590  0.23130  0.48490  Biso   1.000  H
  C24      1.0000 0.16300  0.11150  0.47280  Biso   1.000  C
  H18      1.0000 0.18270  0.11790  0.40490  Biso   1.000  H
  C25      1.0000 0.01020  0.04150  0.62550  Biso   1.000  C
  H19      1.0000 0.91830  0.99910  0.66440  Biso   1.000  H
  C26      1.0000 0.10700  0.10840  0.66770  Biso   1.000  C
  H20      1.0000 0.08260  0.10830  0.73560  Biso   1.000  H
  C27      1.0000 0.64390  0.37160  0.51360  Biso   1.000  C
  H21      1.0000 0.57510  0.33950  0.47500  Biso   1.000  H
  C28      1.0000 0.80050  0.42870  0.46620  Biso   1.000  C
  H22      1.0000 0.83030  0.43800  0.39820  Biso   1.000  H
  C29      1.0000 0.84370  0.47230  0.62050  Biso   1.000  C
  H23      1.0000 0.90050  0.51180  0.65890  Biso   1.000  H
  C30      1.0000 0.68800  0.41280  0.66180  Biso   1.000  C
  H24      1.0000 0.64930  0.40860  0.72960  Biso   1.000  H
  Zn2      1.0000 0.62798  0.73208  0.30917  Biso   1.000  Zn
  N3       1.0000 0.76330  0.82480  0.38570  Biso   1.000  N
  N4       1.0000 0.41500  0.64070  0.39030  Biso   1.000  N
  O5       1.0000 0.46000  0.84900  0.24300  Biso   1.000  O
  O6       1.0000 0.83910  0.61730  0.24640  Biso   1.000  O
  C31      1.0000 0.66530  0.87150  0.47160  Biso   1.000  C
  C32      1.0000 0.94300  0.85160  0.34810  Biso   1.000  C
  C33      1.0000 0.28460  0.67990  0.46950  Biso   1.000  C
  C34      1.0000 0.37490  0.55750  0.34910  Biso   1.000  C
  C35      1.0000 0.94130  0.65750  0.16740  Biso   1.000  C
  H25      1.0000 0.53390  0.85710  0.49890  Biso   1.000  H
  C36      1.0000 0.75290  0.93900  0.51950  Biso   1.000  C
  C37      1.0000 0.04110  0.91980  0.38940  Biso   1.000  C
  H26      1.0000 0.01030  0.82240  0.28890  Biso   1.000  H
  H27      1.0000 0.30370  0.74460  0.49460  Biso   1.000  H
  C38      1.0000 0.12190  0.62670  0.51520  Biso   1.000  C
  C39      1.0000 0.21410  0.50100  0.38960  Biso   1.000  C
  H28      1.0000 0.45780  0.53540  0.29030  Biso   1.000  H
  C40      1.0000 0.08580  0.57420  0.10460  Biso   1.000  C
  O7       1.0000 0.92860  0.75720  0.14220  Biso   1.000  O
  H29      1.0000 0.68420  0.96760  0.57870  Biso   1.000  H
  C41      1.0000 0.95010  0.96320  0.47580  Biso   1.000  C
  H30      1.0000 0.16920  0.93580  0.35790  Biso   1.000  H
  H31      1.0000 0.03440  0.65510  0.57080  Biso   1.000  H
  C42      1.0000 0.08860  0.52850  0.47710  Biso   1.000  C
  H32      1.0000 0.19030  0.44310  0.35680  Biso   1.000  H
  C43      1.0000 0.19860  0.60060  0.01140  Biso   1.000  C
  C44      1.0000 0.12330  0.45600  0.12080  Biso   1.000  C
  H33      1.0000 0.20340  0.67260  0.98220  Biso   1.000  H
  C45      1.0000 0.30260  0.50070  0.96980  Biso   1.000  C
  C46      1.0000 0.25850  0.41250  0.03710  Biso   1.000  C
  H34      1.0000 0.06880  0.41460  0.17640  Biso   1.000  H
  H35      1.0000 0.38610  0.49470  0.90820  Biso   1.000  H
  H36      1.0000 0.30950  0.33700  0.02860  Biso   1.000  H
  C47      1.0000 0.57960  0.18250  0.83670  Biso   1.000  C
  C48      1.0000 0.67230  0.09100  0.89980  Biso   1.000  C
  O8       1.0000 0.54190  0.27910  0.86110  Biso   1.000  O
  C49      1.0000 0.72740  0.97500  0.88280  Biso   1.000  C
  C50      1.0000 0.70310  0.10290  0.99430  Biso   1.000  C
  H37      1.0000 0.72240  0.94200  0.82620  Biso   1.000  H
  C51      1.0000 0.79120  0.91900  0.96760  Biso   1.000  C
  C52      1.0000 0.77470  0.99810  0.03560  Biso   1.000  C
  H38      1.0000 0.67950  0.17020  0.02450  Biso   1.000  H
  H39      1.0000 0.83650  0.84240  0.97650  Biso   1.000  H
  H40      1.0000 0.80600  0.98340  0.09790  Biso   1.000  H
  C53      1.0000 0.74900  0.82060  0.47770  Biso   1.000  C
  H41      1.0000 0.67410  0.76870  0.51510  Biso   1.000  H
  C54      1.0000 0.83700  0.88850  0.52720  Biso   1.000  C
  H42      1.0000 0.81730  0.88210  0.59510  Biso   1.000  H
  C55      1.0000 0.98980  0.95850  0.37450  Biso   1.000  C
  H43      1.0000 0.08170  0.00090  0.33560  Biso   1.000  H
  C56      1.0000 0.89300  0.89160  0.33230  Biso   1.000  C
  H44      1.0000 0.91740  0.89170  0.26440  Biso   1.000  H
  C57      1.0000 0.35610  0.62840  0.48640  Biso   1.000  C
  H45      1.0000 0.42490  0.66050  0.52500  Biso   1.000  H
  C58      1.0000 0.19950  0.57130  0.53380  Biso   1.000  C
  H46      1.0000 0.16970  0.56200  0.60180  Biso   1.000  H
  C59      1.0000 0.15630  0.52770  0.37950  Biso   1.000  C
  H47      1.0000 0.09950  0.48820  0.34110  Biso   1.000  H
  C60      1.0000 0.31200  0.58720  0.33820  Biso   1.000  C
  H48      1.0000 0.35070  0.59140  0.27040  Biso   1.000  H
  Co1      1.0000 0.00000  0.50000  0.00000  Biso   1.000  Co
  Co2      1.0000 0.50000  0.00000  0.00000  Biso   1.000  Co
