data_image0
_cell_length_a       23.31
_cell_length_b       15.3407
_cell_length_c       23.684
_cell_angle_alpha    90
_cell_angle_beta     113.845
_cell_angle_gamma    90

_symmetry_space_group_name_H-M    "P 1"
_symmetry_int_tables_number       1

loop_
  _symmetry_equiv_pos_as_xyz
  'x, y, z'

loop_
  _atom_site_label
  _atom_site_occupancy
  _atom_site_fract_x
  _atom_site_fract_y
  _atom_site_fract_z
  _atom_site_thermal_displace_type
  _atom_site_B_iso_or_equiv
  _atom_site_type_symbol
  O1       1.0000 0.34730  0.78450  0.58700  Biso   1.000  O
  Zn1      1.0000 0.34135  0.82552  0.50787  Biso   1.000  Zn
  Zn2      1.0000 0.39112  0.87092  0.64768  Biso   1.000  Zn
  Zn3      1.0000 0.83008  0.79245  0.00899  Biso   1.000  Zn
  Zn4      1.0000 0.39979  0.67299  0.60785  Biso   1.000  Zn
  Zn5      1.0000 0.26504  0.76562  0.58576  Biso   1.000  Zn
  O2       1.0000 0.81170  0.88120  0.94540  Biso   1.000  O
  C1       1.0000 0.77970  0.87580  0.89130  Biso   1.000  C
  H1       1.0000 0.76710  0.81650  0.88480  Biso   1.000  H
  N1       1.0000 0.75380  0.91170  0.83730  Biso   1.000  N
  C2       1.0000 0.79180  0.99500  0.84200  Biso   1.000  C
  H2       1.0000 0.77460  0.02560  0.80240  Biso   1.000  H
  H3       1.0000 0.83560  0.97940  0.85210  Biso   1.000  H
  H4       1.0000 0.78930  0.03230  0.87440  Biso   1.000  H
  C3       1.0000 0.72030  0.88500  0.77760  Biso   1.000  C
  H5       1.0000 0.70920  0.93650  0.75040  Biso   1.000  H
  H6       1.0000 0.68190  0.85590  0.77470  Biso   1.000  H
  H7       1.0000 0.74570  0.84530  0.76520  Biso   1.000  H
  O3       1.0000 0.54990  0.24060  0.44060  Biso   1.000  O
  O4       1.0000 0.61690  0.26400  0.53810  Biso   1.000  O
  O5       1.0000 0.41760  0.97390  0.61380  Biso   1.000  O
  O6       1.0000 0.37430  0.94530  0.51260  Biso   1.000  O
  C4       1.0000 0.52980  0.16750  0.51910  Biso   1.000  C
  C5       1.0000 0.46600  0.16060  0.48070  Biso   1.000  C
  H8       1.0000 0.44860  0.19660  0.44510  Biso   1.000  H
  C6       1.0000 0.42770  0.10190  0.49380  Biso   1.000  C
  H9       1.0000 0.38490  0.09580  0.46630  Biso   1.000  H
  C7       1.0000 0.45270  0.05130  0.54830  Biso   1.000  C
  C8       1.0000 0.51690  0.05830  0.58700  Biso   1.000  C
  C9       1.0000 0.55550  0.11600  0.57270  Biso   1.000  C
  C10      1.0000 0.62370  0.11280  0.61890  Biso   1.000  C
  H10      1.0000 0.65120  0.15400  0.60840  Biso   1.000  H
  C11      1.0000 0.55320  0.00420  0.64560  Biso   1.000  C
  H11      1.0000 0.52590  0.96280  0.65610  Biso   1.000  H
  C12      1.0000 0.64280  0.01710  0.61880  Biso   1.000  C
  C13      1.0000 0.60320  0.95960  0.63270  Biso   1.000  C
  C14      1.0000 0.61450  0.86940  0.63390  Biso   1.000  C
  H12      1.0000 0.58830  0.83010  0.64360  Biso   1.000  H
  C15      1.0000 0.66240  0.83820  0.62150  Biso   1.000  C
  H13      1.0000 0.66930  0.77710  0.62230  Biso   1.000  H
  C16      1.0000 0.70210  0.89520  0.60730  Biso   1.000  C
  H14      1.0000 0.73500  0.87260  0.59780  Biso   1.000  H
  C17      1.0000 0.69280  0.98580  0.60730  Biso   1.000  C
  H15      1.0000 0.72040  0.02490  0.59960  Biso   1.000  H
  C18      1.0000 0.62430  0.12920  0.68210  Biso   1.000  C
  C19      1.0000 0.58480  0.06970  0.69540  Biso   1.000  C
  C20      1.0000 0.57830  0.07820  0.75160  Biso   1.000  C
  H16      1.0000 0.55180  0.04030  0.76210  Biso   1.000  H
  C21      1.0000 0.61340  0.14670  0.79270  Biso   1.000  C
  H17      1.0000 0.61070  0.15300  0.83150  Biso   1.000  H
  C22      1.0000 0.64970  0.20160  0.77800  Biso   1.000  C
  H18      1.0000 0.67140  0.24630  0.80640  Biso   1.000  H
  C23      1.0000 0.65660  0.19540  0.72260  Biso   1.000  C
  H19      1.0000 0.68250  0.23500  0.71270  Biso   1.000  H
  C24      1.0000 0.56990  0.22960  0.49880  Biso   1.000  C
  C25      1.0000 0.41250  0.98440  0.56070  Biso   1.000  C
  O7       1.0000 0.46960  0.83900  0.71520  Biso   1.000  O
  O8       1.0000 0.47080  0.69800  0.69230  Biso   1.000  O
  C26      1.0000 0.54290  0.75040  0.78960  Biso   1.000  C
  C27      1.0000 0.54380  0.80700  0.83640  Biso   1.000  C
  H20      1.0000 0.51230  0.85050  0.82740  Biso   1.000  H
  C28      1.0000 0.58990  0.80030  0.89560  Biso   1.000  C
  H21      1.0000 0.58850  0.83750  0.92710  Biso   1.000  H
  C29      1.0000 0.63800  0.74090  0.90980  Biso   1.000  C
  C30      1.0000 0.63840  0.68330  0.86350  Biso   1.000  C
  C31      1.0000 0.58960  0.68720  0.80430  Biso   1.000  C
  C32      1.0000 0.59670  0.61880  0.75990  Biso   1.000  C
  H22      1.0000 0.56230  0.62110  0.71750  Biso   1.000  H
  C33      1.0000 0.68770  0.61190  0.87000  Biso   1.000  C
  H23      1.0000 0.72220  0.60920  0.91220  Biso   1.000  H
  C34      1.0000 0.60120  0.53130  0.79220  Biso   1.000  C
  C35      1.0000 0.64940  0.52910  0.85190  Biso   1.000  C
  C36      1.0000 0.65890  0.45220  0.88780  Biso   1.000  C
  H24      1.0000 0.69130  0.44910  0.92820  Biso   1.000  H
  C37      1.0000 0.62030  0.38260  0.86290  Biso   1.000  C
  H25      1.0000 0.62700  0.33040  0.88640  Biso   1.000  H
  C38      1.0000 0.57260  0.38530  0.80590  Biso   1.000  C
  H26      1.0000 0.54600  0.33600  0.79120  Biso   1.000  H
  C39      1.0000 0.56230  0.45800  0.76920  Biso   1.000  C
  H27      1.0000 0.52950  0.45870  0.72900  Biso   1.000  H
  C40      1.0000 0.66180  0.63090  0.76040  Biso   1.000  C
  C41      1.0000 0.71110  0.62870  0.81970  Biso   1.000  C
  C42      1.0000 0.77300  0.63800  0.82730  Biso   1.000  C
  H28      1.0000 0.80580  0.63830  0.86750  Biso   1.000  H
  C43      1.0000 0.78700  0.64700  0.77540  Biso   1.000  C
  H29      1.0000 0.82940  0.65060  0.78000  Biso   1.000  H
  C44      1.0000 0.73730  0.65080  0.71590  Biso   1.000  C
  H30      1.0000 0.74620  0.65820  0.68040  Biso   1.000  H
  C45      1.0000 0.67520  0.64350  0.70950  Biso   1.000  C
  H31      1.0000 0.64200  0.64730  0.66970  Biso   1.000  H
  C46      1.0000 0.48960  0.76230  0.72620  Biso   1.000  C
  O9       1.0000 0.67890  0.77500  0.01670  Biso   1.000  O
  C47      1.0000 0.69200  0.74550  0.97300  Biso   1.000  C
  O10      1.0000 0.74420  0.71520  0.98080  Biso   1.000  O
  O11      1.0000 0.35120  0.61220  0.65280  Biso   1.000  O
  O12      1.0000 0.25070  0.64920  0.61170  Biso   1.000  O
  C48      1.0000 0.27970  0.53390  0.68240  Biso   1.000  C
  C49      1.0000 0.21860  0.53170  0.67880  Biso   1.000  C
  H32      1.0000 0.18780  0.56790  0.64960  Biso   1.000  H
  C50      1.0000 0.20180  0.48020  0.71510  Biso   1.000  C
  H33      1.0000 0.15980  0.48190  0.71180  Biso   1.000  H
  C51      1.0000 0.24610  0.42240  0.75910  Biso   1.000  C
  C52      1.0000 0.30640  0.41960  0.76010  Biso   1.000  C
  C53      1.0000 0.32370  0.47650  0.72170  Biso   1.000  C
  C54      1.0000 0.39370  0.46570  0.73390  Biso   1.000  C
  H34      1.0000 0.40720  0.50620  0.70860  Biso   1.000  H
  C55      1.0000 0.36040  0.35860  0.79970  Biso   1.000  C
  H35      1.0000 0.34760  0.31760  0.82530  Biso   1.000  H
  C56      1.0000 0.42900  0.48010  0.80200  Biso   1.000  C
  C57      1.0000 0.41120  0.42310  0.83920  Biso   1.000  C
  C58      1.0000 0.43900  0.42990  0.90480  Biso   1.000  C
  H36      1.0000 0.42830  0.39140  0.93050  Biso   1.000  H
  C59      1.0000 0.48170  0.49480  0.92840  Biso   1.000  C
  H37      1.0000 0.50100  0.50090  0.97200  Biso   1.000  H
  C60      1.0000 0.49850  0.55090  0.89430  Biso   1.000  C
  H38      1.0000 0.52880  0.59450  0.91460  Biso   1.000  H
  C61      1.0000 0.47270  0.54730  0.82970  Biso   1.000  C
  H39      1.0000 0.48410  0.58800  0.80580  Biso   1.000  H
  C62      1.0000 0.40090  0.37020  0.72060  Biso   1.000  C
  C63      1.0000 0.38290  0.31280  0.75810  Biso   1.000  C
  C64      1.0000 0.38930  0.22130  0.75100  Biso   1.000  C
  H40      1.0000 0.37810  0.18110  0.77530  Biso   1.000  H
  C65      1.0000 0.41160  0.19140  0.70920  Biso   1.000  C
  H41      1.0000 0.41480  0.13030  0.70450  Biso   1.000  H
  C66      1.0000 0.42970  0.24790  0.67390  Biso   1.000  C
  H42      1.0000 0.44640  0.22590  0.64620  Biso   1.000  H
  C67      1.0000 0.42300  0.33890  0.67940  Biso   1.000  C
  H43      1.0000 0.43400  0.37810  0.65430  Biso   1.000  H
  C68      1.0000 0.29630  0.60280  0.64560  Biso   1.000  C
  O13      1.0000 0.95080  0.86420  0.20560  Biso   1.000  O
  O14      1.0000 0.96270  0.72270  0.20780  Biso   1.000  O
  O15      1.0000 0.19740  0.79130  0.50560  Biso   1.000  O
  O16      1.0000 0.25450  0.84110  0.44850  Biso   1.000  O
  C69      1.0000 0.03860  0.80740  0.28490  Biso   1.000  C
  C70      1.0000 0.04540  0.75390  0.33580  Biso   1.000  C
  H44      1.0000 0.01400  0.71200  0.33230  Biso   1.000  H
  C71      1.0000 0.09820  0.76260  0.39140  Biso   1.000  C
  H45      1.0000 0.10210  0.72690  0.42560  Biso   1.000  H
  C72      1.0000 0.14510  0.82260  0.39760  Biso   1.000  C
  C73      1.0000 0.13700  0.87590  0.34650  Biso   1.000  C
  C74      1.0000 0.08470  0.86880  0.29010  Biso   1.000  C
  C75      1.0000 0.08200  0.93800  0.24190  Biso   1.000  C
  H46      1.0000 0.04310  0.93390  0.20290  Biso   1.000  H
  C76      1.0000 0.18310  0.94760  0.34490  Biso   1.000  C
  H47      1.0000 0.22200  0.95230  0.38380  Biso   1.000  H
  C77      1.0000 0.14240  0.92480  0.23160  Biso   1.000  C
  C78      1.0000 0.19540  0.93010  0.28760  Biso   1.000  C
  C79      1.0000 0.25460  0.92270  0.28810  Biso   1.000  C
  H48      1.0000 0.29100  0.92640  0.32560  Biso   1.000  H
  C80      1.0000 0.25880  0.91070  0.23680  Biso   1.000  C
  H49      1.0000 0.29980  0.90590  0.23780  Biso   1.000  H
  C81      1.0000 0.20620  0.90370  0.17610  Biso   1.000  C
  H50      1.0000 0.21390  0.89430  0.14010  Biso   1.000  H
  C82      1.0000 0.14330  0.91090  0.17160  Biso   1.000  C
  H51      1.0000 0.10690  0.90710  0.13410  Biso   1.000  H
  C83      1.0000 0.08910  0.02550  0.27370  Biso   1.000  C
  C84      1.0000 0.14390  0.02910  0.32850  Biso   1.000  C
  C85      1.0000 0.15490  0.11310  0.36150  Biso   1.000  C
  H52      1.0000 0.19040  0.11890  0.39950  Biso   1.000  H
  C86      1.0000 0.11800  0.17860  0.34040  Biso   1.000  C
  H53      1.0000 0.12780  0.23270  0.36170  Biso   1.000  H
  C87      1.0000 0.06200  0.17030  0.28450  Biso   1.000  C
  H54      1.0000 0.03400  0.21810  0.27000  Biso   1.000  H
  C88      1.0000 0.04940  0.09480  0.25320  Biso   1.000  C
  H55      1.0000 0.01250  0.08960  0.21620  Biso   1.000  H
  C89      1.0000 0.97900  0.79670  0.22750  Biso   1.000  C
  C90      1.0000 0.20460  0.82060  0.45610  Biso   1.000  C
  O17      1.0000 0.24960  0.84650  0.64390  Biso   1.000  O
  O18      1.0000 0.33960  0.91690  0.68790  Biso   1.000  O
  O19      1.0000 0.92030  0.63640  0.07740  Biso   1.000  O
  O20      1.0000 0.86980  0.69380  0.98290  Biso   1.000  O
  C91      1.0000 0.94130  0.58050  0.99490  Biso   1.000  C
  C92      1.0000 0.96250  0.60940  0.95190  Biso   1.000  C
  H56      1.0000 0.94950  0.66480  0.93320  Biso   1.000  H
  C93      1.0000 0.00270  0.55910  0.93540  Biso   1.000  C
  H57      1.0000 0.01890  0.58220  0.90760  Biso   1.000  H
  C94      1.0000 0.01960  0.47650  0.95840  Biso   1.000  C
  C95      1.0000 0.99490  0.44180  0.99810  Biso   1.000  C
  C96      1.0000 0.95650  0.49380  0.01690  Biso   1.000  C
  C97      1.0000 0.93270  0.44830  0.06000  Biso   1.000  C
  H58      1.0000 0.90620  0.48660  0.07390  Biso   1.000  H
  C98      1.0000 0.00160  0.34910  0.02460  Biso   1.000  C
  H59      1.0000 0.02830  0.31090  0.01090  Biso   1.000  H
  C99      1.0000 0.89640  0.36730  0.02180  Biso   1.000  C
  C100     1.0000 0.93290  0.31520  0.00260  Biso   1.000  C
  C101     1.0000 0.90780  0.24240  0.96930  Biso   1.000  C
  H60      1.0000 0.93330  0.20570  0.95680  Biso   1.000  H
  C102     1.0000 0.84560  0.22070  0.95320  Biso   1.000  C
  H61      1.0000 0.82680  0.17190  0.92780  Biso   1.000  H
  C103     1.0000 0.81030  0.27710  0.97770  Biso   1.000  C
  H62      1.0000 0.76880  0.26080  0.97110  Biso   1.000  H
  C104     1.0000 0.83350  0.34910  0.00820  Biso   1.000  C
  H63      1.0000 0.80860  0.38720  0.02050  Biso   1.000  H
  C105     1.0000 0.99000  0.41350  0.11270  Biso   1.000  C
  C106     1.0000 0.02800  0.36030  0.09440  Biso   1.000  C
  C107     1.0000 0.08380  0.32430  0.13640  Biso   1.000  C
  H64      1.0000 0.10880  0.28830  0.12270  Biso   1.000  H
  C108     1.0000 0.10250  0.34270  0.20010  Biso   1.000  C
  H65      1.0000 0.14060  0.32010  0.22980  Biso   1.000  H
  C109     1.0000 0.06480  0.39320  0.21770  Biso   1.000  C
  H66      1.0000 0.07660  0.40400  0.26050  Biso   1.000  H
  C110     1.0000 0.00970  0.42960  0.17580  Biso   1.000  C
  H67      1.0000 0.98520  0.46570  0.19000  Biso   1.000  H
  C111     1.0000 0.90790  0.64060  0.02110  Biso   1.000  C
  O21      1.0000 0.83540  0.78960  0.09300  Biso   1.000  O
  Zn6      1.0000 0.75356  0.76830  0.09287  Biso   1.000  Zn
  Zn7      1.0000 0.88889  0.69359  0.13346  Biso   1.000  Zn
  Zn8      1.0000 0.86724  0.90010  0.13700  Biso   1.000  Zn
  O22      1.0000 0.14770  0.09900  0.83550  Biso   1.000  O
  O23      1.0000 0.24690  0.14510  0.87910  Biso   1.000  O
  C112     1.0000 0.28650  0.89720  0.68340  Biso   1.000  C
  C113     1.0000 0.26430  0.93920  0.72800  Biso   1.000  C
  C114     1.0000 0.20280  0.93360  0.72220  Biso   1.000  C
  C115     1.0000 0.18290  0.98150  0.76130  Biso   1.000  C
  C116     1.0000 0.22500  0.03380  0.80770  Biso   1.000  C
  C117     1.0000 0.28850  0.01480  0.82460  Biso   1.000  C
  C118     1.0000 0.30880  0.97370  0.78380  Biso   1.000  C
  C119     1.0000 0.20470  0.09590  0.84510  Biso   1.000  C
  C120     1.0000 0.15530  0.85190  0.69340  Biso   1.000  C
  C121     1.0000 0.12310  0.93990  0.76770  Biso   1.000  C
  C122     1.0000 0.07390  0.94500  0.70150  Biso   1.000  C
  C123     1.0000 0.09350  0.89800  0.66100  Biso   1.000  C
  C124     1.0000 0.05510  0.90300  0.59480  Biso   1.000  C
  C125     1.0000 0.01400  0.97100  0.57990  Biso   1.000  C
  C126     1.0000 0.99400  0.01900  0.61800  Biso   1.000  C
  C127     1.0000 0.02410  0.00600  0.67970  Biso   1.000  C
  H68      1.0000 0.01200  0.03790  0.70770  Biso   1.000  H
  H69      1.0000 0.96080  0.06000  0.60160  Biso   1.000  H
  H70      1.0000 0.99590  0.98720  0.53760  Biso   1.000  H
  H71      1.0000 0.05860  0.86430  0.56530  Biso   1.000  H
  C128     1.0000 0.12720  0.84280  0.78150  Biso   1.000  C
  C129     1.0000 0.14570  0.79360  0.74080  Biso   1.000  C
  C130     1.0000 0.11620  0.80100  0.82740  Biso   1.000  C
  C131     1.0000 0.14610  0.70390  0.74570  Biso   1.000  C
  C132     1.0000 0.13400  0.66180  0.79340  Biso   1.000  C
  C133     1.0000 0.11600  0.71100  0.83230  Biso   1.000  C
  H72      1.0000 0.10820  0.83480  0.85690  Biso   1.000  H
  H73      1.0000 0.10490  0.68410  0.86220  Biso   1.000  H
  H74      1.0000 0.13720  0.60030  0.79820  Biso   1.000  H
  H75      1.0000 0.15480  0.66940  0.71680  Biso   1.000  H
  H76      1.0000 0.11030  0.97380  0.79680  Biso   1.000  H
  H77      1.0000 0.16710  0.81740  0.66390  Biso   1.000  H
  C134     1.0000 0.06820  0.42920  0.94220  Biso   1.000  C
  O24      1.0000 0.08020  0.34910  0.95280  Biso   1.000  O
  O25      1.0000 0.08240  0.46020  0.90060  Biso   1.000  O
  C135     1.0000 0.22580  0.37890  0.80480  Biso   1.000  C
  O26      1.0000 0.27010  0.34700  0.85150  Biso   1.000  O
  O27      1.0000 0.17650  0.41700  0.80710  Biso   1.000  O
  O28      1.0000 0.76830  0.84340  0.92780  Biso   1.000  O
  H78      1.0000 0.82400  0.87780  0.90460  Biso   1.000  H
  C136     1.0000 0.68560  0.88080  0.80390  Biso   1.000  C
  H79      1.0000 0.66660  0.90840  0.76320  Biso   1.000  H
  H80      1.0000 0.66180  0.89690  0.82830  Biso   1.000  H
  H81      1.0000 0.68480  0.81730  0.79900  Biso   1.000  H
  C137     1.0000 0.76900  0.93700  0.78800  Biso   1.000  C
  H82      1.0000 0.73120  0.96190  0.75510  Biso   1.000  H
  H83      1.0000 0.78310  0.88670  0.77230  Biso   1.000  H
  H84      1.0000 0.80180  0.98150  0.80230  Biso   1.000  H
  O29      1.0000 0.10310  0.37540  0.98580  Biso   1.000  O
  O30      1.0000 0.09330  0.47350  0.91310  Biso   1.000  O
  O31      1.0000 0.16860  0.36450  0.79360  Biso   1.000  O
  O32      1.0000 0.26070  0.32360  0.84010  Biso   1.000  O
  H85      1.0000 0.14040  0.97830  0.75610  Biso   1.000  H
  H86      1.0000 0.17390  0.89700  0.69140  Biso   1.000  H
  C138     1.0000 0.33900  0.01290  0.89460  Biso   1.000  C
  H87      1.0000 0.32370  0.04390  0.92300  Biso   1.000  H
  C139     1.0000 0.37810  0.93300  0.82220  Biso   1.000  C
  H88      1.0000 0.39380  0.90150  0.79430  Biso   1.000  H
  C140     1.0000 0.39470  0.06000  0.88930  Biso   1.000  C
  C141     1.0000 0.41600  0.01530  0.84860  Biso   1.000  C
  C142     1.0000 0.47810  0.03900  0.84810  Biso   1.000  C
  H89      1.0000 0.50250  0.00160  0.83460  Biso   1.000  H
  C143     1.0000 0.49490  0.12200  0.87010  Biso   1.000  C
  H90      1.0000 0.52450  0.15160  0.85880  Biso   1.000  H
  C144     1.0000 0.47180  0.16600  0.90720  Biso   1.000  C
  H91      1.0000 0.49160  0.21930  0.92540  Biso   1.000  H
  C145     1.0000 0.42210  0.13830  0.91980  Biso   1.000  C
  H92      1.0000 0.40760  0.16880  0.94640  Biso   1.000  H
  C146     1.0000 0.36280  0.92180  0.91750  Biso   1.000  C
  C147     1.0000 0.38510  0.87790  0.87760  Biso   1.000  C
  C148     1.0000 0.41490  0.79720  0.89470  Biso   1.000  C
  H93      1.0000 0.43260  0.76890  0.86990  Biso   1.000  H
  C149     1.0000 0.41770  0.75900  0.94970  Biso   1.000  C
  H94      1.0000 0.43470  0.70210  0.96060  Biso   1.000  H
  C150     1.0000 0.39600  0.80300  0.98860  Biso   1.000  C
  H95      1.0000 0.40400  0.78080  0.02840  Biso   1.000  H
  C151     1.0000 0.36200  0.88150  0.96920  Biso   1.000  C
  H96      1.0000 0.33940  0.90560  0.99090  Biso   1.000  H
  H97      1.0000 0.31820  0.03030  0.86460  Biso   1.000  H
  H98      1.0000 0.35230  0.96870  0.79340  Biso   1.000  H
  O33      1.0000 0.65270  0.28450  0.41300  Biso   1.000  O
  Zn9      1.0000 0.65865  0.32552  0.49213  Biso   1.000  Zn
  Zn10     1.0000 0.60888  0.37092  0.35232  Biso   1.000  Zn
  Zn11     1.0000 0.16992  0.29245  0.99101  Biso   1.000  Zn
  Zn12     1.0000 0.60021  0.17299  0.39215  Biso   1.000  Zn
  Zn13     1.0000 0.73496  0.26562  0.41424  Biso   1.000  Zn
  O34      1.0000 0.18830  0.38120  0.05460  Biso   1.000  O
  C152     1.0000 0.22030  0.37580  0.10870  Biso   1.000  C
  H99      1.0000 0.23290  0.31650  0.11520  Biso   1.000  H
  N2       1.0000 0.24620  0.41170  0.16270  Biso   1.000  N
  C153     1.0000 0.20820  0.49500  0.15800  Biso   1.000  C
  H100     1.0000 0.22540  0.52560  0.19760  Biso   1.000  H
  H101     1.0000 0.16440  0.47940  0.14790  Biso   1.000  H
  H102     1.0000 0.21070  0.53230  0.12560  Biso   1.000  H
  C154     1.0000 0.27970  0.38500  0.22240  Biso   1.000  C
  H103     1.0000 0.29080  0.43650  0.24960  Biso   1.000  H
  H104     1.0000 0.31810  0.35590  0.22530  Biso   1.000  H
  H105     1.0000 0.25430  0.34530  0.23480  Biso   1.000  H
  O35      1.0000 0.45010  0.74060  0.55940  Biso   1.000  O
  O36      1.0000 0.38310  0.76400  0.46190  Biso   1.000  O
  O37      1.0000 0.58240  0.47390  0.38620  Biso   1.000  O
  O38      1.0000 0.62570  0.44530  0.48740  Biso   1.000  O
  C155     1.0000 0.47020  0.66750  0.48090  Biso   1.000  C
  C156     1.0000 0.53400  0.66060  0.51930  Biso   1.000  C
  H106     1.0000 0.55140  0.69660  0.55490  Biso   1.000  H
  C157     1.0000 0.57230  0.60190  0.50620  Biso   1.000  C
  H107     1.0000 0.61510  0.59580  0.53370  Biso   1.000  H
  C158     1.0000 0.54730  0.55130  0.45170  Biso   1.000  C
  C159     1.0000 0.48310  0.55830  0.41300  Biso   1.000  C
  C160     1.0000 0.44450  0.61600  0.42730  Biso   1.000  C
  C161     1.0000 0.37630  0.61280  0.38110  Biso   1.000  C
  H108     1.0000 0.34880  0.65400  0.39160  Biso   1.000  H
  C162     1.0000 0.44680  0.50420  0.35440  Biso   1.000  C
  H109     1.0000 0.47410  0.46280  0.34390  Biso   1.000  H
  C163     1.0000 0.35720  0.51710  0.38120  Biso   1.000  C
  C164     1.0000 0.39680  0.45960  0.36730  Biso   1.000  C
  C165     1.0000 0.38550  0.36940  0.36610  Biso   1.000  C
  H110     1.0000 0.41170  0.33010  0.35640  Biso   1.000  H
  C166     1.0000 0.33760  0.33820  0.37850  Biso   1.000  C
  H111     1.0000 0.33070  0.27710  0.37770  Biso   1.000  H
  C167     1.0000 0.29790  0.39520  0.39270  Biso   1.000  C
  H112     1.0000 0.26500  0.37260  0.40220  Biso   1.000  H
  C168     1.0000 0.30720  0.48580  0.39270  Biso   1.000  C
  H113     1.0000 0.27960  0.52490  0.40040  Biso   1.000  H
  C169     1.0000 0.37570  0.62920  0.31790  Biso   1.000  C
  C170     1.0000 0.41520  0.56970  0.30460  Biso   1.000  C
  C171     1.0000 0.42170  0.57820  0.24840  Biso   1.000  C
  H114     1.0000 0.44820  0.54030  0.23790  Biso   1.000  H
  C172     1.0000 0.38660  0.64670  0.20730  Biso   1.000  C
  H115     1.0000 0.38930  0.65300  0.16850  Biso   1.000  H
  C173     1.0000 0.35030  0.70160  0.22200  Biso   1.000  C
  H116     1.0000 0.32860  0.74630  0.19360  Biso   1.000  H
  C174     1.0000 0.34340  0.69540  0.27740  Biso   1.000  C
  H117     1.0000 0.31750  0.73500  0.28730  Biso   1.000  H
  C175     1.0000 0.43010  0.72960  0.50120  Biso   1.000  C
  C176     1.0000 0.58750  0.48440  0.43930  Biso   1.000  C
  O39      1.0000 0.53040  0.33900  0.28480  Biso   1.000  O
  O40      1.0000 0.52920  0.19800  0.30770  Biso   1.000  O
  C177     1.0000 0.45710  0.25040  0.21040  Biso   1.000  C
  C178     1.0000 0.45620  0.30700  0.16360  Biso   1.000  C
  H118     1.0000 0.48770  0.35050  0.17260  Biso   1.000  H
  C179     1.0000 0.41010  0.30030  0.10440  Biso   1.000  C
  H119     1.0000 0.41150  0.33750  0.07290  Biso   1.000  H
  C180     1.0000 0.36200  0.24090  0.09020  Biso   1.000  C
  C181     1.0000 0.36160  0.18330  0.13650  Biso   1.000  C
  C182     1.0000 0.41040  0.18720  0.19570  Biso   1.000  C
  C183     1.0000 0.40330  0.11880  0.24010  Biso   1.000  C
  H120     1.0000 0.43770  0.12110  0.28250  Biso   1.000  H
  C184     1.0000 0.31230  0.11190  0.13000  Biso   1.000  C
  H121     1.0000 0.27780  0.10920  0.08780  Biso   1.000  H
  C185     1.0000 0.39880  0.03130  0.20780  Biso   1.000  C
  C186     1.0000 0.35060  0.02910  0.14810  Biso   1.000  C
  C187     1.0000 0.34110  0.95220  0.11220  Biso   1.000  C
  H122     1.0000 0.30870  0.94910  0.07180  Biso   1.000  H
  C188     1.0000 0.37970  0.88260  0.13710  Biso   1.000  C
  H123     1.0000 0.37300  0.83040  0.11360  Biso   1.000  H
  C189     1.0000 0.42740  0.88530  0.19410  Biso   1.000  C
  H124     1.0000 0.45400  0.83600  0.20880  Biso   1.000  H
  C190     1.0000 0.43770  0.95800  0.23080  Biso   1.000  C
  H125     1.0000 0.47050  0.95870  0.27100  Biso   1.000  H
  C191     1.0000 0.33820  0.13090  0.23960  Biso   1.000  C
  C192     1.0000 0.28890  0.12870  0.18030  Biso   1.000  C
  C193     1.0000 0.22700  0.13800  0.17270  Biso   1.000  C
  H126     1.0000 0.19420  0.13830  0.13250  Biso   1.000  H
  C194     1.0000 0.21300  0.14700  0.22460  Biso   1.000  C
  H127     1.0000 0.17060  0.15060  0.22000  Biso   1.000  H
  C195     1.0000 0.26270  0.15080  0.28410  Biso   1.000  C
  H128     1.0000 0.25380  0.15820  0.31960  Biso   1.000  H
  C196     1.0000 0.32480  0.14350  0.29050  Biso   1.000  C
  H129     1.0000 0.35800  0.14730  0.33030  Biso   1.000  H
  C197     1.0000 0.51040  0.26230  0.27380  Biso   1.000  C
  O41      1.0000 0.32110  0.27500  0.98330  Biso   1.000  O
  C198     1.0000 0.30800  0.24550  0.02700  Biso   1.000  C
  O42      1.0000 0.25580  0.21520  0.01920  Biso   1.000  O
  O43      1.0000 0.64880  0.11220  0.34720  Biso   1.000  O
  O44      1.0000 0.74930  0.14920  0.38830  Biso   1.000  O
  C199     1.0000 0.72030  0.03390  0.31760  Biso   1.000  C
  C200     1.0000 0.78140  0.03170  0.32120  Biso   1.000  C
  H130     1.0000 0.81220  0.06790  0.35040  Biso   1.000  H
  C201     1.0000 0.79820  0.98020  0.28490  Biso   1.000  C
  H131     1.0000 0.84020  0.98190  0.28820  Biso   1.000  H
  C202     1.0000 0.75390  0.92240  0.24090  Biso   1.000  C
  C203     1.0000 0.69360  0.91960  0.23990  Biso   1.000  C
  C204     1.0000 0.67630  0.97650  0.27830  Biso   1.000  C
  C205     1.0000 0.60630  0.96570  0.26610  Biso   1.000  C
  H132     1.0000 0.59280  0.00620  0.29140  Biso   1.000  H
  C206     1.0000 0.63960  0.85860  0.20030  Biso   1.000  C
  H133     1.0000 0.65240  0.81760  0.17470  Biso   1.000  H
  C207     1.0000 0.57100  0.98010  0.19800  Biso   1.000  C
  C208     1.0000 0.58880  0.92310  0.16080  Biso   1.000  C
  C209     1.0000 0.56100  0.92990  0.09520  Biso   1.000  C
  H134     1.0000 0.57170  0.89140  0.06950  Biso   1.000  H
  C210     1.0000 0.51830  0.99480  0.07160  Biso   1.000  C
  H135     1.0000 0.49900  0.00090  0.02800  Biso   1.000  H
  C211     1.0000 0.50150  0.05090  0.10570  Biso   1.000  C
  H136     1.0000 0.47120  0.09450  0.08540  Biso   1.000  H
  C212     1.0000 0.52730  0.04730  0.17030  Biso   1.000  C
  H137     1.0000 0.51590  0.08800  0.19420  Biso   1.000  H
  C213     1.0000 0.59910  0.87020  0.27940  Biso   1.000  C
  C214     1.0000 0.61710  0.81280  0.24190  Biso   1.000  C
  C215     1.0000 0.61070  0.72130  0.24900  Biso   1.000  C
  H138     1.0000 0.62190  0.68110  0.22470  Biso   1.000  H
  C216     1.0000 0.58840  0.69140  0.29080  Biso   1.000  C
  H139     1.0000 0.58520  0.63030  0.29550  Biso   1.000  H
  C217     1.0000 0.57030  0.74790  0.32610  Biso   1.000  C
  H140     1.0000 0.55360  0.72590  0.35380  Biso   1.000  H
  C218     1.0000 0.57700  0.83890  0.32060  Biso   1.000  C
  H141     1.0000 0.56600  0.87810  0.34570  Biso   1.000  H
  C219     1.0000 0.70370  0.10280  0.35440  Biso   1.000  C
  O45      1.0000 0.04920  0.36420  0.79440  Biso   1.000  O
  O46      1.0000 0.03730  0.22270  0.79220  Biso   1.000  O
  O47      1.0000 0.80260  0.29130  0.49440  Biso   1.000  O
  O48      1.0000 0.74550  0.34110  0.55150  Biso   1.000  O
  C220     1.0000 0.96140  0.30740  0.71510  Biso   1.000  C
  C221     1.0000 0.95460  0.25390  0.66420  Biso   1.000  C
  H142     1.0000 0.98600  0.21200  0.66770  Biso   1.000  H
  C222     1.0000 0.90180  0.26260  0.60860  Biso   1.000  C
  H143     1.0000 0.89790  0.22690  0.57440  Biso   1.000  H
  C223     1.0000 0.85490  0.32260  0.60240  Biso   1.000  C
  C224     1.0000 0.86300  0.37590  0.65350  Biso   1.000  C
  C225     1.0000 0.91530  0.36880  0.70990  Biso   1.000  C
  C226     1.0000 0.91800  0.43800  0.75810  Biso   1.000  C
  H144     1.0000 0.95690  0.43390  0.79710  Biso   1.000  H
  C227     1.0000 0.81690  0.44760  0.65510  Biso   1.000  C
  H145     1.0000 0.77800  0.45230  0.61620  Biso   1.000  H
  C228     1.0000 0.85760  0.42480  0.76840  Biso   1.000  C
  C229     1.0000 0.80460  0.43010  0.71240  Biso   1.000  C
  C230     1.0000 0.74540  0.42270  0.71190  Biso   1.000  C
  H146     1.0000 0.70900  0.42640  0.67440  Biso   1.000  H
  C231     1.0000 0.74120  0.41070  0.76320  Biso   1.000  C
  H147     1.0000 0.70020  0.40590  0.76220  Biso   1.000  H
  C232     1.0000 0.79380  0.40370  0.82390  Biso   1.000  C
  H148     1.0000 0.78610  0.39430  0.85990  Biso   1.000  H
  C233     1.0000 0.85670  0.41090  0.82840  Biso   1.000  C
  H149     1.0000 0.89310  0.40710  0.86590  Biso   1.000  H
  C234     1.0000 0.91090  0.52550  0.72630  Biso   1.000  C
  C235     1.0000 0.85610  0.52910  0.67150  Biso   1.000  C
  C236     1.0000 0.84510  0.61310  0.63850  Biso   1.000  C
  H150     1.0000 0.80960  0.61890  0.60050  Biso   1.000  H
  C237     1.0000 0.88200  0.67860  0.65960  Biso   1.000  C
  H151     1.0000 0.87220  0.73270  0.63830  Biso   1.000  H
  C238     1.0000 0.93800  0.67030  0.71550  Biso   1.000  C
  H152     1.0000 0.96600  0.71810  0.73000  Biso   1.000  H
  C239     1.0000 0.95060  0.59480  0.74680  Biso   1.000  C
  H153     1.0000 0.98750  0.58960  0.78380  Biso   1.000  H
  C240     1.0000 0.02100  0.29670  0.77250  Biso   1.000  C
  C241     1.0000 0.79540  0.32060  0.54390  Biso   1.000  C
  O49      1.0000 0.75040  0.34650  0.35610  Biso   1.000  O
  O50      1.0000 0.66040  0.41690  0.31210  Biso   1.000  O
  O51      1.0000 0.07970  0.13640  0.92260  Biso   1.000  O
  O52      1.0000 0.13020  0.19380  0.01710  Biso   1.000  O
  C242     1.0000 0.05870  0.08050  0.00510  Biso   1.000  C
  C243     1.0000 0.03750  0.10940  0.04810  Biso   1.000  C
  H154     1.0000 0.05050  0.16480  0.06680  Biso   1.000  H
  C244     1.0000 0.99730  0.05910  0.06460  Biso   1.000  C
  H155     1.0000 0.98110  0.08220  0.09240  Biso   1.000  H
  C245     1.0000 0.98040  0.97650  0.04160  Biso   1.000  C
  C246     1.0000 0.00510  0.94180  0.00190  Biso   1.000  C
  C247     1.0000 0.04350  0.99380  0.98310  Biso   1.000  C
  C248     1.0000 0.06730  0.94830  0.94000  Biso   1.000  C
  H156     1.0000 0.09380  0.98660  0.92610  Biso   1.000  H
  C249     1.0000 0.99840  0.84910  0.97540  Biso   1.000  C
  H157     1.0000 0.97170  0.81090  0.98910  Biso   1.000  H
  C250     1.0000 0.10360  0.86730  0.97820  Biso   1.000  C
  C251     1.0000 0.06710  0.81520  0.99740  Biso   1.000  C
  C252     1.0000 0.09220  0.74240  0.03070  Biso   1.000  C
  H158     1.0000 0.06670  0.70570  0.04320  Biso   1.000  H
  C253     1.0000 0.15440  0.72070  0.04680  Biso   1.000  C
  H159     1.0000 0.17320  0.67190  0.07220  Biso   1.000  H
  C254     1.0000 0.18970  0.77710  0.02230  Biso   1.000  C
  H160     1.0000 0.23120  0.76080  0.02890  Biso   1.000  H
  C255     1.0000 0.16650  0.84910  0.99180  Biso   1.000  C
  H161     1.0000 0.19140  0.88720  0.97950  Biso   1.000  H
  C256     1.0000 0.01000  0.91350  0.88730  Biso   1.000  C
  C257     1.0000 0.97200  0.86030  0.90560  Biso   1.000  C
  C258     1.0000 0.91620  0.82430  0.86360  Biso   1.000  C
  H162     1.0000 0.89120  0.78830  0.87730  Biso   1.000  H
  C259     1.0000 0.89750  0.84270  0.79990  Biso   1.000  C
  H163     1.0000 0.85940  0.82010  0.77020  Biso   1.000  H
  C260     1.0000 0.93520  0.89320  0.78230  Biso   1.000  C
  H164     1.0000 0.92340  0.90400  0.73950  Biso   1.000  H
  C261     1.0000 0.99030  0.92960  0.82420  Biso   1.000  C
  H165     1.0000 0.01480  0.96570  0.81000  Biso   1.000  H
  C262     1.0000 0.09210  0.14060  0.97890  Biso   1.000  C
  O53      1.0000 0.16460  0.28960  0.90700  Biso   1.000  O
  Zn14     1.0000 0.24644  0.26830  0.90713  Biso   1.000  Zn
  Zn15     1.0000 0.11111  0.19359  0.86654  Biso   1.000  Zn
  Zn16     1.0000 0.13276  0.40010  0.86300  Biso   1.000  Zn
  O54      1.0000 0.85230  0.59900  0.16450  Biso   1.000  O
  O55      1.0000 0.75310  0.64510  0.12090  Biso   1.000  O
  C263     1.0000 0.71350  0.39720  0.31660  Biso   1.000  C
  C264     1.0000 0.73570  0.43920  0.27200  Biso   1.000  C
  C265     1.0000 0.79720  0.43360  0.27780  Biso   1.000  C
  C266     1.0000 0.81710  0.48150  0.23870  Biso   1.000  C
  C267     1.0000 0.77500  0.53380  0.19230  Biso   1.000  C
  C268     1.0000 0.71150  0.51480  0.17540  Biso   1.000  C
  C269     1.0000 0.69120  0.47370  0.21620  Biso   1.000  C
  C270     1.0000 0.79530  0.59590  0.15490  Biso   1.000  C
  C271     1.0000 0.84470  0.35190  0.30660  Biso   1.000  C
  C272     1.0000 0.87690  0.43990  0.23230  Biso   1.000  C
  C273     1.0000 0.92610  0.44500  0.29850  Biso   1.000  C
  C274     1.0000 0.90650  0.39800  0.33900  Biso   1.000  C
  C275     1.0000 0.94490  0.40300  0.40520  Biso   1.000  C
  C276     1.0000 0.98600  0.47100  0.42010  Biso   1.000  C
  C277     1.0000 0.00600  0.51900  0.38200  Biso   1.000  C
  C278     1.0000 0.97590  0.50600  0.32030  Biso   1.000  C
  H166     1.0000 0.98800  0.53790  0.29230  Biso   1.000  H
  H167     1.0000 0.03920  0.56000  0.39840  Biso   1.000  H
  H168     1.0000 0.00410  0.48720  0.46240  Biso   1.000  H
  H169     1.0000 0.94140  0.36430  0.43470  Biso   1.000  H
  C279     1.0000 0.87280  0.34280  0.21850  Biso   1.000  C
  C280     1.0000 0.85430  0.29360  0.25920  Biso   1.000  C
  C281     1.0000 0.88380  0.30100  0.17260  Biso   1.000  C
  C282     1.0000 0.85390  0.20390  0.25430  Biso   1.000  C
  C283     1.0000 0.86600  0.16180  0.20660  Biso   1.000  C
  C284     1.0000 0.88400  0.21100  0.16770  Biso   1.000  C
  H170     1.0000 0.89180  0.33480  0.14310  Biso   1.000  H
  H171     1.0000 0.89510  0.18410  0.13780  Biso   1.000  H
  H172     1.0000 0.86280  0.10030  0.20180  Biso   1.000  H
  H173     1.0000 0.84520  0.16940  0.28320  Biso   1.000  H
  H174     1.0000 0.88970  0.47380  0.20320  Biso   1.000  H
  H175     1.0000 0.83290  0.31740  0.33610  Biso   1.000  H
  C285     1.0000 0.93180  0.92920  0.05780  Biso   1.000  C
  O56      1.0000 0.91980  0.84910  0.04720  Biso   1.000  O
  O57      1.0000 0.91760  0.96020  0.09940  Biso   1.000  O
  C286     1.0000 0.77420  0.87890  0.19520  Biso   1.000  C
  O58      1.0000 0.72990  0.84700  0.14850  Biso   1.000  O
  O59      1.0000 0.82350  0.91700  0.19290  Biso   1.000  O
  O60      1.0000 0.23170  0.34340  0.07220  Biso   1.000  O
  H176     1.0000 0.17600  0.37780  0.09540  Biso   1.000  H
  C287     1.0000 0.31440  0.38080  0.19610  Biso   1.000  C
  H177     1.0000 0.33340  0.40840  0.23680  Biso   1.000  H
  H178     1.0000 0.33820  0.39690  0.17170  Biso   1.000  H
  H179     1.0000 0.31520  0.31730  0.20100  Biso   1.000  H
  C288     1.0000 0.23100  0.43700  0.21200  Biso   1.000  C
  H180     1.0000 0.26880  0.46190  0.24490  Biso   1.000  H
  H181     1.0000 0.21690  0.38670  0.22770  Biso   1.000  H
  H182     1.0000 0.19820  0.48150  0.19770  Biso   1.000  H
  O61      1.0000 0.89690  0.87540  0.01420  Biso   1.000  O
  O62      1.0000 0.90670  0.97350  0.08690  Biso   1.000  O
  O63      1.0000 0.83140  0.86450  0.20640  Biso   1.000  O
  O64      1.0000 0.73930  0.82360  0.15990  Biso   1.000  O
  H183     1.0000 0.85960  0.47830  0.24390  Biso   1.000  H
  H184     1.0000 0.82610  0.39700  0.30860  Biso   1.000  H
  C289     1.0000 0.66100  0.51290  0.10540  Biso   1.000  C
  H185     1.0000 0.67630  0.54390  0.07700  Biso   1.000  H
  C290     1.0000 0.62190  0.43300  0.17780  Biso   1.000  C
  H186     1.0000 0.60620  0.40150  0.20570  Biso   1.000  H
  C291     1.0000 0.60530  0.56000  0.11070  Biso   1.000  C
  C292     1.0000 0.58400  0.51530  0.15140  Biso   1.000  C
  C293     1.0000 0.52190  0.53900  0.15190  Biso   1.000  C
  H187     1.0000 0.49750  0.50160  0.16540  Biso   1.000  H
  C294     1.0000 0.50510  0.62200  0.12990  Biso   1.000  C
  H188     1.0000 0.47550  0.65160  0.14120  Biso   1.000  H
  C295     1.0000 0.52820  0.66600  0.09280  Biso   1.000  C
  H189     1.0000 0.50840  0.71930  0.07460  Biso   1.000  H
  C296     1.0000 0.57790  0.63830  0.08020  Biso   1.000  C
  H190     1.0000 0.59240  0.66880  0.05360  Biso   1.000  H
  C297     1.0000 0.63720  0.42180  0.08250  Biso   1.000  C
  C298     1.0000 0.61490  0.37790  0.12240  Biso   1.000  C
  C299     1.0000 0.58510  0.29720  0.10530  Biso   1.000  C
  H191     1.0000 0.56740  0.26890  0.13010  Biso   1.000  H
  C300     1.0000 0.58230  0.25900  0.05030  Biso   1.000  C
  H192     1.0000 0.56530  0.20210  0.03940  Biso   1.000  H
  C301     1.0000 0.60400  0.30300  0.01140  Biso   1.000  C
  H193     1.0000 0.59600  0.28080  0.97160  Biso   1.000  H
  C302     1.0000 0.63800  0.38150  0.03080  Biso   1.000  C
  H194     1.0000 0.66060  0.40560  0.00910  Biso   1.000  H
  H195     1.0000 0.68180  0.53030  0.13540  Biso   1.000  H
  H196     1.0000 0.64770  0.46870  0.20660  Biso   1.000  H
