data_image0
_cell_length_a       13.0124
_cell_length_b       14.2918
_cell_length_c       23.7647
_cell_angle_alpha    95.155
_cell_angle_beta     101.758
_cell_angle_gamma    115.984

_symmetry_space_group_name_H-M    "P 1"
_symmetry_int_tables_number       1

loop_
  _symmetry_equiv_pos_as_xyz
  'x, y, z'

loop_
  _atom_site_label
  _atom_site_occupancy
  _atom_site_fract_x
  _atom_site_fract_y
  _atom_site_fract_z
  _atom_site_thermal_displace_type
  _atom_site_B_iso_or_equiv
  _atom_site_type_symbol
  Ag1      1.0000 0.50020  0.45790  0.24990  Biso   1.000  Ag
  Ag2      1.0000 0.73180  0.70910  0.24236  Biso   1.000  Ag
  Ag3      1.0000 0.76880  0.51280  0.75090  Biso   1.000  Ag
  Ag4      1.0000 0.85690  0.97830  0.49176  Biso   1.000  Ag
  Ag5      1.0000 0.87660  0.49780  0.01102  Biso   1.000  Ag
  Ag6      1.0000 0.51300  0.31720  0.73188  Biso   1.000  Ag
  Ag7      1.0000 0.73790  0.24230  0.75590  Biso   1.000  Ag
  Ag8      1.0000 0.58130  0.92350  0.51873  Biso   1.000  Ag
  Ag9      1.0000 0.02850  0.80370  0.25065  Biso   1.000  Ag
  Ag10     1.0000 0.57730  0.39470  0.00282  Biso   1.000  Ag
  Ag11     1.0000 0.71750  0.95460  0.22507  Biso   1.000  Ag
  Ag12     1.0000 0.78620  0.33660  0.12138  Biso   1.000  Ag
  Ag13     1.0000 0.68160  0.74990  0.54750  Biso   1.000  Ag
  Ag14     1.0000 0.35600  0.30300  0.46900  Biso   1.000  Ag
  Ag15     1.0000 0.49510  0.01420  0.23620  Biso   1.000  Ag
  Ag16     1.0000 0.47780  0.94260  0.22210  Biso   1.000  Ag
  N1       1.0000 0.79000  0.35700  0.83090  Biso   1.000  N
  N2       1.0000 0.82300  0.46100  0.82640  Biso   1.000  N
  C1       1.0000 0.85100  0.51400  0.88070  Biso   1.000  C
  H1       1.0000 0.86910  0.58550  0.88980  Biso   1.000  H
  N3       1.0000 0.84900  0.45300  0.92100  Biso   1.000  N
  C2       1.0000 0.82100  0.36300  0.88710  Biso   1.000  C
  H2       1.0000 0.82380  0.30630  0.90260  Biso   1.000  H
  N4       1.0000 0.58100  0.06100  0.17000  Biso   1.000  N
  N5       1.0000 0.67700  0.04200  0.16760  Biso   1.000  N
  C3       1.0000 0.74300  0.11500  0.14390  Biso   1.000  C
  H3       1.0000 0.81550  0.12390  0.13890  Biso   1.000  H
  N6       1.0000 0.69400  0.17900  0.12720  Biso   1.000  N
  C4       1.0000 0.59300  0.14300  0.14570  Biso   1.000  C
  H4       1.0000 0.54110  0.17160  0.14180  Biso   1.000  H
  N7       1.0000 0.88100  0.50000  0.14050  Biso   1.000  N
  N8       1.0000 0.90800  0.56050  0.10040  Biso   1.000  N
  C5       1.0000 0.96200  0.66700  0.12600  Biso   1.000  C
  H5       1.0000 0.99000  0.72490  0.10800  Biso   1.000  H
  N9       1.0000 0.96400  0.66800  0.18580  Biso   1.000  N
  C6       1.0000 0.91900  0.56600  0.18830  Biso   1.000  C
  H6       1.0000 0.91450  0.54420  0.22380  Biso   1.000  H
  N10      1.0000 0.49500  0.20800  0.83500  Biso   1.000  N
  N11      1.0000 0.52900  0.30900  0.82010  Biso   1.000  N
  C7       1.0000 0.55800  0.38000  0.87110  Biso   1.000  C
  H7       1.0000 0.57880  0.45150  0.87410  Biso   1.000  H
  N12      1.0000 0.55100  0.32800  0.91710  Biso   1.000  N
  C8       1.0000 0.51700  0.22400  0.89130  Biso   1.000  C
  H8       1.0000 0.51090  0.17070  0.91250  Biso   1.000  H
  N13      1.0000 0.78600  0.92720  0.30590  Biso   1.000  N
  N14      1.0000 0.79200  0.83400  0.31510  Biso   1.000  N
  C9       1.0000 0.81200  0.84100  0.37090  Biso   1.000  C
  H9       1.0000 0.80790  0.78530  0.38900  Biso   1.000  H
  N15      1.0000 0.83800  0.93600  0.40090  Biso   1.000  N
  C10      1.0000 0.81400  0.98300  0.35950  Biso   1.000  C
  H10      1.0000 0.81650  0.04900  0.36660  Biso   1.000  H
  N16      1.0000 0.65500  0.57400  0.17080  Biso   1.000  N
  N17      1.0000 0.57000  0.47800  0.17730  Biso   1.000  N
  C11      1.0000 0.53400  0.41000  0.12510  Biso   1.000  C
  H11      1.0000 0.47410  0.34010  0.11580  Biso   1.000  H
  N18      1.0000 0.59700  0.46000  0.08870  Biso   1.000  N
  C12      1.0000 0.66600  0.56000  0.12180  Biso   1.000  C
  H12      1.0000 0.71930  0.61430  0.10760  Biso   1.000  H
  N19      1.0000 0.86200  0.01000  0.58050  Biso   1.000  N
  N20      1.0000 0.81700  0.92800  0.60830  Biso   1.000  N
  C13      1.0000 0.85900  0.97900  0.66680  Biso   1.000  C
  H13      1.0000 0.85280  0.94340  0.69780  Biso   1.000  H
  N21      1.0000 0.90700  0.07600  0.67320  Biso   1.000  N
  C14      1.0000 0.91700  0.09900  0.61890  Biso   1.000  C
  H14      1.0000 0.95700  0.16700  0.61120  Biso   1.000  H
  N22      1.0000 0.55900  0.02200  0.69040  Biso   1.000  N
  N23      1.0000 0.65400  0.11300  0.68580  Biso   1.000  N
  C15      1.0000 0.67100  0.09900  0.63570  Biso   1.000  C
  H15      1.0000 0.73260  0.14910  0.62360  Biso   1.000  H
  N24      1.0000 0.59000  0.00400  0.60220  Biso   1.000  N
  C16      1.0000 0.52500  0.95600  0.64050  Biso   1.000  C
  H16      1.0000 0.46550  0.88650  0.63170  Biso   1.000  H
  N25      1.0000 0.57100  0.82100  0.44470  Biso   1.000  N
  N26      1.0000 0.60400  0.74380  0.45570  Biso   1.000  N
  C17      1.0000 0.57300  0.68500  0.40380  Biso   1.000  C
  H17      1.0000 0.58260  0.62460  0.39760  Biso   1.000  H
  N27      1.0000 0.52500  0.71900  0.36080  Biso   1.000  N
  C18      1.0000 0.53400  0.80900  0.38780  Biso   1.000  C
  H18      1.0000 0.51530  0.85630  0.36890  Biso   1.000  H
  N28      1.0000 0.69100  0.56860  0.68560  Biso   1.000  N
  N29      1.0000 0.58900  0.57400  0.68660  Biso   1.000  N
  C19      1.0000 0.57700  0.63100  0.64600  Biso   1.000  C
  H19      1.0000 0.51520  0.64890  0.63760  Biso   1.000  H
  N30      1.0000 0.66700  0.66100  0.61820  Biso   1.000  N
  C20      1.0000 0.73000  0.61900  0.64730  Biso   1.000  C
  H20      1.0000 0.79970  0.62660  0.63950  Biso   1.000  H
  Ag17     1.0000 0.49980  0.54210  0.75010  Biso   1.000  Ag
  Ag18     1.0000 0.26820  0.29090  0.75764  Biso   1.000  Ag
  Ag19     1.0000 0.23120  0.48720  0.24910  Biso   1.000  Ag
  Ag20     1.0000 0.14310  0.02170  0.50824  Biso   1.000  Ag
  Ag21     1.0000 0.12340  0.50220  0.98898  Biso   1.000  Ag
  Ag22     1.0000 0.48700  0.68280  0.26812  Biso   1.000  Ag
  Ag23     1.0000 0.26210  0.75770  0.24410  Biso   1.000  Ag
  Ag24     1.0000 0.41870  0.07650  0.48127  Biso   1.000  Ag
  Ag25     1.0000 0.97150  0.19630  0.74935  Biso   1.000  Ag
  Ag26     1.0000 0.42270  0.60530  0.99718  Biso   1.000  Ag
  Ag27     1.0000 0.28250  0.04540  0.77493  Biso   1.000  Ag
  Ag28     1.0000 0.21380  0.66340  0.87862  Biso   1.000  Ag
  Ag29     1.0000 0.31840  0.25010  0.45250  Biso   1.000  Ag
  Ag30     1.0000 0.64400  0.69700  0.53100  Biso   1.000  Ag
  Ag31     1.0000 0.50490  0.98580  0.76380  Biso   1.000  Ag
  Ag32     1.0000 0.52220  0.05740  0.77790  Biso   1.000  Ag
  N31      1.0000 0.21000  0.64300  0.16910  Biso   1.000  N
  N32      1.0000 0.17700  0.53900  0.17360  Biso   1.000  N
  C21      1.0000 0.14900  0.48600  0.11930  Biso   1.000  C
  H21      1.0000 0.13090  0.41450  0.11020  Biso   1.000  H
  N33      1.0000 0.15100  0.54700  0.07900  Biso   1.000  N
  C22      1.0000 0.17900  0.63700  0.11290  Biso   1.000  C
  H22      1.0000 0.17620  0.69370  0.09740  Biso   1.000  H
  N34      1.0000 0.41900  0.93900  0.83000  Biso   1.000  N
  N35      1.0000 0.32300  0.95800  0.83240  Biso   1.000  N
  C23      1.0000 0.25700  0.88500  0.85610  Biso   1.000  C
  H23      1.0000 0.18450  0.87610  0.86110  Biso   1.000  H
  N36      1.0000 0.30600  0.82100  0.87280  Biso   1.000  N
  C24      1.0000 0.40700  0.85700  0.85430  Biso   1.000  C
  H24      1.0000 0.45890  0.82840  0.85820  Biso   1.000  H
  N37      1.0000 0.11900  0.50000  0.85950  Biso   1.000  N
  N38      1.0000 0.09200  0.43950  0.89960  Biso   1.000  N
  C25      1.0000 0.03800  0.33300  0.87400  Biso   1.000  C
  H25      1.0000 0.01000  0.27510  0.89200  Biso   1.000  H
  N39      1.0000 0.03600  0.33200  0.81420  Biso   1.000  N
  C26      1.0000 0.08100  0.43400  0.81170  Biso   1.000  C
  H26      1.0000 0.08550  0.45580  0.77620  Biso   1.000  H
  N40      1.0000 0.50500  0.79200  0.16500  Biso   1.000  N
  N41      1.0000 0.47100  0.69100  0.17990  Biso   1.000  N
  C27      1.0000 0.44200  0.62000  0.12890  Biso   1.000  C
  H27      1.0000 0.42120  0.54850  0.12590  Biso   1.000  H
  N42      1.0000 0.44900  0.67200  0.08290  Biso   1.000  N
  C28      1.0000 0.48300  0.77600  0.10870  Biso   1.000  C
  H28      1.0000 0.48910  0.82930  0.08750  Biso   1.000  H
  N43      1.0000 0.21400  0.07280  0.69410  Biso   1.000  N
  N44      1.0000 0.20800  0.16600  0.68490  Biso   1.000  N
  C29      1.0000 0.18800  0.15900  0.62910  Biso   1.000  C
  H29      1.0000 0.19210  0.21470  0.61100  Biso   1.000  H
  N45      1.0000 0.16200  0.06400  0.59910  Biso   1.000  N
  C30      1.0000 0.18600  0.01700  0.64050  Biso   1.000  C
  H30      1.0000 0.18350  0.95100  0.63340  Biso   1.000  H
  N46      1.0000 0.34500  0.42600  0.82920  Biso   1.000  N
  N47      1.0000 0.43000  0.52200  0.82270  Biso   1.000  N
  C31      1.0000 0.46600  0.59000  0.87490  Biso   1.000  C
  H31      1.0000 0.52590  0.65990  0.88420  Biso   1.000  H
  N48      1.0000 0.40300  0.54000  0.91130  Biso   1.000  N
  C32      1.0000 0.33400  0.44000  0.87820  Biso   1.000  C
  H32      1.0000 0.28070  0.38570  0.89240  Biso   1.000  H
  N49      1.0000 0.13800  0.99000  0.41950  Biso   1.000  N
  N50      1.0000 0.18300  0.07200  0.39170  Biso   1.000  N
  C33      1.0000 0.14100  0.02100  0.33320  Biso   1.000  C
  H33      1.0000 0.14720  0.05660  0.30220  Biso   1.000  H
  N51      1.0000 0.09300  0.92400  0.32680  Biso   1.000  N
  C34      1.0000 0.08300  0.90100  0.38110  Biso   1.000  C
  H34      1.0000 0.04300  0.83300  0.38880  Biso   1.000  H
  N52      1.0000 0.44100  0.97800  0.30960  Biso   1.000  N
  N53      1.0000 0.34600  0.88700  0.31420  Biso   1.000  N
  C35      1.0000 0.32900  0.90100  0.36430  Biso   1.000  C
  H35      1.0000 0.26740  0.85090  0.37640  Biso   1.000  H
  N54      1.0000 0.41000  0.99600  0.39780  Biso   1.000  N
  C36      1.0000 0.47500  0.04400  0.35950  Biso   1.000  C
  H36      1.0000 0.53450  0.11350  0.36830  Biso   1.000  H
  N55      1.0000 0.42900  0.17900  0.55530  Biso   1.000  N
  N56      1.0000 0.39600  0.25620  0.54430  Biso   1.000  N
  C37      1.0000 0.42700  0.31500  0.59620  Biso   1.000  C
  H37      1.0000 0.41740  0.37540  0.60240  Biso   1.000  H
  N57      1.0000 0.47500  0.28100  0.63920  Biso   1.000  N
  C38      1.0000 0.46600  0.19100  0.61220  Biso   1.000  C
  H38      1.0000 0.48470  0.14370  0.63110  Biso   1.000  H
  N58      1.0000 0.30900  0.43140  0.31440  Biso   1.000  N
  N59      1.0000 0.41100  0.42600  0.31340  Biso   1.000  N
  C39      1.0000 0.42300  0.36900  0.35400  Biso   1.000  C
  H39      1.0000 0.48480  0.35110  0.36240  Biso   1.000  H
  N60      1.0000 0.33300  0.33900  0.38180  Biso   1.000  N
  C40      1.0000 0.27000  0.38100  0.35270  Biso   1.000  C
  H40      1.0000 0.20030  0.37340  0.36050  Biso   1.000  H
