data_image0
_cell_length_a       18.515
_cell_length_b       18.515
_cell_length_c       20.245
_cell_angle_alpha    90
_cell_angle_beta     90
_cell_angle_gamma    90

_symmetry_space_group_name_H-M    "P 1"
_symmetry_int_tables_number       1

loop_
  _symmetry_equiv_pos_as_xyz
  'x, y, z'

loop_
  _atom_site_label
  _atom_site_occupancy
  _atom_site_fract_x
  _atom_site_fract_y
  _atom_site_fract_z
  _atom_site_thermal_displace_type
  _atom_site_B_iso_or_equiv
  _atom_site_type_symbol
  C1       1.0000 0.23170  0.49630  0.03960  Biso   1.000  C
  H1       1.0000 0.19330  0.49110  0.06870  Biso   1.000  H
  C2       1.0000 0.24100  0.28690  0.10200  Biso   1.000  C
  H2       1.0000 0.20100  0.31660  0.09610  Biso   1.000  H
  N1       1.0000 0.30190  0.46830  0.04700  Biso   1.000  N
  N2       1.0000 0.31380  0.31010  0.11270  Biso   1.000  N
  C3       1.0000 0.23160  0.53230  0.98170  Biso   1.000  C
  H3       1.0000 0.19130  0.55440  0.96310  Biso   1.000  H
  C4       1.0000 0.26600  0.28820  0.05900  Biso   1.000  C
  H4       1.0000 0.24060  0.31830  0.03050  Biso   1.000  H
  C5       1.0000 0.73170  0.99630  0.53960  Biso   1.000  C
  H5       1.0000 0.69330  0.99110  0.56870  Biso   1.000  H
  C6       1.0000 0.74100  0.78690  0.60200  Biso   1.000  C
  H6       1.0000 0.70100  0.81660  0.59610  Biso   1.000  H
  N3       1.0000 0.80190  0.96830  0.54700  Biso   1.000  N
  N4       1.0000 0.81380  0.81010  0.61270  Biso   1.000  N
  C7       1.0000 0.73160  0.03230  0.48170  Biso   1.000  C
  H7       1.0000 0.69130  0.05440  0.46310  Biso   1.000  H
  C8       1.0000 0.76600  0.78820  0.55900  Biso   1.000  C
  H8       1.0000 0.74060  0.81830  0.53050  Biso   1.000  H
  C9       1.0000 0.26830  0.50370  0.53960  Biso   1.000  C
  H9       1.0000 0.30670  0.50890  0.56870  Biso   1.000  H
  C10      1.0000 0.25900  0.71310  0.60200  Biso   1.000  C
  H10      1.0000 0.29900  0.68340  0.59610  Biso   1.000  H
  N5       1.0000 0.19810  0.53170  0.54700  Biso   1.000  N
  N6       1.0000 0.18620  0.68990  0.61270  Biso   1.000  N
  C11      1.0000 0.26840  0.46770  0.48170  Biso   1.000  C
  H11      1.0000 0.30870  0.44560  0.46310  Biso   1.000  H
  C12      1.0000 0.23400  0.71180  0.55900  Biso   1.000  C
  H12      1.0000 0.25940  0.68170  0.53050  Biso   1.000  H
  C13      1.0000 0.76830  0.00370  0.03960  Biso   1.000  C
  H13      1.0000 0.80670  0.00890  0.06870  Biso   1.000  H
  C14      1.0000 0.75900  0.21310  0.10200  Biso   1.000  C
  H14      1.0000 0.79900  0.18340  0.09610  Biso   1.000  H
  N7       1.0000 0.69810  0.03170  0.04700  Biso   1.000  N
  N8       1.0000 0.68620  0.18990  0.11270  Biso   1.000  N
  C15      1.0000 0.76840  0.96770  0.98170  Biso   1.000  C
  H15      1.0000 0.80870  0.94560  0.96310  Biso   1.000  H
  C16      1.0000 0.73400  0.21180  0.05900  Biso   1.000  C
  H16      1.0000 0.75940  0.18170  0.03050  Biso   1.000  H
  C17      1.0000 0.75370  0.98170  0.28960  Biso   1.000  C
  H17      1.0000 0.75890  0.94330  0.31870  Biso   1.000  H
  C18      1.0000 0.96310  0.99100  0.35200  Biso   1.000  C
  H18      1.0000 0.93340  0.95100  0.34610  Biso   1.000  H
  N9       1.0000 0.78170  0.05190  0.29700  Biso   1.000  N
  N10      1.0000 0.93990  0.06380  0.36270  Biso   1.000  N
  C19      1.0000 0.71770  0.98160  0.23170  Biso   1.000  C
  H19      1.0000 0.69560  0.94130  0.21310  Biso   1.000  H
  C20      1.0000 0.96180  0.01600  0.30900  Biso   1.000  C
  H20      1.0000 0.93170  0.99060  0.28050  Biso   1.000  H
  C21      1.0000 0.25370  0.48170  0.78960  Biso   1.000  C
  H21      1.0000 0.25890  0.44330  0.81870  Biso   1.000  H
  C22      1.0000 0.46310  0.49100  0.85200  Biso   1.000  C
  H22      1.0000 0.43340  0.45100  0.84610  Biso   1.000  H
  N11      1.0000 0.28170  0.55190  0.79700  Biso   1.000  N
  N12      1.0000 0.43990  0.56380  0.86270  Biso   1.000  N
  C23      1.0000 0.21770  0.48160  0.73170  Biso   1.000  C
  H23      1.0000 0.19560  0.44130  0.71310  Biso   1.000  H
  C24      1.0000 0.46180  0.51600  0.80900  Biso   1.000  C
  H24      1.0000 0.43170  0.49060  0.78050  Biso   1.000  H
  C25      1.0000 0.74630  0.01830  0.78960  Biso   1.000  C
  H25      1.0000 0.74110  0.05670  0.81870  Biso   1.000  H
  C26      1.0000 0.53690  0.00900  0.85200  Biso   1.000  C
  H26      1.0000 0.56660  0.04900  0.84610  Biso   1.000  H
  N13      1.0000 0.71830  0.94810  0.79700  Biso   1.000  N
  N14      1.0000 0.56010  0.93620  0.86270  Biso   1.000  N
  C27      1.0000 0.78230  0.01840  0.73170  Biso   1.000  C
  H27      1.0000 0.80440  0.05870  0.71310  Biso   1.000  H
  C28      1.0000 0.53820  0.98400  0.80900  Biso   1.000  C
  H28      1.0000 0.56830  0.00940  0.78050  Biso   1.000  H
  C29      1.0000 0.24630  0.51830  0.28960  Biso   1.000  C
  H29      1.0000 0.24110  0.55670  0.31870  Biso   1.000  H
  C30      1.0000 0.03690  0.50900  0.35200  Biso   1.000  C
  H30      1.0000 0.06660  0.54900  0.34610  Biso   1.000  H
  N15      1.0000 0.21830  0.44810  0.29700  Biso   1.000  N
  N16      1.0000 0.06010  0.43620  0.36270  Biso   1.000  N
  C31      1.0000 0.28230  0.51840  0.23170  Biso   1.000  C
  H31      1.0000 0.30440  0.55870  0.21310  Biso   1.000  H
  C32      1.0000 0.03820  0.48400  0.30900  Biso   1.000  C
  H32      1.0000 0.06830  0.50940  0.28050  Biso   1.000  H
  C33      1.0000 0.26830  0.49630  0.46040  Biso   1.000  C
  H33      1.0000 0.30670  0.49110  0.43130  Biso   1.000  H
  C34      1.0000 0.25900  0.28690  0.39800  Biso   1.000  C
  H34      1.0000 0.29900  0.31660  0.40390  Biso   1.000  H
  N17      1.0000 0.19810  0.46830  0.45300  Biso   1.000  N
  N18      1.0000 0.18620  0.31010  0.38730  Biso   1.000  N
  C35      1.0000 0.26840  0.53230  0.51830  Biso   1.000  C
  H35      1.0000 0.30870  0.55440  0.53690  Biso   1.000  H
  C36      1.0000 0.23400  0.28820  0.44100  Biso   1.000  C
  H36      1.0000 0.25940  0.31830  0.46950  Biso   1.000  H
  C37      1.0000 0.76830  0.99630  0.96040  Biso   1.000  C
  H37      1.0000 0.80670  0.99110  0.93130  Biso   1.000  H
  C38      1.0000 0.75900  0.78690  0.89800  Biso   1.000  C
  H38      1.0000 0.79900  0.81660  0.90390  Biso   1.000  H
  N19      1.0000 0.69810  0.96830  0.95300  Biso   1.000  N
  N20      1.0000 0.68620  0.81010  0.88730  Biso   1.000  N
  C39      1.0000 0.76840  0.03230  0.01830  Biso   1.000  C
  H39      1.0000 0.80870  0.05440  0.03690  Biso   1.000  H
  C40      1.0000 0.73400  0.78820  0.94100  Biso   1.000  C
  H40      1.0000 0.75940  0.81830  0.96950  Biso   1.000  H
  C41      1.0000 0.23170  0.50370  0.96040  Biso   1.000  C
  H41      1.0000 0.19330  0.50890  0.93130  Biso   1.000  H
  C42      1.0000 0.24100  0.71310  0.89800  Biso   1.000  C
  H42      1.0000 0.20100  0.68340  0.90390  Biso   1.000  H
  N21      1.0000 0.30190  0.53170  0.95300  Biso   1.000  N
  N22      1.0000 0.31380  0.68990  0.88730  Biso   1.000  N
  C43      1.0000 0.23160  0.46770  0.01830  Biso   1.000  C
  H43      1.0000 0.19130  0.44560  0.03690  Biso   1.000  H
  C44      1.0000 0.26600  0.71180  0.94100  Biso   1.000  C
  H44      1.0000 0.24060  0.68170  0.96950  Biso   1.000  H
  C45      1.0000 0.73170  0.00370  0.46040  Biso   1.000  C
  H45      1.0000 0.69330  0.00890  0.43130  Biso   1.000  H
  C46      1.0000 0.74100  0.21310  0.39800  Biso   1.000  C
  H46      1.0000 0.70100  0.18340  0.40390  Biso   1.000  H
  N23      1.0000 0.80190  0.03170  0.45300  Biso   1.000  N
  N24      1.0000 0.81380  0.18990  0.38730  Biso   1.000  N
  C47      1.0000 0.73160  0.96770  0.51830  Biso   1.000  C
  H47      1.0000 0.69130  0.94560  0.53690  Biso   1.000  H
  C48      1.0000 0.76600  0.21180  0.44100  Biso   1.000  C
  H48      1.0000 0.74060  0.18170  0.46950  Biso   1.000  H
  C49      1.0000 0.74630  0.98170  0.21040  Biso   1.000  C
  H49      1.0000 0.74110  0.94330  0.18130  Biso   1.000  H
  C50      1.0000 0.53690  0.99100  0.14800  Biso   1.000  C
  H50      1.0000 0.56660  0.95100  0.15390  Biso   1.000  H
  N25      1.0000 0.71830  0.05190  0.20300  Biso   1.000  N
  N26      1.0000 0.56010  0.06380  0.13730  Biso   1.000  N
  C51      1.0000 0.78230  0.98160  0.26830  Biso   1.000  C
  H51      1.0000 0.80440  0.94130  0.28690  Biso   1.000  H
  C52      1.0000 0.53820  0.01600  0.19100  Biso   1.000  C
  H52      1.0000 0.56830  0.99060  0.21950  Biso   1.000  H
  C53      1.0000 0.24630  0.48170  0.71040  Biso   1.000  C
  H53      1.0000 0.24110  0.44330  0.68130  Biso   1.000  H
  C54      1.0000 0.03690  0.49100  0.64800  Biso   1.000  C
  H54      1.0000 0.06660  0.45100  0.65390  Biso   1.000  H
  N27      1.0000 0.21830  0.55190  0.70300  Biso   1.000  N
  N28      1.0000 0.06010  0.56380  0.63730  Biso   1.000  N
  C55      1.0000 0.28230  0.48160  0.76830  Biso   1.000  C
  H55      1.0000 0.30440  0.44130  0.78690  Biso   1.000  H
  C56      1.0000 0.03820  0.51600  0.69100  Biso   1.000  C
  H56      1.0000 0.06830  0.49060  0.71950  Biso   1.000  H
  C57      1.0000 0.75370  0.01830  0.71040  Biso   1.000  C
  H57      1.0000 0.75890  0.05670  0.68130  Biso   1.000  H
  C58      1.0000 0.96310  0.00900  0.64800  Biso   1.000  C
  H58      1.0000 0.93340  0.04900  0.65390  Biso   1.000  H
  N29      1.0000 0.78170  0.94810  0.70300  Biso   1.000  N
  N30      1.0000 0.93990  0.93620  0.63730  Biso   1.000  N
  C59      1.0000 0.71770  0.01840  0.76830  Biso   1.000  C
  H59      1.0000 0.69560  0.05870  0.78690  Biso   1.000  H
  C60      1.0000 0.96180  0.98400  0.69100  Biso   1.000  C
  H60      1.0000 0.93170  0.00940  0.71950  Biso   1.000  H
  C61      1.0000 0.25370  0.51830  0.21040  Biso   1.000  C
  H61      1.0000 0.25890  0.55670  0.18130  Biso   1.000  H
  C62      1.0000 0.46310  0.50900  0.14800  Biso   1.000  C
  H62      1.0000 0.43340  0.54900  0.15390  Biso   1.000  H
  N31      1.0000 0.28170  0.44810  0.20300  Biso   1.000  N
  N32      1.0000 0.43990  0.43620  0.13730  Biso   1.000  N
  C63      1.0000 0.21770  0.51840  0.26830  Biso   1.000  C
  H63      1.0000 0.19560  0.55870  0.28690  Biso   1.000  H
  C64      1.0000 0.46180  0.48400  0.19100  Biso   1.000  C
  H64      1.0000 0.43170  0.50940  0.21950  Biso   1.000  H
  C65      1.0000 0.76830  0.50370  0.96040  Biso   1.000  C
  H65      1.0000 0.80670  0.50890  0.93130  Biso   1.000  H
  C66      1.0000 0.75900  0.71310  0.89800  Biso   1.000  C
  H66      1.0000 0.79900  0.68340  0.90390  Biso   1.000  H
  N33      1.0000 0.69810  0.53170  0.95300  Biso   1.000  N
  N34      1.0000 0.68620  0.68990  0.88730  Biso   1.000  N
  C67      1.0000 0.76840  0.46770  0.01830  Biso   1.000  C
  H67      1.0000 0.80870  0.44560  0.03690  Biso   1.000  H
  C68      1.0000 0.73400  0.71180  0.94100  Biso   1.000  C
  H68      1.0000 0.75940  0.68170  0.96950  Biso   1.000  H
  C69      1.0000 0.26830  0.00370  0.46040  Biso   1.000  C
  H69      1.0000 0.30670  0.00890  0.43130  Biso   1.000  H
  C70      1.0000 0.25900  0.21310  0.39800  Biso   1.000  C
  H70      1.0000 0.29900  0.18340  0.40390  Biso   1.000  H
  N35      1.0000 0.19810  0.03170  0.45300  Biso   1.000  N
  N36      1.0000 0.18620  0.18990  0.38730  Biso   1.000  N
  C71      1.0000 0.26840  0.96770  0.51830  Biso   1.000  C
  H71      1.0000 0.30870  0.94560  0.53690  Biso   1.000  H
  C72      1.0000 0.23400  0.21180  0.44100  Biso   1.000  C
  H72      1.0000 0.25940  0.18170  0.46950  Biso   1.000  H
  C73      1.0000 0.73170  0.49630  0.46040  Biso   1.000  C
  H73      1.0000 0.69330  0.49110  0.43130  Biso   1.000  H
  C74      1.0000 0.74100  0.28690  0.39800  Biso   1.000  C
  H74      1.0000 0.70100  0.31660  0.40390  Biso   1.000  H
  N37      1.0000 0.80190  0.46830  0.45300  Biso   1.000  N
  N38      1.0000 0.81380  0.31010  0.38730  Biso   1.000  N
  C75      1.0000 0.73160  0.53230  0.51830  Biso   1.000  C
  H75      1.0000 0.69130  0.55440  0.53690  Biso   1.000  H
  C76      1.0000 0.76600  0.28820  0.44100  Biso   1.000  C
  H76      1.0000 0.74060  0.31830  0.46950  Biso   1.000  H
  C77      1.0000 0.23170  0.99630  0.96040  Biso   1.000  C
  H77      1.0000 0.19330  0.99110  0.93130  Biso   1.000  H
  C78      1.0000 0.24100  0.78690  0.89800  Biso   1.000  C
  H78      1.0000 0.20100  0.81660  0.90390  Biso   1.000  H
  N39      1.0000 0.30190  0.96830  0.95300  Biso   1.000  N
  N40      1.0000 0.31380  0.81010  0.88730  Biso   1.000  N
  C79      1.0000 0.23160  0.03230  0.01830  Biso   1.000  C
  H79      1.0000 0.19130  0.05440  0.03690  Biso   1.000  H
  C80      1.0000 0.26600  0.78820  0.94100  Biso   1.000  C
  H80      1.0000 0.24060  0.81830  0.96950  Biso   1.000  H
  C81      1.0000 0.24630  0.01830  0.71040  Biso   1.000  C
  H81      1.0000 0.24110  0.05670  0.68130  Biso   1.000  H
  C82      1.0000 0.03690  0.00900  0.64800  Biso   1.000  C
  H82      1.0000 0.06660  0.04900  0.65390  Biso   1.000  H
  N41      1.0000 0.21830  0.94810  0.70300  Biso   1.000  N
  N42      1.0000 0.06010  0.93620  0.63730  Biso   1.000  N
  C83      1.0000 0.28230  0.01840  0.76830  Biso   1.000  C
  H83      1.0000 0.30440  0.05870  0.78690  Biso   1.000  H
  C84      1.0000 0.03820  0.98400  0.69100  Biso   1.000  C
  H84      1.0000 0.06830  0.00940  0.71950  Biso   1.000  H
  C85      1.0000 0.74630  0.51830  0.21040  Biso   1.000  C
  H85      1.0000 0.74110  0.55670  0.18130  Biso   1.000  H
  C86      1.0000 0.53690  0.50900  0.14800  Biso   1.000  C
  H86      1.0000 0.56660  0.54900  0.15390  Biso   1.000  H
  N43      1.0000 0.71830  0.44810  0.20300  Biso   1.000  N
  N44      1.0000 0.56010  0.43620  0.13730  Biso   1.000  N
  C87      1.0000 0.78230  0.51840  0.26830  Biso   1.000  C
  H87      1.0000 0.80440  0.55870  0.28690  Biso   1.000  H
  C88      1.0000 0.53820  0.48400  0.19100  Biso   1.000  C
  H88      1.0000 0.56830  0.50940  0.21950  Biso   1.000  H
  C89      1.0000 0.25370  0.98170  0.21040  Biso   1.000  C
  H89      1.0000 0.25890  0.94330  0.18130  Biso   1.000  H
  C90      1.0000 0.46310  0.99100  0.14800  Biso   1.000  C
  H90      1.0000 0.43340  0.95100  0.15390  Biso   1.000  H
  N45      1.0000 0.28170  0.05190  0.20300  Biso   1.000  N
  N46      1.0000 0.43990  0.06380  0.13730  Biso   1.000  N
  C91      1.0000 0.21770  0.98160  0.26830  Biso   1.000  C
  H91      1.0000 0.19560  0.94130  0.28690  Biso   1.000  H
  C92      1.0000 0.46180  0.01600  0.19100  Biso   1.000  C
  H92      1.0000 0.43170  0.99060  0.21950  Biso   1.000  H
  C93      1.0000 0.75370  0.48170  0.71040  Biso   1.000  C
  H93      1.0000 0.75890  0.44330  0.68130  Biso   1.000  H
  C94      1.0000 0.96310  0.49100  0.64800  Biso   1.000  C
  H94      1.0000 0.93340  0.45100  0.65390  Biso   1.000  H
  N47      1.0000 0.78170  0.55190  0.70300  Biso   1.000  N
  N48      1.0000 0.93990  0.56380  0.63730  Biso   1.000  N
  C95      1.0000 0.71770  0.48160  0.76830  Biso   1.000  C
  H95      1.0000 0.69560  0.44130  0.78690  Biso   1.000  H
  C96      1.0000 0.96180  0.51600  0.69100  Biso   1.000  C
  H96      1.0000 0.93170  0.49060  0.71950  Biso   1.000  H
  C97      1.0000 0.73170  0.50370  0.53960  Biso   1.000  C
  H97      1.0000 0.69330  0.50890  0.56870  Biso   1.000  H
  C98      1.0000 0.74100  0.71310  0.60200  Biso   1.000  C
  H98      1.0000 0.70100  0.68340  0.59610  Biso   1.000  H
  N49      1.0000 0.80190  0.53170  0.54700  Biso   1.000  N
  N50      1.0000 0.81380  0.68990  0.61270  Biso   1.000  N
  C99      1.0000 0.73160  0.46770  0.48170  Biso   1.000  C
  H99      1.0000 0.69130  0.44560  0.46310  Biso   1.000  H
  C100     1.0000 0.76600  0.71180  0.55900  Biso   1.000  C
  H100     1.0000 0.74060  0.68170  0.53050  Biso   1.000  H
  C101     1.0000 0.23170  0.00370  0.03960  Biso   1.000  C
  H101     1.0000 0.19330  0.00890  0.06870  Biso   1.000  H
  C102     1.0000 0.24100  0.21310  0.10200  Biso   1.000  C
  H102     1.0000 0.20100  0.18340  0.09610  Biso   1.000  H
  N51      1.0000 0.30190  0.03170  0.04700  Biso   1.000  N
  N52      1.0000 0.31380  0.18990  0.11270  Biso   1.000  N
  C103     1.0000 0.23160  0.96770  0.98170  Biso   1.000  C
  H103     1.0000 0.19130  0.94560  0.96310  Biso   1.000  H
  C104     1.0000 0.26600  0.21180  0.05900  Biso   1.000  C
  H104     1.0000 0.24060  0.18170  0.03050  Biso   1.000  H
  C105     1.0000 0.76830  0.49630  0.03960  Biso   1.000  C
  H105     1.0000 0.80670  0.49110  0.06870  Biso   1.000  H
  C106     1.0000 0.75900  0.28690  0.10200  Biso   1.000  C
  H106     1.0000 0.79900  0.31660  0.09610  Biso   1.000  H
  N53      1.0000 0.69810  0.46830  0.04700  Biso   1.000  N
  N54      1.0000 0.68620  0.31010  0.11270  Biso   1.000  N
  C107     1.0000 0.76840  0.53230  0.98170  Biso   1.000  C
  H107     1.0000 0.80870  0.55440  0.96310  Biso   1.000  H
  C108     1.0000 0.73400  0.28820  0.05900  Biso   1.000  C
  H108     1.0000 0.75940  0.31830  0.03050  Biso   1.000  H
  C109     1.0000 0.26830  0.99630  0.53960  Biso   1.000  C
  H109     1.0000 0.30670  0.99110  0.56870  Biso   1.000  H
  C110     1.0000 0.25900  0.78690  0.60200  Biso   1.000  C
  H110     1.0000 0.29900  0.81660  0.59610  Biso   1.000  H
  N55      1.0000 0.19810  0.96830  0.54700  Biso   1.000  N
  N56      1.0000 0.18620  0.81010  0.61270  Biso   1.000  N
  C111     1.0000 0.26840  0.03230  0.48170  Biso   1.000  C
  H111     1.0000 0.30870  0.05440  0.46310  Biso   1.000  H
  C112     1.0000 0.23400  0.78820  0.55900  Biso   1.000  C
  H112     1.0000 0.25940  0.81830  0.53050  Biso   1.000  H
  C113     1.0000 0.25370  0.01830  0.78960  Biso   1.000  C
  H113     1.0000 0.25890  0.05670  0.81870  Biso   1.000  H
  C114     1.0000 0.46310  0.00900  0.85200  Biso   1.000  C
  H114     1.0000 0.43340  0.04900  0.84610  Biso   1.000  H
  N57      1.0000 0.28170  0.94810  0.79700  Biso   1.000  N
  N58      1.0000 0.43990  0.93620  0.86270  Biso   1.000  N
  C115     1.0000 0.21770  0.01840  0.73170  Biso   1.000  C
  H115     1.0000 0.19560  0.05870  0.71310  Biso   1.000  H
  C116     1.0000 0.46180  0.98400  0.80900  Biso   1.000  C
  H116     1.0000 0.43170  0.00940  0.78050  Biso   1.000  H
  C117     1.0000 0.75370  0.51830  0.28960  Biso   1.000  C
  H117     1.0000 0.75890  0.55670  0.31870  Biso   1.000  H
  C118     1.0000 0.96310  0.50900  0.35200  Biso   1.000  C
  H118     1.0000 0.93340  0.54900  0.34610  Biso   1.000  H
  N59      1.0000 0.78170  0.44810  0.29700  Biso   1.000  N
  N60      1.0000 0.93990  0.43620  0.36270  Biso   1.000  N
  C119     1.0000 0.71770  0.51840  0.23170  Biso   1.000  C
  H119     1.0000 0.69560  0.55870  0.21310  Biso   1.000  H
  C120     1.0000 0.96180  0.48400  0.30900  Biso   1.000  C
  H120     1.0000 0.93170  0.50940  0.28050  Biso   1.000  H
  C121     1.0000 0.24630  0.98170  0.28960  Biso   1.000  C
  H121     1.0000 0.24110  0.94330  0.31870  Biso   1.000  H
  C122     1.0000 0.03690  0.99100  0.35200  Biso   1.000  C
  H122     1.0000 0.06660  0.95100  0.34610  Biso   1.000  H
  N61      1.0000 0.21830  0.05190  0.29700  Biso   1.000  N
  N62      1.0000 0.06010  0.06380  0.36270  Biso   1.000  N
  C123     1.0000 0.28230  0.98160  0.23170  Biso   1.000  C
  H123     1.0000 0.30440  0.94130  0.21310  Biso   1.000  H
  C124     1.0000 0.03820  0.01600  0.30900  Biso   1.000  C
  H124     1.0000 0.06830  0.99060  0.28050  Biso   1.000  H
  C125     1.0000 0.74630  0.48170  0.78960  Biso   1.000  C
  H125     1.0000 0.74110  0.44330  0.81870  Biso   1.000  H
  C126     1.0000 0.53690  0.49100  0.85200  Biso   1.000  C
  H126     1.0000 0.56660  0.45100  0.84610  Biso   1.000  H
  N63      1.0000 0.71830  0.55190  0.79700  Biso   1.000  N
  N64      1.0000 0.56010  0.56380  0.86270  Biso   1.000  N
  C127     1.0000 0.78230  0.48160  0.73170  Biso   1.000  C
  H127     1.0000 0.80440  0.44130  0.71310  Biso   1.000  H
  C128     1.0000 0.53820  0.51600  0.80900  Biso   1.000  C
  H128     1.0000 0.56830  0.49060  0.78050  Biso   1.000  H
  C129     1.0000 0.34090  0.50000  0.00000  Biso   1.000  C
  H129     1.0000 0.39110  0.50000  0.00000  Biso   1.000  H
  C130     1.0000 0.84090  0.00000  0.50000  Biso   1.000  C
  H130     1.0000 0.89110  0.00000  0.50000  Biso   1.000  H
  C131     1.0000 0.15910  0.50000  0.50000  Biso   1.000  C
  H131     1.0000 0.10890  0.50000  0.50000  Biso   1.000  H
  C132     1.0000 0.65910  0.00000  0.00000  Biso   1.000  C
  H132     1.0000 0.60890  0.00000  0.00000  Biso   1.000  H
  C133     1.0000 0.75000  0.09090  0.25000  Biso   1.000  C
  H133     1.0000 0.75000  0.14110  0.25000  Biso   1.000  H
  C134     1.0000 0.25000  0.59090  0.75000  Biso   1.000  C
  H134     1.0000 0.25000  0.64110  0.75000  Biso   1.000  H
  C135     1.0000 0.75000  0.90910  0.75000  Biso   1.000  C
  H135     1.0000 0.75000  0.85890  0.75000  Biso   1.000  H
  C136     1.0000 0.25000  0.40910  0.25000  Biso   1.000  C
  H136     1.0000 0.25000  0.35890  0.25000  Biso   1.000  H
  C137     1.0000 0.65910  0.50000  0.00000  Biso   1.000  C
  H137     1.0000 0.60890  0.50000  0.00000  Biso   1.000  H
  C138     1.0000 0.15910  0.00000  0.50000  Biso   1.000  C
  H138     1.0000 0.10890  0.00000  0.50000  Biso   1.000  H
  C139     1.0000 0.84090  0.50000  0.50000  Biso   1.000  C
  H139     1.0000 0.89110  0.50000  0.50000  Biso   1.000  H
  C140     1.0000 0.34090  0.00000  0.00000  Biso   1.000  C
  H140     1.0000 0.39110  0.00000  0.00000  Biso   1.000  H
  C141     1.0000 0.25000  0.90910  0.75000  Biso   1.000  C
  H141     1.0000 0.25000  0.85890  0.75000  Biso   1.000  H
  C142     1.0000 0.75000  0.40910  0.25000  Biso   1.000  C
  H142     1.0000 0.75000  0.35890  0.25000  Biso   1.000  H
  C143     1.0000 0.25000  0.09090  0.25000  Biso   1.000  C
  H143     1.0000 0.25000  0.14110  0.25000  Biso   1.000  H
  C144     1.0000 0.75000  0.59090  0.75000  Biso   1.000  C
  H144     1.0000 0.75000  0.64110  0.75000  Biso   1.000  H
  C145     1.0000 0.34770  0.25000  0.12760  Biso   1.000  C
  H145     1.0000 0.39300  0.25000  0.14750  Biso   1.000  H
  C146     1.0000 0.15230  0.75000  0.62760  Biso   1.000  C
  H146     1.0000 0.10700  0.75000  0.64750  Biso   1.000  H
  C147     1.0000 0.00000  0.09770  0.37760  Biso   1.000  C
  H147     1.0000 0.00000  0.14300  0.39750  Biso   1.000  H
  C148     1.0000 0.50000  0.59770  0.87760  Biso   1.000  C
  H148     1.0000 0.50000  0.64300  0.89750  Biso   1.000  H
  C149     1.0000 0.50000  0.90230  0.87760  Biso   1.000  C
  H149     1.0000 0.50000  0.85700  0.89750  Biso   1.000  H
  C150     1.0000 0.00000  0.40230  0.37760  Biso   1.000  C
  H150     1.0000 0.00000  0.35700  0.39750  Biso   1.000  H
  C151     1.0000 0.15230  0.25000  0.37240  Biso   1.000  C
  H151     1.0000 0.10700  0.25000  0.35250  Biso   1.000  H
  C152     1.0000 0.34770  0.75000  0.87240  Biso   1.000  C
  H152     1.0000 0.39300  0.75000  0.85250  Biso   1.000  H
  C153     1.0000 0.84770  0.25000  0.37240  Biso   1.000  C
  H153     1.0000 0.89300  0.25000  0.35250  Biso   1.000  H
  C154     1.0000 0.50000  0.09770  0.12240  Biso   1.000  C
  H154     1.0000 0.50000  0.14300  0.10250  Biso   1.000  H
  C155     1.0000 0.00000  0.59770  0.62240  Biso   1.000  C
  H155     1.0000 0.00000  0.64300  0.60250  Biso   1.000  H
  C156     1.0000 0.00000  0.90230  0.62240  Biso   1.000  C
  H156     1.0000 0.00000  0.85700  0.60250  Biso   1.000  H
  C157     1.0000 0.50000  0.40230  0.12240  Biso   1.000  C
  H157     1.0000 0.50000  0.35700  0.10250  Biso   1.000  H
  C158     1.0000 0.65230  0.75000  0.87240  Biso   1.000  C
  H158     1.0000 0.60700  0.75000  0.85250  Biso   1.000  H
  C159     1.0000 0.84770  0.75000  0.62760  Biso   1.000  C
  H159     1.0000 0.89300  0.75000  0.64750  Biso   1.000  H
  C160     1.0000 0.65230  0.25000  0.12760  Biso   1.000  C
  H160     1.0000 0.60700  0.25000  0.14750  Biso   1.000  H
  Zn1      1.0000 0.33653  0.41347  0.12500  Biso   1.000  Zn
  Zn2      1.0000 0.16347  0.58653  0.62500  Biso   1.000  Zn
  Zn3      1.0000 0.83653  0.08653  0.37500  Biso   1.000  Zn
  Zn4      1.0000 0.66347  0.91347  0.87500  Biso   1.000  Zn
  Zn5      1.0000 0.16347  0.41347  0.37500  Biso   1.000  Zn
  Zn6      1.0000 0.33653  0.58653  0.87500  Biso   1.000  Zn
  Zn7      1.0000 0.66347  0.08653  0.12500  Biso   1.000  Zn
  Zn8      1.0000 0.83653  0.91347  0.62500  Biso   1.000  Zn
  Zn9      1.0000 0.66347  0.58653  0.87500  Biso   1.000  Zn
  Zn10     1.0000 0.83653  0.41347  0.37500  Biso   1.000  Zn
  Zn11     1.0000 0.16347  0.91347  0.62500  Biso   1.000  Zn
  Zn12     1.0000 0.33653  0.08653  0.12500  Biso   1.000  Zn
  Zn13     1.0000 0.83653  0.58653  0.62500  Biso   1.000  Zn
  Zn14     1.0000 0.66347  0.41347  0.12500  Biso   1.000  Zn
  Zn15     1.0000 0.33653  0.91347  0.87500  Biso   1.000  Zn
  Zn16     1.0000 0.16347  0.08653  0.37500  Biso   1.000  Zn
