data_image0
_cell_length_a       24.25
_cell_length_b       24.25
_cell_length_c       15.232
_cell_angle_alpha    90
_cell_angle_beta     90
_cell_angle_gamma    90

_symmetry_space_group_name_H-M    "P 1"
_symmetry_int_tables_number       1

loop_
  _symmetry_equiv_pos_as_xyz
  'x, y, z'

loop_
  _atom_site_label
  _atom_site_occupancy
  _atom_site_fract_x
  _atom_site_fract_y
  _atom_site_fract_z
  _atom_site_thermal_displace_type
  _atom_site_B_iso_or_equiv
  _atom_site_type_symbol
  O1       1.0000 0.44557  0.14750  0.08590  Biso   1.000  O
  O2       1.0000 0.39751  0.08398  0.16110  Biso   1.000  O
  C1       1.0000 0.40774  0.13222  0.13810  Biso   1.000  C
  C2       1.0000 0.37113  0.17636  0.17400  Biso   1.000  C
  C3       1.0000 0.30153  0.26027  0.23060  Biso   1.000  C
  C4       1.0000 0.38320  0.23095  0.15380  Biso   1.000  C
  H1       1.0000 0.41530  0.23960  0.12060  Biso   1.000  H
  C5       1.0000 0.32420  0.16373  0.22250  Biso   1.000  C
  H2       1.0000 0.31600  0.12640  0.23630  Biso   1.000  H
  C6       1.0000 0.34840  0.27290  0.18210  Biso   1.000  C
  C7       1.0000 0.28940  0.20568  0.25080  Biso   1.000  C
  H3       1.0000 0.25740  0.19700  0.28390  Biso   1.000  H
  O3       1.0000 0.32970  0.36580  0.16160  Biso   1.000  O
  O4       1.0000 0.41430  0.33950  0.14780  Biso   1.000  O
  N1       1.0000 0.36520  0.33010  0.16250  Biso   1.000  N
  C8       1.0000 0.36846  0.22565  0.12760  Biso   1.000  C
  H4       1.0000 0.39040  0.23070  0.07660  Biso   1.000  H
  C9       1.0000 0.33900  0.16901  0.24870  Biso   1.000  C
  H5       1.0000 0.34080  0.13530  0.28040  Biso   1.000  H
  C10      1.0000 0.33365  0.26760  0.15590  Biso   1.000  C
  C11      1.0000 0.30420  0.21096  0.27700  Biso   1.000  C
  H6       1.0000 0.28220  0.20590  0.32800  Biso   1.000  H
  O5       1.0000 0.31280  0.36060  0.14030  Biso   1.000  O
  O6       1.0000 0.34950  0.31850  0.02950  Biso   1.000  O
  N2       1.0000 0.33150  0.31960  0.10560  Biso   1.000  N
  O7       1.0000 0.55443  0.85250  0.08590  Biso   1.000  O
  O8       1.0000 0.60249  0.91602  0.16110  Biso   1.000  O
  C12      1.0000 0.59226  0.86778  0.13810  Biso   1.000  C
  C13      1.0000 0.62887  0.82364  0.17400  Biso   1.000  C
  C14      1.0000 0.69847  0.73973  0.23060  Biso   1.000  C
  C15      1.0000 0.61680  0.76905  0.15380  Biso   1.000  C
  H7       1.0000 0.58470  0.76040  0.12060  Biso   1.000  H
  C16      1.0000 0.67580  0.83627  0.22250  Biso   1.000  C
  H8       1.0000 0.68400  0.87360  0.23630  Biso   1.000  H
  C17      1.0000 0.65160  0.72710  0.18210  Biso   1.000  C
  C18      1.0000 0.71060  0.79432  0.25080  Biso   1.000  C
  H9       1.0000 0.74260  0.80300  0.28390  Biso   1.000  H
  O9       1.0000 0.67030  0.63420  0.16160  Biso   1.000  O
  O10      1.0000 0.58570  0.66050  0.14780  Biso   1.000  O
  N3       1.0000 0.63480  0.66990  0.16250  Biso   1.000  N
  C19      1.0000 0.63154  0.77435  0.12760  Biso   1.000  C
  H10      1.0000 0.60960  0.76930  0.07660  Biso   1.000  H
  C20      1.0000 0.66100  0.83099  0.24870  Biso   1.000  C
  H11      1.0000 0.65920  0.86470  0.28040  Biso   1.000  H
  C21      1.0000 0.66635  0.73240  0.15590  Biso   1.000  C
  C22      1.0000 0.69580  0.78904  0.27700  Biso   1.000  C
  H12      1.0000 0.71780  0.79410  0.32800  Biso   1.000  H
  O11      1.0000 0.68720  0.63940  0.14030  Biso   1.000  O
  O12      1.0000 0.65050  0.68150  0.02950  Biso   1.000  O
  N4       1.0000 0.66850  0.68040  0.10560  Biso   1.000  N
  O13      1.0000 0.85250  0.44557  0.58590  Biso   1.000  O
  O14      1.0000 0.91602  0.39751  0.66110  Biso   1.000  O
  C23      1.0000 0.86778  0.40774  0.63810  Biso   1.000  C
  C24      1.0000 0.82364  0.37113  0.67400  Biso   1.000  C
  C25      1.0000 0.73973  0.30153  0.73060  Biso   1.000  C
  C26      1.0000 0.76905  0.38320  0.65380  Biso   1.000  C
  H13      1.0000 0.76040  0.41530  0.62060  Biso   1.000  H
  C27      1.0000 0.83627  0.32420  0.72250  Biso   1.000  C
  H14      1.0000 0.87360  0.31600  0.73630  Biso   1.000  H
  C28      1.0000 0.72710  0.34840  0.68210  Biso   1.000  C
  C29      1.0000 0.79432  0.28940  0.75080  Biso   1.000  C
  H15      1.0000 0.80300  0.25740  0.78390  Biso   1.000  H
  O15      1.0000 0.63420  0.32970  0.66160  Biso   1.000  O
  O16      1.0000 0.66050  0.41430  0.64780  Biso   1.000  O
  N5       1.0000 0.66990  0.36520  0.66250  Biso   1.000  N
  C30      1.0000 0.77435  0.36846  0.62760  Biso   1.000  C
  H16      1.0000 0.76930  0.39040  0.57660  Biso   1.000  H
  C31      1.0000 0.83099  0.33900  0.74870  Biso   1.000  C
  H17      1.0000 0.86470  0.34080  0.78040  Biso   1.000  H
  C32      1.0000 0.73240  0.33365  0.65590  Biso   1.000  C
  C33      1.0000 0.78904  0.30420  0.77700  Biso   1.000  C
  H18      1.0000 0.79410  0.28220  0.82800  Biso   1.000  H
  O17      1.0000 0.63940  0.31280  0.64030  Biso   1.000  O
  O18      1.0000 0.68150  0.34950  0.52950  Biso   1.000  O
  N6       1.0000 0.68040  0.33150  0.60560  Biso   1.000  N
  O19      1.0000 0.14750  0.55443  0.58590  Biso   1.000  O
  O20      1.0000 0.08398  0.60249  0.66110  Biso   1.000  O
  C34      1.0000 0.13222  0.59226  0.63810  Biso   1.000  C
  C35      1.0000 0.17636  0.62887  0.67400  Biso   1.000  C
  C36      1.0000 0.26027  0.69847  0.73060  Biso   1.000  C
  C37      1.0000 0.23095  0.61680  0.65380  Biso   1.000  C
  H19      1.0000 0.23960  0.58470  0.62060  Biso   1.000  H
  C38      1.0000 0.16373  0.67580  0.72250  Biso   1.000  C
  H20      1.0000 0.12640  0.68400  0.73630  Biso   1.000  H
  C39      1.0000 0.27290  0.65160  0.68210  Biso   1.000  C
  C40      1.0000 0.20568  0.71060  0.75080  Biso   1.000  C
  H21      1.0000 0.19700  0.74260  0.78390  Biso   1.000  H
  O21      1.0000 0.36580  0.67030  0.66160  Biso   1.000  O
  O22      1.0000 0.33950  0.58570  0.64780  Biso   1.000  O
  N7       1.0000 0.33010  0.63480  0.66250  Biso   1.000  N
  C41      1.0000 0.22565  0.63154  0.62760  Biso   1.000  C
  H22      1.0000 0.23070  0.60960  0.57660  Biso   1.000  H
  C42      1.0000 0.16901  0.66100  0.74870  Biso   1.000  C
  H23      1.0000 0.13530  0.65920  0.78040  Biso   1.000  H
  C43      1.0000 0.26760  0.66635  0.65590  Biso   1.000  C
  C44      1.0000 0.21096  0.69580  0.77700  Biso   1.000  C
  H24      1.0000 0.20590  0.71780  0.82800  Biso   1.000  H
  O23      1.0000 0.36060  0.68720  0.64030  Biso   1.000  O
  O24      1.0000 0.31850  0.65050  0.52950  Biso   1.000  O
  N8       1.0000 0.31960  0.66850  0.60560  Biso   1.000  N
  O25      1.0000 0.55443  0.14750  0.91410  Biso   1.000  O
  O26      1.0000 0.60249  0.08398  0.83890  Biso   1.000  O
  C45      1.0000 0.59226  0.13222  0.86190  Biso   1.000  C
  C46      1.0000 0.62887  0.17636  0.82600  Biso   1.000  C
  C47      1.0000 0.69847  0.26027  0.76940  Biso   1.000  C
  C48      1.0000 0.61680  0.23095  0.84620  Biso   1.000  C
  H25      1.0000 0.58470  0.23960  0.87940  Biso   1.000  H
  C49      1.0000 0.67580  0.16373  0.77750  Biso   1.000  C
  H26      1.0000 0.68400  0.12640  0.76370  Biso   1.000  H
  C50      1.0000 0.65160  0.27290  0.81790  Biso   1.000  C
  C51      1.0000 0.71060  0.20568  0.74920  Biso   1.000  C
  H27      1.0000 0.74260  0.19700  0.71610  Biso   1.000  H
  O27      1.0000 0.67030  0.36580  0.83840  Biso   1.000  O
  O28      1.0000 0.58570  0.33950  0.85220  Biso   1.000  O
  N9       1.0000 0.63480  0.33010  0.83750  Biso   1.000  N
  C52      1.0000 0.63154  0.22565  0.87240  Biso   1.000  C
  H28      1.0000 0.60960  0.23070  0.92340  Biso   1.000  H
  C53      1.0000 0.66100  0.16901  0.75130  Biso   1.000  C
  H29      1.0000 0.65920  0.13530  0.71960  Biso   1.000  H
  C54      1.0000 0.66635  0.26760  0.84410  Biso   1.000  C
  C55      1.0000 0.69580  0.21096  0.72300  Biso   1.000  C
  H30      1.0000 0.71780  0.20590  0.67200  Biso   1.000  H
  O29      1.0000 0.68720  0.36060  0.85970  Biso   1.000  O
  O30      1.0000 0.65050  0.31850  0.97050  Biso   1.000  O
  N10      1.0000 0.66850  0.31960  0.89440  Biso   1.000  N
  O31      1.0000 0.44557  0.85250  0.91410  Biso   1.000  O
  O32      1.0000 0.39751  0.91602  0.83890  Biso   1.000  O
  C56      1.0000 0.40774  0.86778  0.86190  Biso   1.000  C
  C57      1.0000 0.37113  0.82364  0.82600  Biso   1.000  C
  C58      1.0000 0.30153  0.73973  0.76940  Biso   1.000  C
  C59      1.0000 0.38320  0.76905  0.84620  Biso   1.000  C
  H31      1.0000 0.41530  0.76040  0.87940  Biso   1.000  H
  C60      1.0000 0.32420  0.83627  0.77750  Biso   1.000  C
  H32      1.0000 0.31600  0.87360  0.76370  Biso   1.000  H
  C61      1.0000 0.34840  0.72710  0.81790  Biso   1.000  C
  C62      1.0000 0.28940  0.79432  0.74920  Biso   1.000  C
  H33      1.0000 0.25740  0.80300  0.71610  Biso   1.000  H
  O33      1.0000 0.32970  0.63420  0.83840  Biso   1.000  O
  O34      1.0000 0.41430  0.66050  0.85220  Biso   1.000  O
  N11      1.0000 0.36520  0.66990  0.83750  Biso   1.000  N
  C63      1.0000 0.36846  0.77435  0.87240  Biso   1.000  C
  H34      1.0000 0.39040  0.76930  0.92340  Biso   1.000  H
  C64      1.0000 0.33900  0.83099  0.75130  Biso   1.000  C
  H35      1.0000 0.34080  0.86470  0.71960  Biso   1.000  H
  C65      1.0000 0.33365  0.73240  0.84410  Biso   1.000  C
  C66      1.0000 0.30420  0.78904  0.72300  Biso   1.000  C
  H36      1.0000 0.28220  0.79410  0.67200  Biso   1.000  H
  O35      1.0000 0.31280  0.63940  0.85970  Biso   1.000  O
  O36      1.0000 0.34950  0.68150  0.97050  Biso   1.000  O
  N12      1.0000 0.33150  0.68040  0.89440  Biso   1.000  N
  O37      1.0000 0.14750  0.44557  0.41410  Biso   1.000  O
  O38      1.0000 0.08398  0.39751  0.33890  Biso   1.000  O
  C67      1.0000 0.13222  0.40774  0.36190  Biso   1.000  C
  C68      1.0000 0.17636  0.37113  0.32600  Biso   1.000  C
  C69      1.0000 0.26027  0.30153  0.26940  Biso   1.000  C
  C70      1.0000 0.23095  0.38320  0.34620  Biso   1.000  C
  H37      1.0000 0.23960  0.41530  0.37940  Biso   1.000  H
  C71      1.0000 0.16373  0.32420  0.27750  Biso   1.000  C
  H38      1.0000 0.12640  0.31600  0.26370  Biso   1.000  H
  C72      1.0000 0.27290  0.34840  0.31790  Biso   1.000  C
  C73      1.0000 0.20568  0.28940  0.24920  Biso   1.000  C
  H39      1.0000 0.19700  0.25740  0.21610  Biso   1.000  H
  O39      1.0000 0.36580  0.32970  0.33840  Biso   1.000  O
  O40      1.0000 0.33950  0.41430  0.35220  Biso   1.000  O
  N13      1.0000 0.33010  0.36520  0.33750  Biso   1.000  N
  C74      1.0000 0.22565  0.36846  0.37240  Biso   1.000  C
  H40      1.0000 0.23070  0.39040  0.42340  Biso   1.000  H
  C75      1.0000 0.16901  0.33900  0.25130  Biso   1.000  C
  H41      1.0000 0.13530  0.34080  0.21960  Biso   1.000  H
  C76      1.0000 0.26760  0.33365  0.34410  Biso   1.000  C
  C77      1.0000 0.21096  0.30420  0.22300  Biso   1.000  C
  H42      1.0000 0.20590  0.28220  0.17200  Biso   1.000  H
  O41      1.0000 0.36060  0.31280  0.35970  Biso   1.000  O
  O42      1.0000 0.31850  0.34950  0.47050  Biso   1.000  O
  N14      1.0000 0.31960  0.33150  0.39440  Biso   1.000  N
  O43      1.0000 0.85250  0.55443  0.41410  Biso   1.000  O
  O44      1.0000 0.91602  0.60249  0.33890  Biso   1.000  O
  C78      1.0000 0.86778  0.59226  0.36190  Biso   1.000  C
  C79      1.0000 0.82364  0.62887  0.32600  Biso   1.000  C
  C80      1.0000 0.73973  0.69847  0.26940  Biso   1.000  C
  C81      1.0000 0.76905  0.61680  0.34620  Biso   1.000  C
  H43      1.0000 0.76040  0.58470  0.37940  Biso   1.000  H
  C82      1.0000 0.83627  0.67580  0.27750  Biso   1.000  C
  H44      1.0000 0.87360  0.68400  0.26370  Biso   1.000  H
  C83      1.0000 0.72710  0.65160  0.31790  Biso   1.000  C
  C84      1.0000 0.79432  0.71060  0.24920  Biso   1.000  C
  H45      1.0000 0.80300  0.74260  0.21610  Biso   1.000  H
  O45      1.0000 0.63420  0.67030  0.33840  Biso   1.000  O
  O46      1.0000 0.66050  0.58570  0.35220  Biso   1.000  O
  N15      1.0000 0.66990  0.63480  0.33750  Biso   1.000  N
  C85      1.0000 0.77435  0.63154  0.37240  Biso   1.000  C
  H46      1.0000 0.76930  0.60960  0.42340  Biso   1.000  H
  C86      1.0000 0.83099  0.66100  0.25130  Biso   1.000  C
  H47      1.0000 0.86470  0.65920  0.21960  Biso   1.000  H
  C87      1.0000 0.73240  0.66635  0.34410  Biso   1.000  C
  C88      1.0000 0.78904  0.69580  0.22300  Biso   1.000  C
  H48      1.0000 0.79410  0.71780  0.17200  Biso   1.000  H
  O47      1.0000 0.63940  0.68720  0.35970  Biso   1.000  O
  O48      1.0000 0.68150  0.65050  0.47050  Biso   1.000  O
  N16      1.0000 0.68040  0.66850  0.39440  Biso   1.000  N
  O49      1.0000 0.55443  0.85250  0.91410  Biso   1.000  O
  O50      1.0000 0.60249  0.91602  0.83890  Biso   1.000  O
  C89      1.0000 0.59226  0.86778  0.86190  Biso   1.000  C
  C90      1.0000 0.62887  0.82364  0.82600  Biso   1.000  C
  C91      1.0000 0.69847  0.73973  0.76940  Biso   1.000  C
  C92      1.0000 0.61680  0.76905  0.84620  Biso   1.000  C
  H49      1.0000 0.58470  0.76040  0.87940  Biso   1.000  H
  C93      1.0000 0.67580  0.83627  0.77750  Biso   1.000  C
  H50      1.0000 0.68400  0.87360  0.76370  Biso   1.000  H
  C94      1.0000 0.65160  0.72710  0.81790  Biso   1.000  C
  C95      1.0000 0.71060  0.79432  0.74920  Biso   1.000  C
  H51      1.0000 0.74260  0.80300  0.71610  Biso   1.000  H
  O51      1.0000 0.67030  0.63420  0.83840  Biso   1.000  O
  O52      1.0000 0.58570  0.66050  0.85220  Biso   1.000  O
  N17      1.0000 0.63480  0.66990  0.83750  Biso   1.000  N
  C96      1.0000 0.63154  0.77435  0.87240  Biso   1.000  C
  H52      1.0000 0.60960  0.76930  0.92340  Biso   1.000  H
  C97      1.0000 0.66100  0.83099  0.75130  Biso   1.000  C
  H53      1.0000 0.65920  0.86470  0.71960  Biso   1.000  H
  C98      1.0000 0.66635  0.73240  0.84410  Biso   1.000  C
  C99      1.0000 0.69580  0.78904  0.72300  Biso   1.000  C
  H54      1.0000 0.71780  0.79410  0.67200  Biso   1.000  H
  O53      1.0000 0.68720  0.63940  0.85970  Biso   1.000  O
  O54      1.0000 0.65050  0.68150  0.97050  Biso   1.000  O
  N18      1.0000 0.66850  0.68040  0.89440  Biso   1.000  N
  O55      1.0000 0.44557  0.14750  0.91410  Biso   1.000  O
  O56      1.0000 0.39751  0.08398  0.83890  Biso   1.000  O
  C100     1.0000 0.40774  0.13222  0.86190  Biso   1.000  C
  C101     1.0000 0.37113  0.17636  0.82600  Biso   1.000  C
  C102     1.0000 0.30153  0.26027  0.76940  Biso   1.000  C
  C103     1.0000 0.38320  0.23095  0.84620  Biso   1.000  C
  H55      1.0000 0.41530  0.23960  0.87940  Biso   1.000  H
  C104     1.0000 0.32420  0.16373  0.77750  Biso   1.000  C
  H56      1.0000 0.31600  0.12640  0.76370  Biso   1.000  H
  C105     1.0000 0.34840  0.27290  0.81790  Biso   1.000  C
  C106     1.0000 0.28940  0.20568  0.74920  Biso   1.000  C
  H57      1.0000 0.25740  0.19700  0.71610  Biso   1.000  H
  O57      1.0000 0.32970  0.36580  0.83840  Biso   1.000  O
  O58      1.0000 0.41430  0.33950  0.85220  Biso   1.000  O
  N19      1.0000 0.36520  0.33010  0.83750  Biso   1.000  N
  C107     1.0000 0.36846  0.22565  0.87240  Biso   1.000  C
  H58      1.0000 0.39040  0.23070  0.92340  Biso   1.000  H
  C108     1.0000 0.33900  0.16901  0.75130  Biso   1.000  C
  H59      1.0000 0.34080  0.13530  0.71960  Biso   1.000  H
  C109     1.0000 0.33365  0.26760  0.84410  Biso   1.000  C
  C110     1.0000 0.30420  0.21096  0.72300  Biso   1.000  C
  H60      1.0000 0.28220  0.20590  0.67200  Biso   1.000  H
  O59      1.0000 0.31280  0.36060  0.85970  Biso   1.000  O
  O60      1.0000 0.34950  0.31850  0.97050  Biso   1.000  O
  N20      1.0000 0.33150  0.31960  0.89440  Biso   1.000  N
  O61      1.0000 0.14750  0.55443  0.41410  Biso   1.000  O
  O62      1.0000 0.08398  0.60249  0.33890  Biso   1.000  O
  C111     1.0000 0.13222  0.59226  0.36190  Biso   1.000  C
  C112     1.0000 0.17636  0.62887  0.32600  Biso   1.000  C
  C113     1.0000 0.26027  0.69847  0.26940  Biso   1.000  C
  C114     1.0000 0.23095  0.61680  0.34620  Biso   1.000  C
  H61      1.0000 0.23960  0.58470  0.37940  Biso   1.000  H
  C115     1.0000 0.16373  0.67580  0.27750  Biso   1.000  C
  H62      1.0000 0.12640  0.68400  0.26370  Biso   1.000  H
  C116     1.0000 0.27290  0.65160  0.31790  Biso   1.000  C
  C117     1.0000 0.20568  0.71060  0.24920  Biso   1.000  C
  H63      1.0000 0.19700  0.74260  0.21610  Biso   1.000  H
  O63      1.0000 0.36580  0.67030  0.33840  Biso   1.000  O
  O64      1.0000 0.33950  0.58570  0.35220  Biso   1.000  O
  N21      1.0000 0.33010  0.63480  0.33750  Biso   1.000  N
  C118     1.0000 0.22565  0.63154  0.37240  Biso   1.000  C
  H64      1.0000 0.23070  0.60960  0.42340  Biso   1.000  H
  C119     1.0000 0.16901  0.66100  0.25130  Biso   1.000  C
  H65      1.0000 0.13530  0.65920  0.21960  Biso   1.000  H
  C120     1.0000 0.26760  0.66635  0.34410  Biso   1.000  C
  C121     1.0000 0.21096  0.69580  0.22300  Biso   1.000  C
  H66      1.0000 0.20590  0.71780  0.17200  Biso   1.000  H
  O65      1.0000 0.36060  0.68720  0.35970  Biso   1.000  O
  O66      1.0000 0.31850  0.65050  0.47050  Biso   1.000  O
  N22      1.0000 0.31960  0.66850  0.39440  Biso   1.000  N
  O67      1.0000 0.85250  0.44557  0.41410  Biso   1.000  O
  O68      1.0000 0.91602  0.39751  0.33890  Biso   1.000  O
  C122     1.0000 0.86778  0.40774  0.36190  Biso   1.000  C
  C123     1.0000 0.82364  0.37113  0.32600  Biso   1.000  C
  C124     1.0000 0.73973  0.30153  0.26940  Biso   1.000  C
  C125     1.0000 0.76905  0.38320  0.34620  Biso   1.000  C
  H67      1.0000 0.76040  0.41530  0.37940  Biso   1.000  H
  C126     1.0000 0.83627  0.32420  0.27750  Biso   1.000  C
  H68      1.0000 0.87360  0.31600  0.26370  Biso   1.000  H
  C127     1.0000 0.72710  0.34840  0.31790  Biso   1.000  C
  C128     1.0000 0.79432  0.28940  0.24920  Biso   1.000  C
  H69      1.0000 0.80300  0.25740  0.21610  Biso   1.000  H
  O69      1.0000 0.63420  0.32970  0.33840  Biso   1.000  O
  O70      1.0000 0.66050  0.41430  0.35220  Biso   1.000  O
  N23      1.0000 0.66990  0.36520  0.33750  Biso   1.000  N
  C129     1.0000 0.77435  0.36846  0.37240  Biso   1.000  C
  H70      1.0000 0.76930  0.39040  0.42340  Biso   1.000  H
  C130     1.0000 0.83099  0.33900  0.25130  Biso   1.000  C
  H71      1.0000 0.86470  0.34080  0.21960  Biso   1.000  H
  C131     1.0000 0.73240  0.33365  0.34410  Biso   1.000  C
  C132     1.0000 0.78904  0.30420  0.22300  Biso   1.000  C
  H72      1.0000 0.79410  0.28220  0.17200  Biso   1.000  H
  O71      1.0000 0.63940  0.31280  0.35970  Biso   1.000  O
  O72      1.0000 0.68150  0.34950  0.47050  Biso   1.000  O
  N24      1.0000 0.68040  0.33150  0.39440  Biso   1.000  N
  O73      1.0000 0.44557  0.85250  0.08590  Biso   1.000  O
  O74      1.0000 0.39751  0.91602  0.16110  Biso   1.000  O
  C133     1.0000 0.40774  0.86778  0.13810  Biso   1.000  C
  C134     1.0000 0.37113  0.82364  0.17400  Biso   1.000  C
  C135     1.0000 0.30153  0.73973  0.23060  Biso   1.000  C
  C136     1.0000 0.38320  0.76905  0.15380  Biso   1.000  C
  H73      1.0000 0.41530  0.76040  0.12060  Biso   1.000  H
  C137     1.0000 0.32420  0.83627  0.22250  Biso   1.000  C
  H74      1.0000 0.31600  0.87360  0.23630  Biso   1.000  H
  C138     1.0000 0.34840  0.72710  0.18210  Biso   1.000  C
  C139     1.0000 0.28940  0.79432  0.25080  Biso   1.000  C
  H75      1.0000 0.25740  0.80300  0.28390  Biso   1.000  H
  O75      1.0000 0.32970  0.63420  0.16160  Biso   1.000  O
  O76      1.0000 0.41430  0.66050  0.14780  Biso   1.000  O
  N25      1.0000 0.36520  0.66990  0.16250  Biso   1.000  N
  C140     1.0000 0.36846  0.77435  0.12760  Biso   1.000  C
  H76      1.0000 0.39040  0.76930  0.07660  Biso   1.000  H
  C141     1.0000 0.33900  0.83099  0.24870  Biso   1.000  C
  H77      1.0000 0.34080  0.86470  0.28040  Biso   1.000  H
  C142     1.0000 0.33365  0.73240  0.15590  Biso   1.000  C
  C143     1.0000 0.30420  0.78904  0.27700  Biso   1.000  C
  H78      1.0000 0.28220  0.79410  0.32800  Biso   1.000  H
  O77      1.0000 0.31280  0.63940  0.14030  Biso   1.000  O
  O78      1.0000 0.34950  0.68150  0.02950  Biso   1.000  O
  N26      1.0000 0.33150  0.68040  0.10560  Biso   1.000  N
  O79      1.0000 0.55443  0.14750  0.08590  Biso   1.000  O
  O80      1.0000 0.60249  0.08398  0.16110  Biso   1.000  O
  C144     1.0000 0.59226  0.13222  0.13810  Biso   1.000  C
  C145     1.0000 0.62887  0.17636  0.17400  Biso   1.000  C
  C146     1.0000 0.69847  0.26027  0.23060  Biso   1.000  C
  C147     1.0000 0.61680  0.23095  0.15380  Biso   1.000  C
  H79      1.0000 0.58470  0.23960  0.12060  Biso   1.000  H
  C148     1.0000 0.67580  0.16373  0.22250  Biso   1.000  C
  H80      1.0000 0.68400  0.12640  0.23630  Biso   1.000  H
  C149     1.0000 0.65160  0.27290  0.18210  Biso   1.000  C
  C150     1.0000 0.71060  0.20568  0.25080  Biso   1.000  C
  H81      1.0000 0.74260  0.19700  0.28390  Biso   1.000  H
  O81      1.0000 0.67030  0.36580  0.16160  Biso   1.000  O
  O82      1.0000 0.58570  0.33950  0.14780  Biso   1.000  O
  N27      1.0000 0.63480  0.33010  0.16250  Biso   1.000  N
  C151     1.0000 0.63154  0.22565  0.12760  Biso   1.000  C
  H82      1.0000 0.60960  0.23070  0.07660  Biso   1.000  H
  C152     1.0000 0.66100  0.16901  0.24870  Biso   1.000  C
  H83      1.0000 0.65920  0.13530  0.28040  Biso   1.000  H
  C153     1.0000 0.66635  0.26760  0.15590  Biso   1.000  C
  C154     1.0000 0.69580  0.21096  0.27700  Biso   1.000  C
  H84      1.0000 0.71780  0.20590  0.32800  Biso   1.000  H
  O83      1.0000 0.68720  0.36060  0.14030  Biso   1.000  O
  O84      1.0000 0.65050  0.31850  0.02950  Biso   1.000  O
  N28      1.0000 0.66850  0.31960  0.10560  Biso   1.000  N
  O85      1.0000 0.85250  0.55443  0.58590  Biso   1.000  O
  O86      1.0000 0.91602  0.60249  0.66110  Biso   1.000  O
  C155     1.0000 0.86778  0.59226  0.63810  Biso   1.000  C
  C156     1.0000 0.82364  0.62887  0.67400  Biso   1.000  C
  C157     1.0000 0.73973  0.69847  0.73060  Biso   1.000  C
  C158     1.0000 0.76905  0.61680  0.65380  Biso   1.000  C
  H85      1.0000 0.76040  0.58470  0.62060  Biso   1.000  H
  C159     1.0000 0.83627  0.67580  0.72250  Biso   1.000  C
  H86      1.0000 0.87360  0.68400  0.73630  Biso   1.000  H
  C160     1.0000 0.72710  0.65160  0.68210  Biso   1.000  C
  C161     1.0000 0.79432  0.71060  0.75080  Biso   1.000  C
  H87      1.0000 0.80300  0.74260  0.78390  Biso   1.000  H
  O87      1.0000 0.63420  0.67030  0.66160  Biso   1.000  O
  O88      1.0000 0.66050  0.58570  0.64780  Biso   1.000  O
  N29      1.0000 0.66990  0.63480  0.66250  Biso   1.000  N
  C162     1.0000 0.77435  0.63154  0.62760  Biso   1.000  C
  H88      1.0000 0.76930  0.60960  0.57660  Biso   1.000  H
  C163     1.0000 0.83099  0.66100  0.74870  Biso   1.000  C
  H89      1.0000 0.86470  0.65920  0.78040  Biso   1.000  H
  C164     1.0000 0.73240  0.66635  0.65590  Biso   1.000  C
  C165     1.0000 0.78904  0.69580  0.77700  Biso   1.000  C
  H90      1.0000 0.79410  0.71780  0.82800  Biso   1.000  H
  O89      1.0000 0.63940  0.68720  0.64030  Biso   1.000  O
  O90      1.0000 0.68150  0.65050  0.52950  Biso   1.000  O
  N30      1.0000 0.68040  0.66850  0.60560  Biso   1.000  N
  O91      1.0000 0.14750  0.44557  0.58590  Biso   1.000  O
  O92      1.0000 0.08398  0.39751  0.66110  Biso   1.000  O
  C166     1.0000 0.13222  0.40774  0.63810  Biso   1.000  C
  C167     1.0000 0.17636  0.37113  0.67400  Biso   1.000  C
  C168     1.0000 0.26027  0.30153  0.73060  Biso   1.000  C
  C169     1.0000 0.23095  0.38320  0.65380  Biso   1.000  C
  H91      1.0000 0.23960  0.41530  0.62060  Biso   1.000  H
  C170     1.0000 0.16373  0.32420  0.72250  Biso   1.000  C
  H92      1.0000 0.12640  0.31600  0.73630  Biso   1.000  H
  C171     1.0000 0.27290  0.34840  0.68210  Biso   1.000  C
  C172     1.0000 0.20568  0.28940  0.75080  Biso   1.000  C
  H93      1.0000 0.19700  0.25740  0.78390  Biso   1.000  H
  O93      1.0000 0.36580  0.32970  0.66160  Biso   1.000  O
  O94      1.0000 0.33950  0.41430  0.64780  Biso   1.000  O
  N31      1.0000 0.33010  0.36520  0.66250  Biso   1.000  N
  C173     1.0000 0.22565  0.36846  0.62760  Biso   1.000  C
  H94      1.0000 0.23070  0.39040  0.57660  Biso   1.000  H
  C174     1.0000 0.16901  0.33900  0.74870  Biso   1.000  C
  H95      1.0000 0.13530  0.34080  0.78040  Biso   1.000  H
  C175     1.0000 0.26760  0.33365  0.65590  Biso   1.000  C
  C176     1.0000 0.21096  0.30420  0.77700  Biso   1.000  C
  H96      1.0000 0.20590  0.28220  0.82800  Biso   1.000  H
  O95      1.0000 0.36060  0.31280  0.64030  Biso   1.000  O
  O96      1.0000 0.31850  0.34950  0.52950  Biso   1.000  O
  N32      1.0000 0.31960  0.33150  0.60560  Biso   1.000  N
  Zr1      1.0000 0.50000  0.10037  0.00000  Biso   1.000  Zr
  Zr2      1.0000 0.50000  0.89963  0.00000  Biso   1.000  Zr
  Zr3      1.0000 0.89963  0.50000  0.50000  Biso   1.000  Zr
  Zr4      1.0000 0.10037  0.50000  0.50000  Biso   1.000  Zr
  Zr5      1.0000 0.42701  0.00000  0.11592  Biso   1.000  Zr
  Zr6      1.0000 0.57299  0.00000  0.11592  Biso   1.000  Zr
  Zr7      1.0000 0.00000  0.42701  0.61592  Biso   1.000  Zr
  Zr8      1.0000 0.00000  0.57299  0.61592  Biso   1.000  Zr
  Zr9      1.0000 0.57299  0.00000  0.88408  Biso   1.000  Zr
  Zr10     1.0000 0.42701  0.00000  0.88408  Biso   1.000  Zr
  Zr11     1.0000 0.00000  0.42701  0.38408  Biso   1.000  Zr
  Zr12     1.0000 0.00000  0.57299  0.38408  Biso   1.000  Zr
  O97      1.0000 0.50000  0.04916  0.11700  Biso   1.000  O
  O98      1.0000 0.50000  0.95084  0.11700  Biso   1.000  O
  O99      1.0000 0.95084  0.50000  0.61700  Biso   1.000  O
  O100     1.0000 0.04916  0.50000  0.61700  Biso   1.000  O
  O101     1.0000 0.50000  0.04916  0.88300  Biso   1.000  O
  O102     1.0000 0.50000  0.95084  0.88300  Biso   1.000  O
  O103     1.0000 0.04916  0.50000  0.38300  Biso   1.000  O
  O104     1.0000 0.95084  0.50000  0.38300  Biso   1.000  O
  O105     1.0000 0.42630  0.04899  0.00000  Biso   1.000  O
  O106     1.0000 0.57370  0.95101  0.00000  Biso   1.000  O
  O107     1.0000 0.95101  0.42630  0.50000  Biso   1.000  O
  O108     1.0000 0.04899  0.57370  0.50000  Biso   1.000  O
  O109     1.0000 0.57370  0.04899  0.00000  Biso   1.000  O
  O110     1.0000 0.42630  0.95101  0.00000  Biso   1.000  O
  O111     1.0000 0.04899  0.42630  0.50000  Biso   1.000  O
  O112     1.0000 0.95101  0.57370  0.50000  Biso   1.000  O
