data_image0
_cell_length_a       24.263
_cell_length_b       24.263
_cell_length_c       14.615
_cell_angle_alpha    90
_cell_angle_beta     90
_cell_angle_gamma    90

_symmetry_space_group_name_H-M    "P 1"
_symmetry_int_tables_number       1

loop_
  _symmetry_equiv_pos_as_xyz
  'x, y, z'

loop_
  _atom_site_label
  _atom_site_occupancy
  _atom_site_fract_x
  _atom_site_fract_y
  _atom_site_fract_z
  _atom_site_thermal_displace_type
  _atom_site_B_iso_or_equiv
  _atom_site_type_symbol
  O1       1.0000 0.08170  0.39750  0.16310  Biso   1.000  O
  O2       1.0000 0.14770  0.44700  0.08930  Biso   1.000  O
  C1       1.0000 0.13080  0.40800  0.13840  Biso   1.000  C
  C2       1.0000 0.17370  0.36846  0.17250  Biso   1.000  C
  C3       1.0000 0.25319  0.29520  0.23570  Biso   1.000  C
  C4       1.0000 0.22860  0.37550  0.14780  Biso   1.000  C
  H1       1.0000 0.23890  0.40530  0.10940  Biso   1.000  H
  C5       1.0000 0.26833  0.33890  0.17950  Biso   1.000  C
  H2       1.0000 0.30580  0.34370  0.16260  Biso   1.000  H
  C6       1.0000 0.15855  0.32480  0.22870  Biso   1.000  C
  H3       1.0000 0.12100  0.32000  0.24560  Biso   1.000  H
  C7       1.0000 0.19830  0.28820  0.26030  Biso   1.000  C
  O3       1.0000 0.18240  0.24150  0.32040  Biso   1.000  O
  C8       1.0000 0.12390  0.23170  0.33800  Biso   1.000  C
  H4       1.0000 0.11990  0.19970  0.37890  Biso   1.000  H
  H5       1.0000 0.10470  0.22450  0.28060  Biso   1.000  H
  H6       1.0000 0.10780  0.26420  0.36780  Biso   1.000  H
  C9       1.0000 0.22720  0.37120  0.13880  Biso   1.000  C
  H7       1.0000 0.23660  0.39800  0.09410  Biso   1.000  H
  C10      1.0000 0.26690  0.33460  0.17030  Biso   1.000  C
  C11      1.0000 0.15990  0.32920  0.23780  Biso   1.000  C
  H8       1.0000 0.12340  0.32730  0.26090  Biso   1.000  H
  C12      1.0000 0.19970  0.29250  0.26940  Biso   1.000  C
  H9       1.0000 0.19030  0.26570  0.31410  Biso   1.000  H
  O4       1.0000 0.32370  0.33730  0.13470  Biso   1.000  O
  C13      1.0000 0.34190  0.39010  0.09600  Biso   1.000  C
  H10      1.0000 0.38050  0.38720  0.07720  Biso   1.000  H
  H11      1.0000 0.33820  0.41910  0.14250  Biso   1.000  H
  H12      1.0000 0.31900  0.39930  0.04300  Biso   1.000  H
  O5       1.0000 0.91830  0.60250  0.16310  Biso   1.000  O
  O6       1.0000 0.85230  0.55300  0.08930  Biso   1.000  O
  C14      1.0000 0.86920  0.59200  0.13840  Biso   1.000  C
  C15      1.0000 0.82630  0.63154  0.17250  Biso   1.000  C
  C16      1.0000 0.74681  0.70480  0.23570  Biso   1.000  C
  C17      1.0000 0.77140  0.62450  0.14780  Biso   1.000  C
  H13      1.0000 0.76110  0.59470  0.10940  Biso   1.000  H
  C18      1.0000 0.73167  0.66110  0.17950  Biso   1.000  C
  H14      1.0000 0.69420  0.65630  0.16260  Biso   1.000  H
  C19      1.0000 0.84145  0.67520  0.22870  Biso   1.000  C
  H15      1.0000 0.87900  0.68000  0.24560  Biso   1.000  H
  C20      1.0000 0.80170  0.71180  0.26030  Biso   1.000  C
  O7       1.0000 0.81760  0.75850  0.32040  Biso   1.000  O
  C21      1.0000 0.87610  0.76830  0.33800  Biso   1.000  C
  H16      1.0000 0.88010  0.80030  0.37890  Biso   1.000  H
  H17      1.0000 0.89530  0.77550  0.28060  Biso   1.000  H
  H18      1.0000 0.89220  0.73580  0.36780  Biso   1.000  H
  C22      1.0000 0.77280  0.62880  0.13880  Biso   1.000  C
  H19      1.0000 0.76340  0.60200  0.09410  Biso   1.000  H
  C23      1.0000 0.73310  0.66540  0.17030  Biso   1.000  C
  C24      1.0000 0.84010  0.67080  0.23780  Biso   1.000  C
  H20      1.0000 0.87660  0.67270  0.26090  Biso   1.000  H
  C25      1.0000 0.80030  0.70750  0.26940  Biso   1.000  C
  H21      1.0000 0.80970  0.73430  0.31410  Biso   1.000  H
  O8       1.0000 0.67630  0.66270  0.13470  Biso   1.000  O
  C26      1.0000 0.65810  0.60990  0.09600  Biso   1.000  C
  H22      1.0000 0.61950  0.61280  0.07720  Biso   1.000  H
  H23      1.0000 0.66180  0.58090  0.14250  Biso   1.000  H
  H24      1.0000 0.68100  0.60070  0.04300  Biso   1.000  H
  O9       1.0000 0.60250  0.08170  0.66310  Biso   1.000  O
  O10      1.0000 0.55300  0.14770  0.58930  Biso   1.000  O
  C27      1.0000 0.59200  0.13080  0.63840  Biso   1.000  C
  C28      1.0000 0.63154  0.17370  0.67250  Biso   1.000  C
  C29      1.0000 0.70480  0.25319  0.73570  Biso   1.000  C
  C30      1.0000 0.62450  0.22860  0.64780  Biso   1.000  C
  H25      1.0000 0.59470  0.23890  0.60940  Biso   1.000  H
  C31      1.0000 0.66110  0.26833  0.67950  Biso   1.000  C
  H26      1.0000 0.65630  0.30580  0.66260  Biso   1.000  H
  C32      1.0000 0.67520  0.15855  0.72870  Biso   1.000  C
  H27      1.0000 0.68000  0.12100  0.74560  Biso   1.000  H
  C33      1.0000 0.71180  0.19830  0.76030  Biso   1.000  C
  O11      1.0000 0.75850  0.18240  0.82040  Biso   1.000  O
  C34      1.0000 0.76830  0.12390  0.83800  Biso   1.000  C
  H28      1.0000 0.80030  0.11990  0.87890  Biso   1.000  H
  H29      1.0000 0.77550  0.10470  0.78060  Biso   1.000  H
  H30      1.0000 0.73580  0.10780  0.86780  Biso   1.000  H
  C35      1.0000 0.62880  0.22720  0.63880  Biso   1.000  C
  H31      1.0000 0.60200  0.23660  0.59410  Biso   1.000  H
  C36      1.0000 0.66540  0.26690  0.67030  Biso   1.000  C
  C37      1.0000 0.67080  0.15990  0.73780  Biso   1.000  C
  H32      1.0000 0.67270  0.12340  0.76090  Biso   1.000  H
  C38      1.0000 0.70750  0.19970  0.76940  Biso   1.000  C
  H33      1.0000 0.73430  0.19030  0.81410  Biso   1.000  H
  O12      1.0000 0.66270  0.32370  0.63470  Biso   1.000  O
  C39      1.0000 0.60990  0.34190  0.59600  Biso   1.000  C
  H34      1.0000 0.61280  0.38050  0.57720  Biso   1.000  H
  H35      1.0000 0.58090  0.33820  0.64250  Biso   1.000  H
  H36      1.0000 0.60070  0.31900  0.54300  Biso   1.000  H
  O13      1.0000 0.39750  0.91830  0.66310  Biso   1.000  O
  O14      1.0000 0.44700  0.85230  0.58930  Biso   1.000  O
  C40      1.0000 0.40800  0.86920  0.63840  Biso   1.000  C
  C41      1.0000 0.36846  0.82630  0.67250  Biso   1.000  C
  C42      1.0000 0.29520  0.74681  0.73570  Biso   1.000  C
  C43      1.0000 0.37550  0.77140  0.64780  Biso   1.000  C
  H37      1.0000 0.40530  0.76110  0.60940  Biso   1.000  H
  C44      1.0000 0.33890  0.73167  0.67950  Biso   1.000  C
  H38      1.0000 0.34370  0.69420  0.66260  Biso   1.000  H
  C45      1.0000 0.32480  0.84145  0.72870  Biso   1.000  C
  H39      1.0000 0.32000  0.87900  0.74560  Biso   1.000  H
  C46      1.0000 0.28820  0.80170  0.76030  Biso   1.000  C
  O15      1.0000 0.24150  0.81760  0.82040  Biso   1.000  O
  C47      1.0000 0.23170  0.87610  0.83800  Biso   1.000  C
  H40      1.0000 0.19970  0.88010  0.87890  Biso   1.000  H
  H41      1.0000 0.22450  0.89530  0.78060  Biso   1.000  H
  H42      1.0000 0.26420  0.89220  0.86780  Biso   1.000  H
  C48      1.0000 0.37120  0.77280  0.63880  Biso   1.000  C
  H43      1.0000 0.39800  0.76340  0.59410  Biso   1.000  H
  C49      1.0000 0.33460  0.73310  0.67030  Biso   1.000  C
  C50      1.0000 0.32920  0.84010  0.73780  Biso   1.000  C
  H44      1.0000 0.32730  0.87660  0.76090  Biso   1.000  H
  C51      1.0000 0.29250  0.80030  0.76940  Biso   1.000  C
  H45      1.0000 0.26570  0.80970  0.81410  Biso   1.000  H
  O16      1.0000 0.33730  0.67630  0.63470  Biso   1.000  O
  C52      1.0000 0.39010  0.65810  0.59600  Biso   1.000  C
  H46      1.0000 0.38720  0.61950  0.57720  Biso   1.000  H
  H47      1.0000 0.41910  0.66180  0.64250  Biso   1.000  H
  H48      1.0000 0.39930  0.68100  0.54300  Biso   1.000  H
  O17      1.0000 0.91830  0.39750  0.83690  Biso   1.000  O
  O18      1.0000 0.85230  0.44700  0.91070  Biso   1.000  O
  C53      1.0000 0.86920  0.40800  0.86160  Biso   1.000  C
  C54      1.0000 0.82630  0.36846  0.82750  Biso   1.000  C
  C55      1.0000 0.74681  0.29520  0.76430  Biso   1.000  C
  C56      1.0000 0.77140  0.37550  0.85220  Biso   1.000  C
  H49      1.0000 0.76110  0.40530  0.89060  Biso   1.000  H
  C57      1.0000 0.73167  0.33890  0.82050  Biso   1.000  C
  H50      1.0000 0.69420  0.34370  0.83740  Biso   1.000  H
  C58      1.0000 0.84145  0.32480  0.77130  Biso   1.000  C
  H51      1.0000 0.87900  0.32000  0.75440  Biso   1.000  H
  C59      1.0000 0.80170  0.28820  0.73970  Biso   1.000  C
  O19      1.0000 0.81760  0.24150  0.67960  Biso   1.000  O
  C60      1.0000 0.87610  0.23170  0.66200  Biso   1.000  C
  H52      1.0000 0.88010  0.19970  0.62110  Biso   1.000  H
  H53      1.0000 0.89530  0.22450  0.71940  Biso   1.000  H
  H54      1.0000 0.89220  0.26420  0.63220  Biso   1.000  H
  C61      1.0000 0.77280  0.37120  0.86120  Biso   1.000  C
  H55      1.0000 0.76340  0.39800  0.90590  Biso   1.000  H
  C62      1.0000 0.73310  0.33460  0.82970  Biso   1.000  C
  C63      1.0000 0.84010  0.32920  0.76220  Biso   1.000  C
  H56      1.0000 0.87660  0.32730  0.73910  Biso   1.000  H
  C64      1.0000 0.80030  0.29250  0.73060  Biso   1.000  C
  H57      1.0000 0.80970  0.26570  0.68590  Biso   1.000  H
  O20      1.0000 0.67630  0.33730  0.86530  Biso   1.000  O
  C65      1.0000 0.65810  0.39010  0.90400  Biso   1.000  C
  H58      1.0000 0.61950  0.38720  0.92280  Biso   1.000  H
  H59      1.0000 0.66180  0.41910  0.85750  Biso   1.000  H
  H60      1.0000 0.68100  0.39930  0.95700  Biso   1.000  H
  O21      1.0000 0.08170  0.60250  0.83690  Biso   1.000  O
  O22      1.0000 0.14770  0.55300  0.91070  Biso   1.000  O
  C66      1.0000 0.13080  0.59200  0.86160  Biso   1.000  C
  C67      1.0000 0.17370  0.63154  0.82750  Biso   1.000  C
  C68      1.0000 0.25319  0.70480  0.76430  Biso   1.000  C
  C69      1.0000 0.22860  0.62450  0.85220  Biso   1.000  C
  H61      1.0000 0.23890  0.59470  0.89060  Biso   1.000  H
  C70      1.0000 0.26833  0.66110  0.82050  Biso   1.000  C
  H62      1.0000 0.30580  0.65630  0.83740  Biso   1.000  H
  C71      1.0000 0.15855  0.67520  0.77130  Biso   1.000  C
  H63      1.0000 0.12100  0.68000  0.75440  Biso   1.000  H
  C72      1.0000 0.19830  0.71180  0.73970  Biso   1.000  C
  O23      1.0000 0.18240  0.75850  0.67960  Biso   1.000  O
  C73      1.0000 0.12390  0.76830  0.66200  Biso   1.000  C
  H64      1.0000 0.11990  0.80030  0.62110  Biso   1.000  H
  H65      1.0000 0.10470  0.77550  0.71940  Biso   1.000  H
  H66      1.0000 0.10780  0.73580  0.63220  Biso   1.000  H
  C74      1.0000 0.22720  0.62880  0.86120  Biso   1.000  C
  H67      1.0000 0.23660  0.60200  0.90590  Biso   1.000  H
  C75      1.0000 0.26690  0.66540  0.82970  Biso   1.000  C
  C76      1.0000 0.15990  0.67080  0.76220  Biso   1.000  C
  H68      1.0000 0.12340  0.67270  0.73910  Biso   1.000  H
  C77      1.0000 0.19970  0.70750  0.73060  Biso   1.000  C
  H69      1.0000 0.19030  0.73430  0.68590  Biso   1.000  H
  O24      1.0000 0.32370  0.66270  0.86530  Biso   1.000  O
  C78      1.0000 0.34190  0.60990  0.90400  Biso   1.000  C
  H70      1.0000 0.38050  0.61280  0.92280  Biso   1.000  H
  H71      1.0000 0.33820  0.58090  0.85750  Biso   1.000  H
  H72      1.0000 0.31900  0.60070  0.95700  Biso   1.000  H
  O25      1.0000 0.39750  0.08170  0.33690  Biso   1.000  O
  O26      1.0000 0.44700  0.14770  0.41070  Biso   1.000  O
  C79      1.0000 0.40800  0.13080  0.36160  Biso   1.000  C
  C80      1.0000 0.36846  0.17370  0.32750  Biso   1.000  C
  C81      1.0000 0.29520  0.25319  0.26430  Biso   1.000  C
  C82      1.0000 0.37550  0.22860  0.35220  Biso   1.000  C
  H73      1.0000 0.40530  0.23890  0.39060  Biso   1.000  H
  C83      1.0000 0.33890  0.26833  0.32050  Biso   1.000  C
  H74      1.0000 0.34370  0.30580  0.33740  Biso   1.000  H
  C84      1.0000 0.32480  0.15855  0.27130  Biso   1.000  C
  H75      1.0000 0.32000  0.12100  0.25440  Biso   1.000  H
  C85      1.0000 0.28820  0.19830  0.23970  Biso   1.000  C
  O27      1.0000 0.24150  0.18240  0.17960  Biso   1.000  O
  C86      1.0000 0.23170  0.12390  0.16200  Biso   1.000  C
  H76      1.0000 0.19970  0.11990  0.12110  Biso   1.000  H
  H77      1.0000 0.22450  0.10470  0.21940  Biso   1.000  H
  H78      1.0000 0.26420  0.10780  0.13220  Biso   1.000  H
  C87      1.0000 0.37120  0.22720  0.36120  Biso   1.000  C
  H79      1.0000 0.39800  0.23660  0.40590  Biso   1.000  H
  C88      1.0000 0.33460  0.26690  0.32970  Biso   1.000  C
  C89      1.0000 0.32920  0.15990  0.26220  Biso   1.000  C
  H80      1.0000 0.32730  0.12340  0.23910  Biso   1.000  H
  C90      1.0000 0.29250  0.19970  0.23060  Biso   1.000  C
  H81      1.0000 0.26570  0.19030  0.18590  Biso   1.000  H
  O28      1.0000 0.33730  0.32370  0.36530  Biso   1.000  O
  C91      1.0000 0.39010  0.34190  0.40400  Biso   1.000  C
  H82      1.0000 0.38720  0.38050  0.42280  Biso   1.000  H
  H83      1.0000 0.41910  0.33820  0.35750  Biso   1.000  H
  H84      1.0000 0.39930  0.31900  0.45700  Biso   1.000  H
  O29      1.0000 0.60250  0.91830  0.33690  Biso   1.000  O
  O30      1.0000 0.55300  0.85230  0.41070  Biso   1.000  O
  C92      1.0000 0.59200  0.86920  0.36160  Biso   1.000  C
  C93      1.0000 0.63154  0.82630  0.32750  Biso   1.000  C
  C94      1.0000 0.70480  0.74681  0.26430  Biso   1.000  C
  C95      1.0000 0.62450  0.77140  0.35220  Biso   1.000  C
  H85      1.0000 0.59470  0.76110  0.39060  Biso   1.000  H
  C96      1.0000 0.66110  0.73167  0.32050  Biso   1.000  C
  H86      1.0000 0.65630  0.69420  0.33740  Biso   1.000  H
  C97      1.0000 0.67520  0.84145  0.27130  Biso   1.000  C
  H87      1.0000 0.68000  0.87900  0.25440  Biso   1.000  H
  C98      1.0000 0.71180  0.80170  0.23970  Biso   1.000  C
  O31      1.0000 0.75850  0.81760  0.17960  Biso   1.000  O
  C99      1.0000 0.76830  0.87610  0.16200  Biso   1.000  C
  H88      1.0000 0.80030  0.88010  0.12110  Biso   1.000  H
  H89      1.0000 0.77550  0.89530  0.21940  Biso   1.000  H
  H90      1.0000 0.73580  0.89220  0.13220  Biso   1.000  H
  C100     1.0000 0.62880  0.77280  0.36120  Biso   1.000  C
  H91      1.0000 0.60200  0.76340  0.40590  Biso   1.000  H
  C101     1.0000 0.66540  0.73310  0.32970  Biso   1.000  C
  C102     1.0000 0.67080  0.84010  0.26220  Biso   1.000  C
  H92      1.0000 0.67270  0.87660  0.23910  Biso   1.000  H
  C103     1.0000 0.70750  0.80030  0.23060  Biso   1.000  C
  H93      1.0000 0.73430  0.80970  0.18590  Biso   1.000  H
  O32      1.0000 0.66270  0.67630  0.36530  Biso   1.000  O
  C104     1.0000 0.60990  0.65810  0.40400  Biso   1.000  C
  H94      1.0000 0.61280  0.61950  0.42280  Biso   1.000  H
  H95      1.0000 0.58090  0.66180  0.35750  Biso   1.000  H
  H96      1.0000 0.60070  0.68100  0.45700  Biso   1.000  H
  O33      1.0000 0.91830  0.60250  0.83690  Biso   1.000  O
  O34      1.0000 0.85230  0.55300  0.91070  Biso   1.000  O
  C105     1.0000 0.86920  0.59200  0.86160  Biso   1.000  C
  C106     1.0000 0.82630  0.63154  0.82750  Biso   1.000  C
  C107     1.0000 0.74681  0.70480  0.76430  Biso   1.000  C
  C108     1.0000 0.77140  0.62450  0.85220  Biso   1.000  C
  H97      1.0000 0.76110  0.59470  0.89060  Biso   1.000  H
  C109     1.0000 0.73167  0.66110  0.82050  Biso   1.000  C
  H98      1.0000 0.69420  0.65630  0.83740  Biso   1.000  H
  C110     1.0000 0.84145  0.67520  0.77130  Biso   1.000  C
  H99      1.0000 0.87900  0.68000  0.75440  Biso   1.000  H
  C111     1.0000 0.80170  0.71180  0.73970  Biso   1.000  C
  O35      1.0000 0.81760  0.75850  0.67960  Biso   1.000  O
  C112     1.0000 0.87610  0.76830  0.66200  Biso   1.000  C
  H100     1.0000 0.88010  0.80030  0.62110  Biso   1.000  H
  H101     1.0000 0.89530  0.77550  0.71940  Biso   1.000  H
  H102     1.0000 0.89220  0.73580  0.63220  Biso   1.000  H
  C113     1.0000 0.77280  0.62880  0.86120  Biso   1.000  C
  H103     1.0000 0.76340  0.60200  0.90590  Biso   1.000  H
  C114     1.0000 0.73310  0.66540  0.82970  Biso   1.000  C
  C115     1.0000 0.84010  0.67080  0.76220  Biso   1.000  C
  H104     1.0000 0.87660  0.67270  0.73910  Biso   1.000  H
  C116     1.0000 0.80030  0.70750  0.73060  Biso   1.000  C
  H105     1.0000 0.80970  0.73430  0.68590  Biso   1.000  H
  O36      1.0000 0.67630  0.66270  0.86530  Biso   1.000  O
  C117     1.0000 0.65810  0.60990  0.90400  Biso   1.000  C
  H106     1.0000 0.61950  0.61280  0.92280  Biso   1.000  H
  H107     1.0000 0.66180  0.58090  0.85750  Biso   1.000  H
  H108     1.0000 0.68100  0.60070  0.95700  Biso   1.000  H
  O37      1.0000 0.08170  0.39750  0.83690  Biso   1.000  O
  O38      1.0000 0.14770  0.44700  0.91070  Biso   1.000  O
  C118     1.0000 0.13080  0.40800  0.86160  Biso   1.000  C
  C119     1.0000 0.17370  0.36846  0.82750  Biso   1.000  C
  C120     1.0000 0.25319  0.29520  0.76430  Biso   1.000  C
  C121     1.0000 0.22860  0.37550  0.85220  Biso   1.000  C
  H109     1.0000 0.23890  0.40530  0.89060  Biso   1.000  H
  C122     1.0000 0.26833  0.33890  0.82050  Biso   1.000  C
  H110     1.0000 0.30580  0.34370  0.83740  Biso   1.000  H
  C123     1.0000 0.15855  0.32480  0.77130  Biso   1.000  C
  H111     1.0000 0.12100  0.32000  0.75440  Biso   1.000  H
  C124     1.0000 0.19830  0.28820  0.73970  Biso   1.000  C
  O39      1.0000 0.18240  0.24150  0.67960  Biso   1.000  O
  C125     1.0000 0.12390  0.23170  0.66200  Biso   1.000  C
  H112     1.0000 0.11990  0.19970  0.62110  Biso   1.000  H
  H113     1.0000 0.10470  0.22450  0.71940  Biso   1.000  H
  H114     1.0000 0.10780  0.26420  0.63220  Biso   1.000  H
  C126     1.0000 0.22720  0.37120  0.86120  Biso   1.000  C
  H115     1.0000 0.23660  0.39800  0.90590  Biso   1.000  H
  C127     1.0000 0.26690  0.33460  0.82970  Biso   1.000  C
  C128     1.0000 0.15990  0.32920  0.76220  Biso   1.000  C
  H116     1.0000 0.12340  0.32730  0.73910  Biso   1.000  H
  C129     1.0000 0.19970  0.29250  0.73060  Biso   1.000  C
  H117     1.0000 0.19030  0.26570  0.68590  Biso   1.000  H
  O40      1.0000 0.32370  0.33730  0.86530  Biso   1.000  O
  C130     1.0000 0.34190  0.39010  0.90400  Biso   1.000  C
  H118     1.0000 0.38050  0.38720  0.92280  Biso   1.000  H
  H119     1.0000 0.33820  0.41910  0.85750  Biso   1.000  H
  H120     1.0000 0.31900  0.39930  0.95700  Biso   1.000  H
  O41      1.0000 0.39750  0.91830  0.33690  Biso   1.000  O
  O42      1.0000 0.44700  0.85230  0.41070  Biso   1.000  O
  C131     1.0000 0.40800  0.86920  0.36160  Biso   1.000  C
  C132     1.0000 0.36846  0.82630  0.32750  Biso   1.000  C
  C133     1.0000 0.29520  0.74681  0.26430  Biso   1.000  C
  C134     1.0000 0.37550  0.77140  0.35220  Biso   1.000  C
  H121     1.0000 0.40530  0.76110  0.39060  Biso   1.000  H
  C135     1.0000 0.33890  0.73167  0.32050  Biso   1.000  C
  H122     1.0000 0.34370  0.69420  0.33740  Biso   1.000  H
  C136     1.0000 0.32480  0.84145  0.27130  Biso   1.000  C
  H123     1.0000 0.32000  0.87900  0.25440  Biso   1.000  H
  C137     1.0000 0.28820  0.80170  0.23970  Biso   1.000  C
  O43      1.0000 0.24150  0.81760  0.17960  Biso   1.000  O
  C138     1.0000 0.23170  0.87610  0.16200  Biso   1.000  C
  H124     1.0000 0.19970  0.88010  0.12110  Biso   1.000  H
  H125     1.0000 0.22450  0.89530  0.21940  Biso   1.000  H
  H126     1.0000 0.26420  0.89220  0.13220  Biso   1.000  H
  C139     1.0000 0.37120  0.77280  0.36120  Biso   1.000  C
  H127     1.0000 0.39800  0.76340  0.40590  Biso   1.000  H
  C140     1.0000 0.33460  0.73310  0.32970  Biso   1.000  C
  C141     1.0000 0.32920  0.84010  0.26220  Biso   1.000  C
  H128     1.0000 0.32730  0.87660  0.23910  Biso   1.000  H
  C142     1.0000 0.29250  0.80030  0.23060  Biso   1.000  C
  H129     1.0000 0.26570  0.80970  0.18590  Biso   1.000  H
  O44      1.0000 0.33730  0.67630  0.36530  Biso   1.000  O
  C143     1.0000 0.39010  0.65810  0.40400  Biso   1.000  C
  H130     1.0000 0.38720  0.61950  0.42280  Biso   1.000  H
  H131     1.0000 0.41910  0.66180  0.35750  Biso   1.000  H
  H132     1.0000 0.39930  0.68100  0.45700  Biso   1.000  H
  O45      1.0000 0.60250  0.08170  0.33690  Biso   1.000  O
  O46      1.0000 0.55300  0.14770  0.41070  Biso   1.000  O
  C144     1.0000 0.59200  0.13080  0.36160  Biso   1.000  C
  C145     1.0000 0.63154  0.17370  0.32750  Biso   1.000  C
  C146     1.0000 0.70480  0.25319  0.26430  Biso   1.000  C
  C147     1.0000 0.62450  0.22860  0.35220  Biso   1.000  C
  H133     1.0000 0.59470  0.23890  0.39060  Biso   1.000  H
  C148     1.0000 0.66110  0.26833  0.32050  Biso   1.000  C
  H134     1.0000 0.65630  0.30580  0.33740  Biso   1.000  H
  C149     1.0000 0.67520  0.15855  0.27130  Biso   1.000  C
  H135     1.0000 0.68000  0.12100  0.25440  Biso   1.000  H
  C150     1.0000 0.71180  0.19830  0.23970  Biso   1.000  C
  O47      1.0000 0.75850  0.18240  0.17960  Biso   1.000  O
  C151     1.0000 0.76830  0.12390  0.16200  Biso   1.000  C
  H136     1.0000 0.80030  0.11990  0.12110  Biso   1.000  H
  H137     1.0000 0.77550  0.10470  0.21940  Biso   1.000  H
  H138     1.0000 0.73580  0.10780  0.13220  Biso   1.000  H
  C152     1.0000 0.62880  0.22720  0.36120  Biso   1.000  C
  H139     1.0000 0.60200  0.23660  0.40590  Biso   1.000  H
  C153     1.0000 0.66540  0.26690  0.32970  Biso   1.000  C
  C154     1.0000 0.67080  0.15990  0.26220  Biso   1.000  C
  H140     1.0000 0.67270  0.12340  0.23910  Biso   1.000  H
  C155     1.0000 0.70750  0.19970  0.23060  Biso   1.000  C
  H141     1.0000 0.73430  0.19030  0.18590  Biso   1.000  H
  O48      1.0000 0.66270  0.32370  0.36530  Biso   1.000  O
  C156     1.0000 0.60990  0.34190  0.40400  Biso   1.000  C
  H142     1.0000 0.61280  0.38050  0.42280  Biso   1.000  H
  H143     1.0000 0.58090  0.33820  0.35750  Biso   1.000  H
  H144     1.0000 0.60070  0.31900  0.45700  Biso   1.000  H
  O49      1.0000 0.08170  0.60250  0.16310  Biso   1.000  O
  O50      1.0000 0.14770  0.55300  0.08930  Biso   1.000  O
  C157     1.0000 0.13080  0.59200  0.13840  Biso   1.000  C
  C158     1.0000 0.17370  0.63154  0.17250  Biso   1.000  C
  C159     1.0000 0.25319  0.70480  0.23570  Biso   1.000  C
  C160     1.0000 0.22860  0.62450  0.14780  Biso   1.000  C
  H145     1.0000 0.23890  0.59470  0.10940  Biso   1.000  H
  C161     1.0000 0.26833  0.66110  0.17950  Biso   1.000  C
  H146     1.0000 0.30580  0.65630  0.16260  Biso   1.000  H
  C162     1.0000 0.15855  0.67520  0.22870  Biso   1.000  C
  H147     1.0000 0.12100  0.68000  0.24560  Biso   1.000  H
  C163     1.0000 0.19830  0.71180  0.26030  Biso   1.000  C
  O51      1.0000 0.18240  0.75850  0.32040  Biso   1.000  O
  C164     1.0000 0.12390  0.76830  0.33800  Biso   1.000  C
  H148     1.0000 0.11990  0.80030  0.37890  Biso   1.000  H
  H149     1.0000 0.10470  0.77550  0.28060  Biso   1.000  H
  H150     1.0000 0.10780  0.73580  0.36780  Biso   1.000  H
  C165     1.0000 0.22720  0.62880  0.13880  Biso   1.000  C
  H151     1.0000 0.23660  0.60200  0.09410  Biso   1.000  H
  C166     1.0000 0.26690  0.66540  0.17030  Biso   1.000  C
  C167     1.0000 0.15990  0.67080  0.23780  Biso   1.000  C
  H152     1.0000 0.12340  0.67270  0.26090  Biso   1.000  H
  C168     1.0000 0.19970  0.70750  0.26940  Biso   1.000  C
  H153     1.0000 0.19030  0.73430  0.31410  Biso   1.000  H
  O52      1.0000 0.32370  0.66270  0.13470  Biso   1.000  O
  C169     1.0000 0.34190  0.60990  0.09600  Biso   1.000  C
  H154     1.0000 0.38050  0.61280  0.07720  Biso   1.000  H
  H155     1.0000 0.33820  0.58090  0.14250  Biso   1.000  H
  H156     1.0000 0.31900  0.60070  0.04300  Biso   1.000  H
  O53      1.0000 0.91830  0.39750  0.16310  Biso   1.000  O
  O54      1.0000 0.85230  0.44700  0.08930  Biso   1.000  O
  C170     1.0000 0.86920  0.40800  0.13840  Biso   1.000  C
  C171     1.0000 0.82630  0.36846  0.17250  Biso   1.000  C
  C172     1.0000 0.74681  0.29520  0.23570  Biso   1.000  C
  C173     1.0000 0.77140  0.37550  0.14780  Biso   1.000  C
  H157     1.0000 0.76110  0.40530  0.10940  Biso   1.000  H
  C174     1.0000 0.73167  0.33890  0.17950  Biso   1.000  C
  H158     1.0000 0.69420  0.34370  0.16260  Biso   1.000  H
  C175     1.0000 0.84145  0.32480  0.22870  Biso   1.000  C
  H159     1.0000 0.87900  0.32000  0.24560  Biso   1.000  H
  C176     1.0000 0.80170  0.28820  0.26030  Biso   1.000  C
  O55      1.0000 0.81760  0.24150  0.32040  Biso   1.000  O
  C177     1.0000 0.87610  0.23170  0.33800  Biso   1.000  C
  H160     1.0000 0.88010  0.19970  0.37890  Biso   1.000  H
  H161     1.0000 0.89530  0.22450  0.28060  Biso   1.000  H
  H162     1.0000 0.89220  0.26420  0.36780  Biso   1.000  H
  C178     1.0000 0.77280  0.37120  0.13880  Biso   1.000  C
  H163     1.0000 0.76340  0.39800  0.09410  Biso   1.000  H
  C179     1.0000 0.73310  0.33460  0.17030  Biso   1.000  C
  C180     1.0000 0.84010  0.32920  0.23780  Biso   1.000  C
  H164     1.0000 0.87660  0.32730  0.26090  Biso   1.000  H
  C181     1.0000 0.80030  0.29250  0.26940  Biso   1.000  C
  H165     1.0000 0.80970  0.26570  0.31410  Biso   1.000  H
  O56      1.0000 0.67630  0.33730  0.13470  Biso   1.000  O
  C182     1.0000 0.65810  0.39010  0.09600  Biso   1.000  C
  H166     1.0000 0.61950  0.38720  0.07720  Biso   1.000  H
  H167     1.0000 0.66180  0.41910  0.14250  Biso   1.000  H
  H168     1.0000 0.68100  0.39930  0.04300  Biso   1.000  H
  O57      1.0000 0.60250  0.91830  0.66310  Biso   1.000  O
  O58      1.0000 0.55300  0.85230  0.58930  Biso   1.000  O
  C183     1.0000 0.59200  0.86920  0.63840  Biso   1.000  C
  C184     1.0000 0.63154  0.82630  0.67250  Biso   1.000  C
  C185     1.0000 0.70480  0.74681  0.73570  Biso   1.000  C
  C186     1.0000 0.62450  0.77140  0.64780  Biso   1.000  C
  H169     1.0000 0.59470  0.76110  0.60940  Biso   1.000  H
  C187     1.0000 0.66110  0.73167  0.67950  Biso   1.000  C
  H170     1.0000 0.65630  0.69420  0.66260  Biso   1.000  H
  C188     1.0000 0.67520  0.84145  0.72870  Biso   1.000  C
  H171     1.0000 0.68000  0.87900  0.74560  Biso   1.000  H
  C189     1.0000 0.71180  0.80170  0.76030  Biso   1.000  C
  O59      1.0000 0.75850  0.81760  0.82040  Biso   1.000  O
  C190     1.0000 0.76830  0.87610  0.83800  Biso   1.000  C
  H172     1.0000 0.80030  0.88010  0.87890  Biso   1.000  H
  H173     1.0000 0.77550  0.89530  0.78060  Biso   1.000  H
  H174     1.0000 0.73580  0.89220  0.86780  Biso   1.000  H
  C191     1.0000 0.62880  0.77280  0.63880  Biso   1.000  C
  H175     1.0000 0.60200  0.76340  0.59410  Biso   1.000  H
  C192     1.0000 0.66540  0.73310  0.67030  Biso   1.000  C
  C193     1.0000 0.67080  0.84010  0.73780  Biso   1.000  C
  H176     1.0000 0.67270  0.87660  0.76090  Biso   1.000  H
  C194     1.0000 0.70750  0.80030  0.76940  Biso   1.000  C
  H177     1.0000 0.73430  0.80970  0.81410  Biso   1.000  H
  O60      1.0000 0.66270  0.67630  0.63470  Biso   1.000  O
  C195     1.0000 0.60990  0.65810  0.59600  Biso   1.000  C
  H178     1.0000 0.61280  0.61950  0.57720  Biso   1.000  H
  H179     1.0000 0.58090  0.66180  0.64250  Biso   1.000  H
  H180     1.0000 0.60070  0.68100  0.54300  Biso   1.000  H
  O61      1.0000 0.39750  0.08170  0.66310  Biso   1.000  O
  O62      1.0000 0.44700  0.14770  0.58930  Biso   1.000  O
  C196     1.0000 0.40800  0.13080  0.63840  Biso   1.000  C
  C197     1.0000 0.36846  0.17370  0.67250  Biso   1.000  C
  C198     1.0000 0.29520  0.25319  0.73570  Biso   1.000  C
  C199     1.0000 0.37550  0.22860  0.64780  Biso   1.000  C
  H181     1.0000 0.40530  0.23890  0.60940  Biso   1.000  H
  C200     1.0000 0.33890  0.26833  0.67950  Biso   1.000  C
  H182     1.0000 0.34370  0.30580  0.66260  Biso   1.000  H
  C201     1.0000 0.32480  0.15855  0.72870  Biso   1.000  C
  H183     1.0000 0.32000  0.12100  0.74560  Biso   1.000  H
  C202     1.0000 0.28820  0.19830  0.76030  Biso   1.000  C
  O63      1.0000 0.24150  0.18240  0.82040  Biso   1.000  O
  C203     1.0000 0.23170  0.12390  0.83800  Biso   1.000  C
  H184     1.0000 0.19970  0.11990  0.87890  Biso   1.000  H
  H185     1.0000 0.22450  0.10470  0.78060  Biso   1.000  H
  H186     1.0000 0.26420  0.10780  0.86780  Biso   1.000  H
  C204     1.0000 0.37120  0.22720  0.63880  Biso   1.000  C
  H187     1.0000 0.39800  0.23660  0.59410  Biso   1.000  H
  C205     1.0000 0.33460  0.26690  0.67030  Biso   1.000  C
  C206     1.0000 0.32920  0.15990  0.73780  Biso   1.000  C
  H188     1.0000 0.32730  0.12340  0.76090  Biso   1.000  H
  C207     1.0000 0.29250  0.19970  0.76940  Biso   1.000  C
  H189     1.0000 0.26570  0.19030  0.81410  Biso   1.000  H
  O64      1.0000 0.33730  0.32370  0.63470  Biso   1.000  O
  C208     1.0000 0.39010  0.34190  0.59600  Biso   1.000  C
  H190     1.0000 0.38720  0.38050  0.57720  Biso   1.000  H
  H191     1.0000 0.41910  0.33820  0.64250  Biso   1.000  H
  H192     1.0000 0.39930  0.31900  0.54300  Biso   1.000  H
  Zr1      1.0000 0.10038  0.50000  0.00000  Biso   1.000  Zr
  Zr2      1.0000 0.89962  0.50000  0.00000  Biso   1.000  Zr
  Zr3      1.0000 0.50000  0.10038  0.50000  Biso   1.000  Zr
  Zr4      1.0000 0.50000  0.89962  0.50000  Biso   1.000  Zr
  Zr5      1.0000 0.00000  0.42775  0.11979  Biso   1.000  Zr
  Zr6      1.0000 0.00000  0.57225  0.11979  Biso   1.000  Zr
  Zr7      1.0000 0.57225  0.00000  0.61979  Biso   1.000  Zr
  Zr8      1.0000 0.42775  0.00000  0.61979  Biso   1.000  Zr
  Zr9      1.0000 0.00000  0.42775  0.88021  Biso   1.000  Zr
  Zr10     1.0000 0.00000  0.57225  0.88021  Biso   1.000  Zr
  Zr11     1.0000 0.42775  0.00000  0.38021  Biso   1.000  Zr
  Zr12     1.0000 0.57225  0.00000  0.38021  Biso   1.000  Zr
  O65      1.0000 0.05020  0.42570  0.00000  Biso   1.000  O
  O66      1.0000 0.94980  0.57430  0.00000  Biso   1.000  O
  O67      1.0000 0.57430  0.05020  0.50000  Biso   1.000  O
  O68      1.0000 0.42570  0.94980  0.50000  Biso   1.000  O
  O69      1.0000 0.94980  0.42570  0.00000  Biso   1.000  O
  O70      1.0000 0.05020  0.57430  0.00000  Biso   1.000  O
  O71      1.0000 0.42570  0.05020  0.50000  Biso   1.000  O
  O72      1.0000 0.57430  0.94980  0.50000  Biso   1.000  O
  O73      1.0000 0.05000  0.50000  0.12730  Biso   1.000  O
  O74      1.0000 0.95000  0.50000  0.12730  Biso   1.000  O
  O75      1.0000 0.50000  0.05000  0.62730  Biso   1.000  O
  O76      1.0000 0.50000  0.95000  0.62730  Biso   1.000  O
  O77      1.0000 0.95000  0.50000  0.87270  Biso   1.000  O
  O78      1.0000 0.05000  0.50000  0.87270  Biso   1.000  O
  O79      1.0000 0.50000  0.05000  0.37270  Biso   1.000  O
  O80      1.0000 0.50000  0.95000  0.37270  Biso   1.000  O
