data_image0
_cell_length_a       23.679
_cell_length_b       23.679
_cell_length_c       16.816
_cell_angle_alpha    90
_cell_angle_beta     90
_cell_angle_gamma    90

_symmetry_space_group_name_H-M    "P 1"
_symmetry_int_tables_number       1

loop_
  _symmetry_equiv_pos_as_xyz
  'x, y, z'

loop_
  _atom_site_label
  _atom_site_occupancy
  _atom_site_fract_x
  _atom_site_fract_y
  _atom_site_fract_z
  _atom_site_thermal_displace_type
  _atom_site_B_iso_or_equiv
  _atom_site_type_symbol
  O1       1.0000 0.84902  0.44324  0.57914  Biso   1.000  O
  O2       1.0000 0.91613  0.39730  0.64920  Biso   1.000  O
  C1       1.0000 0.86588  0.40727  0.62950  Biso   1.000  C
  C2       1.0000 0.82152  0.37037  0.66730  Biso   1.000  C
  C3       1.0000 0.76711  0.37170  0.64020  Biso   1.000  C
  H1       1.0000 0.75720  0.39700  0.59860  Biso   1.000  H
  C4       1.0000 0.72630  0.33690  0.67260  Biso   1.000  C
  C5       1.0000 0.74180  0.29990  0.73260  Biso   1.000  C
  C6       1.0000 0.79580  0.29910  0.76070  Biso   1.000  C
  H2       1.0000 0.80570  0.27510  0.80380  Biso   1.000  H
  C7       1.0000 0.83660  0.33390  0.72530  Biso   1.000  C
  H3       1.0000 0.87480  0.33180  0.74210  Biso   1.000  H
  C8       1.0000 0.66710  0.33610  0.63680  Biso   1.000  C
  H4       1.0000 0.66450  0.36470  0.59480  Biso   1.000  H
  H5       1.0000 0.63930  0.34440  0.67840  Biso   1.000  H
  H6       1.0000 0.65950  0.29870  0.61420  Biso   1.000  H
  O3       1.0000 0.15098  0.55676  0.57914  Biso   1.000  O
  O4       1.0000 0.08387  0.60270  0.64920  Biso   1.000  O
  C9       1.0000 0.13412  0.59273  0.62950  Biso   1.000  C
  C10      1.0000 0.17848  0.62963  0.66730  Biso   1.000  C
  C11      1.0000 0.23289  0.62830  0.64020  Biso   1.000  C
  H7       1.0000 0.24280  0.60300  0.59860  Biso   1.000  H
  C12      1.0000 0.27370  0.66310  0.67260  Biso   1.000  C
  C13      1.0000 0.25820  0.70010  0.73260  Biso   1.000  C
  C14      1.0000 0.20420  0.70090  0.76070  Biso   1.000  C
  H8       1.0000 0.19430  0.72490  0.80380  Biso   1.000  H
  C15      1.0000 0.16340  0.66610  0.72530  Biso   1.000  C
  H9       1.0000 0.12520  0.66820  0.74210  Biso   1.000  H
  C16      1.0000 0.33290  0.66390  0.63680  Biso   1.000  C
  H10      1.0000 0.33550  0.63530  0.59480  Biso   1.000  H
  H11      1.0000 0.36070  0.65560  0.67840  Biso   1.000  H
  H12      1.0000 0.34050  0.70130  0.61420  Biso   1.000  H
  O5       1.0000 0.55676  0.84902  0.07914  Biso   1.000  O
  O6       1.0000 0.60270  0.91613  0.14920  Biso   1.000  O
  C17      1.0000 0.59273  0.86588  0.12950  Biso   1.000  C
  C18      1.0000 0.62963  0.82152  0.16730  Biso   1.000  C
  C19      1.0000 0.62830  0.76711  0.14020  Biso   1.000  C
  H13      1.0000 0.60300  0.75720  0.09860  Biso   1.000  H
  C20      1.0000 0.66310  0.72630  0.17260  Biso   1.000  C
  C21      1.0000 0.70010  0.74180  0.23260  Biso   1.000  C
  C22      1.0000 0.70090  0.79580  0.26070  Biso   1.000  C
  H14      1.0000 0.72490  0.80570  0.30380  Biso   1.000  H
  C23      1.0000 0.66610  0.83660  0.22530  Biso   1.000  C
  H15      1.0000 0.66820  0.87480  0.24210  Biso   1.000  H
  C24      1.0000 0.66390  0.66710  0.13680  Biso   1.000  C
  H16      1.0000 0.63530  0.66450  0.09480  Biso   1.000  H
  H17      1.0000 0.65560  0.63930  0.17840  Biso   1.000  H
  H18      1.0000 0.70130  0.65950  0.11420  Biso   1.000  H
  O7       1.0000 0.44324  0.15098  0.07914  Biso   1.000  O
  O8       1.0000 0.39730  0.08387  0.14920  Biso   1.000  O
  C25      1.0000 0.40727  0.13412  0.12950  Biso   1.000  C
  C26      1.0000 0.37037  0.17848  0.16730  Biso   1.000  C
  C27      1.0000 0.37170  0.23289  0.14020  Biso   1.000  C
  H19      1.0000 0.39700  0.24280  0.09860  Biso   1.000  H
  C28      1.0000 0.33690  0.27370  0.17260  Biso   1.000  C
  C29      1.0000 0.29990  0.25820  0.23260  Biso   1.000  C
  C30      1.0000 0.29910  0.20420  0.26070  Biso   1.000  C
  H20      1.0000 0.27510  0.19430  0.30380  Biso   1.000  H
  C31      1.0000 0.33390  0.16340  0.22530  Biso   1.000  C
  H21      1.0000 0.33180  0.12520  0.24210  Biso   1.000  H
  C32      1.0000 0.33610  0.33290  0.13680  Biso   1.000  C
  H22      1.0000 0.36470  0.33550  0.09480  Biso   1.000  H
  H23      1.0000 0.34440  0.36070  0.17840  Biso   1.000  H
  H24      1.0000 0.29870  0.34050  0.11420  Biso   1.000  H
  O9       1.0000 0.15098  0.44324  0.42086  Biso   1.000  O
  O10      1.0000 0.08387  0.39730  0.35080  Biso   1.000  O
  C33      1.0000 0.13412  0.40727  0.37050  Biso   1.000  C
  C34      1.0000 0.17848  0.37037  0.33270  Biso   1.000  C
  C35      1.0000 0.23289  0.37170  0.35980  Biso   1.000  C
  H25      1.0000 0.24280  0.39700  0.40140  Biso   1.000  H
  C36      1.0000 0.27370  0.33690  0.32740  Biso   1.000  C
  C37      1.0000 0.25820  0.29990  0.26740  Biso   1.000  C
  C38      1.0000 0.20420  0.29910  0.23930  Biso   1.000  C
  H26      1.0000 0.19430  0.27510  0.19620  Biso   1.000  H
  C39      1.0000 0.16340  0.33390  0.27470  Biso   1.000  C
  H27      1.0000 0.12520  0.33180  0.25790  Biso   1.000  H
  C40      1.0000 0.33290  0.33610  0.36320  Biso   1.000  C
  H28      1.0000 0.33550  0.36470  0.40520  Biso   1.000  H
  H29      1.0000 0.36070  0.34440  0.32160  Biso   1.000  H
  H30      1.0000 0.34050  0.29870  0.38580  Biso   1.000  H
  O11      1.0000 0.84902  0.55676  0.42086  Biso   1.000  O
  O12      1.0000 0.91613  0.60270  0.35080  Biso   1.000  O
  C41      1.0000 0.86588  0.59273  0.37050  Biso   1.000  C
  C42      1.0000 0.82152  0.62963  0.33270  Biso   1.000  C
  C43      1.0000 0.76711  0.62830  0.35980  Biso   1.000  C
  H31      1.0000 0.75720  0.60300  0.40140  Biso   1.000  H
  C44      1.0000 0.72630  0.66310  0.32740  Biso   1.000  C
  C45      1.0000 0.74180  0.70010  0.26740  Biso   1.000  C
  C46      1.0000 0.79580  0.70090  0.23930  Biso   1.000  C
  H32      1.0000 0.80570  0.72490  0.19620  Biso   1.000  H
  C47      1.0000 0.83660  0.66610  0.27470  Biso   1.000  C
  H33      1.0000 0.87480  0.66820  0.25790  Biso   1.000  H
  C48      1.0000 0.66710  0.66390  0.36320  Biso   1.000  C
  H34      1.0000 0.66450  0.63530  0.40520  Biso   1.000  H
  H35      1.0000 0.63930  0.65560  0.32160  Biso   1.000  H
  H36      1.0000 0.65950  0.70130  0.38580  Biso   1.000  H
  O13      1.0000 0.44324  0.84902  0.92086  Biso   1.000  O
  O14      1.0000 0.39730  0.91613  0.85080  Biso   1.000  O
  C49      1.0000 0.40727  0.86588  0.87050  Biso   1.000  C
  C50      1.0000 0.37037  0.82152  0.83270  Biso   1.000  C
  C51      1.0000 0.37170  0.76711  0.85980  Biso   1.000  C
  H37      1.0000 0.39700  0.75720  0.90140  Biso   1.000  H
  C52      1.0000 0.33690  0.72630  0.82740  Biso   1.000  C
  C53      1.0000 0.29990  0.74180  0.76740  Biso   1.000  C
  C54      1.0000 0.29910  0.79580  0.73930  Biso   1.000  C
  H38      1.0000 0.27510  0.80570  0.69620  Biso   1.000  H
  C55      1.0000 0.33390  0.83660  0.77470  Biso   1.000  C
  H39      1.0000 0.33180  0.87480  0.75790  Biso   1.000  H
  C56      1.0000 0.33610  0.66710  0.86320  Biso   1.000  C
  H40      1.0000 0.36470  0.66450  0.90520  Biso   1.000  H
  H41      1.0000 0.34440  0.63930  0.82160  Biso   1.000  H
  H42      1.0000 0.29870  0.65950  0.88580  Biso   1.000  H
  O15      1.0000 0.55676  0.15098  0.92086  Biso   1.000  O
  O16      1.0000 0.60270  0.08387  0.85080  Biso   1.000  O
  C57      1.0000 0.59273  0.13412  0.87050  Biso   1.000  C
  C58      1.0000 0.62963  0.17848  0.83270  Biso   1.000  C
  C59      1.0000 0.62830  0.23289  0.85980  Biso   1.000  C
  H43      1.0000 0.60300  0.24280  0.90140  Biso   1.000  H
  C60      1.0000 0.66310  0.27370  0.82740  Biso   1.000  C
  C61      1.0000 0.70010  0.25820  0.76740  Biso   1.000  C
  C62      1.0000 0.70090  0.20420  0.73930  Biso   1.000  C
  H44      1.0000 0.72490  0.19430  0.69620  Biso   1.000  H
  C63      1.0000 0.66610  0.16340  0.77470  Biso   1.000  C
  H45      1.0000 0.66820  0.12520  0.75790  Biso   1.000  H
  C64      1.0000 0.66390  0.33290  0.86320  Biso   1.000  C
  H46      1.0000 0.63530  0.33550  0.90520  Biso   1.000  H
  H47      1.0000 0.65560  0.36070  0.82160  Biso   1.000  H
  H48      1.0000 0.70130  0.34050  0.88580  Biso   1.000  H
  O17      1.0000 0.15098  0.55676  0.42086  Biso   1.000  O
  O18      1.0000 0.08387  0.60270  0.35080  Biso   1.000  O
  C65      1.0000 0.13412  0.59273  0.37050  Biso   1.000  C
  C66      1.0000 0.17848  0.62963  0.33270  Biso   1.000  C
  C67      1.0000 0.23289  0.62830  0.35980  Biso   1.000  C
  H49      1.0000 0.24280  0.60300  0.40140  Biso   1.000  H
  C68      1.0000 0.27370  0.66310  0.32740  Biso   1.000  C
  C69      1.0000 0.25820  0.70010  0.26740  Biso   1.000  C
  C70      1.0000 0.20420  0.70090  0.23930  Biso   1.000  C
  H50      1.0000 0.19430  0.72490  0.19620  Biso   1.000  H
  C71      1.0000 0.16340  0.66610  0.27470  Biso   1.000  C
  H51      1.0000 0.12520  0.66820  0.25790  Biso   1.000  H
  C72      1.0000 0.33290  0.66390  0.36320  Biso   1.000  C
  H52      1.0000 0.33550  0.63530  0.40520  Biso   1.000  H
  H53      1.0000 0.36070  0.65560  0.32160  Biso   1.000  H
  H54      1.0000 0.34050  0.70130  0.38580  Biso   1.000  H
  O19      1.0000 0.84902  0.44324  0.42086  Biso   1.000  O
  O20      1.0000 0.91613  0.39730  0.35080  Biso   1.000  O
  C73      1.0000 0.86588  0.40727  0.37050  Biso   1.000  C
  C74      1.0000 0.82152  0.37037  0.33270  Biso   1.000  C
  C75      1.0000 0.76711  0.37170  0.35980  Biso   1.000  C
  H55      1.0000 0.75720  0.39700  0.40140  Biso   1.000  H
  C76      1.0000 0.72630  0.33690  0.32740  Biso   1.000  C
  C77      1.0000 0.74180  0.29990  0.26740  Biso   1.000  C
  C78      1.0000 0.79580  0.29910  0.23930  Biso   1.000  C
  H56      1.0000 0.80570  0.27510  0.19620  Biso   1.000  H
  C79      1.0000 0.83660  0.33390  0.27470  Biso   1.000  C
  H57      1.0000 0.87480  0.33180  0.25790  Biso   1.000  H
  C80      1.0000 0.66710  0.33610  0.36320  Biso   1.000  C
  H58      1.0000 0.66450  0.36470  0.40520  Biso   1.000  H
  H59      1.0000 0.63930  0.34440  0.32160  Biso   1.000  H
  H60      1.0000 0.65950  0.29870  0.38580  Biso   1.000  H
  O21      1.0000 0.44324  0.15098  0.92086  Biso   1.000  O
  O22      1.0000 0.39730  0.08387  0.85080  Biso   1.000  O
  C81      1.0000 0.40727  0.13412  0.87050  Biso   1.000  C
  C82      1.0000 0.37037  0.17848  0.83270  Biso   1.000  C
  C83      1.0000 0.37170  0.23289  0.85980  Biso   1.000  C
  H61      1.0000 0.39700  0.24280  0.90140  Biso   1.000  H
  C84      1.0000 0.33690  0.27370  0.82740  Biso   1.000  C
  C85      1.0000 0.29990  0.25820  0.76740  Biso   1.000  C
  C86      1.0000 0.29910  0.20420  0.73930  Biso   1.000  C
  H62      1.0000 0.27510  0.19430  0.69620  Biso   1.000  H
  C87      1.0000 0.33390  0.16340  0.77470  Biso   1.000  C
  H63      1.0000 0.33180  0.12520  0.75790  Biso   1.000  H
  C88      1.0000 0.33610  0.33290  0.86320  Biso   1.000  C
  H64      1.0000 0.36470  0.33550  0.90520  Biso   1.000  H
  H65      1.0000 0.34440  0.36070  0.82160  Biso   1.000  H
  H66      1.0000 0.29870  0.34050  0.88580  Biso   1.000  H
  O23      1.0000 0.55676  0.84902  0.92086  Biso   1.000  O
  O24      1.0000 0.60270  0.91613  0.85080  Biso   1.000  O
  C89      1.0000 0.59273  0.86588  0.87050  Biso   1.000  C
  C90      1.0000 0.62963  0.82152  0.83270  Biso   1.000  C
  C91      1.0000 0.62830  0.76711  0.85980  Biso   1.000  C
  H67      1.0000 0.60300  0.75720  0.90140  Biso   1.000  H
  C92      1.0000 0.66310  0.72630  0.82740  Biso   1.000  C
  C93      1.0000 0.70010  0.74180  0.76740  Biso   1.000  C
  C94      1.0000 0.70090  0.79580  0.73930  Biso   1.000  C
  H68      1.0000 0.72490  0.80570  0.69620  Biso   1.000  H
  C95      1.0000 0.66610  0.83660  0.77470  Biso   1.000  C
  H69      1.0000 0.66820  0.87480  0.75790  Biso   1.000  H
  C96      1.0000 0.66390  0.66710  0.86320  Biso   1.000  C
  H70      1.0000 0.63530  0.66450  0.90520  Biso   1.000  H
  H71      1.0000 0.65560  0.63930  0.82160  Biso   1.000  H
  H72      1.0000 0.70130  0.65950  0.88580  Biso   1.000  H
  O25      1.0000 0.84902  0.55676  0.57914  Biso   1.000  O
  O26      1.0000 0.91613  0.60270  0.64920  Biso   1.000  O
  C97      1.0000 0.86588  0.59273  0.62950  Biso   1.000  C
  C98      1.0000 0.82152  0.62963  0.66730  Biso   1.000  C
  C99      1.0000 0.76711  0.62830  0.64020  Biso   1.000  C
  H73      1.0000 0.75720  0.60300  0.59860  Biso   1.000  H
  C100     1.0000 0.72630  0.66310  0.67260  Biso   1.000  C
  C101     1.0000 0.74180  0.70010  0.73260  Biso   1.000  C
  C102     1.0000 0.79580  0.70090  0.76070  Biso   1.000  C
  H74      1.0000 0.80570  0.72490  0.80380  Biso   1.000  H
  C103     1.0000 0.83660  0.66610  0.72530  Biso   1.000  C
  H75      1.0000 0.87480  0.66820  0.74210  Biso   1.000  H
  C104     1.0000 0.66710  0.66390  0.63680  Biso   1.000  C
  H76      1.0000 0.66450  0.63530  0.59480  Biso   1.000  H
  H77      1.0000 0.63930  0.65560  0.67840  Biso   1.000  H
  H78      1.0000 0.65950  0.70130  0.61420  Biso   1.000  H
  O27      1.0000 0.15098  0.44324  0.57914  Biso   1.000  O
  O28      1.0000 0.08387  0.39730  0.64920  Biso   1.000  O
  C105     1.0000 0.13412  0.40727  0.62950  Biso   1.000  C
  C106     1.0000 0.17848  0.37037  0.66730  Biso   1.000  C
  C107     1.0000 0.23289  0.37170  0.64020  Biso   1.000  C
  H79      1.0000 0.24280  0.39700  0.59860  Biso   1.000  H
  C108     1.0000 0.27370  0.33690  0.67260  Biso   1.000  C
  C109     1.0000 0.25820  0.29990  0.73260  Biso   1.000  C
  C110     1.0000 0.20420  0.29910  0.76070  Biso   1.000  C
  H80      1.0000 0.19430  0.27510  0.80380  Biso   1.000  H
  C111     1.0000 0.16340  0.33390  0.72530  Biso   1.000  C
  H81      1.0000 0.12520  0.33180  0.74210  Biso   1.000  H
  C112     1.0000 0.33290  0.33610  0.63680  Biso   1.000  C
  H82      1.0000 0.33550  0.36470  0.59480  Biso   1.000  H
  H83      1.0000 0.36070  0.34440  0.67840  Biso   1.000  H
  H84      1.0000 0.34050  0.29870  0.61420  Biso   1.000  H
  O29      1.0000 0.55676  0.15098  0.07914  Biso   1.000  O
  O30      1.0000 0.60270  0.08387  0.14920  Biso   1.000  O
  C113     1.0000 0.59273  0.13412  0.12950  Biso   1.000  C
  C114     1.0000 0.62963  0.17848  0.16730  Biso   1.000  C
  C115     1.0000 0.62830  0.23289  0.14020  Biso   1.000  C
  H85      1.0000 0.60300  0.24280  0.09860  Biso   1.000  H
  C116     1.0000 0.66310  0.27370  0.17260  Biso   1.000  C
  C117     1.0000 0.70010  0.25820  0.23260  Biso   1.000  C
  C118     1.0000 0.70090  0.20420  0.26070  Biso   1.000  C
  H86      1.0000 0.72490  0.19430  0.30380  Biso   1.000  H
  C119     1.0000 0.66610  0.16340  0.22530  Biso   1.000  C
  H87      1.0000 0.66820  0.12520  0.24210  Biso   1.000  H
  C120     1.0000 0.66390  0.33290  0.13680  Biso   1.000  C
  H88      1.0000 0.63530  0.33550  0.09480  Biso   1.000  H
  H89      1.0000 0.65560  0.36070  0.17840  Biso   1.000  H
  H90      1.0000 0.70130  0.34050  0.11420  Biso   1.000  H
  O31      1.0000 0.44324  0.84902  0.07914  Biso   1.000  O
  O32      1.0000 0.39730  0.91613  0.14920  Biso   1.000  O
  C121     1.0000 0.40727  0.86588  0.12950  Biso   1.000  C
  C122     1.0000 0.37037  0.82152  0.16730  Biso   1.000  C
  C123     1.0000 0.37170  0.76711  0.14020  Biso   1.000  C
  H91      1.0000 0.39700  0.75720  0.09860  Biso   1.000  H
  C124     1.0000 0.33690  0.72630  0.17260  Biso   1.000  C
  C125     1.0000 0.29990  0.74180  0.23260  Biso   1.000  C
  C126     1.0000 0.29910  0.79580  0.26070  Biso   1.000  C
  H92      1.0000 0.27510  0.80570  0.30380  Biso   1.000  H
  C127     1.0000 0.33390  0.83660  0.22530  Biso   1.000  C
  H93      1.0000 0.33180  0.87480  0.24210  Biso   1.000  H
  C128     1.0000 0.33610  0.66710  0.13680  Biso   1.000  C
  H94      1.0000 0.36470  0.66450  0.09480  Biso   1.000  H
  H95      1.0000 0.34440  0.63930  0.17840  Biso   1.000  H
  H96      1.0000 0.29870  0.65950  0.11420  Biso   1.000  H
  Zr1      1.0000 0.00000  0.42651  0.60484  Biso   1.000  Zr
  C129     1.0000 0.00000  0.49010  0.85540  Biso   1.000  C
  C130     1.0000 0.00000  0.43780  0.89310  Biso   1.000  C
  H97      1.0000 0.00000  0.40290  0.86410  Biso   1.000  H
  C131     1.0000 0.00000  0.43490  0.97560  Biso   1.000  C
  C132     1.0000 0.00000  0.48410  0.02050  Biso   1.000  C
  C133     1.0000 0.00000  0.53640  0.98290  Biso   1.000  C
  C134     1.0000 0.00000  0.53940  0.90030  Biso   1.000  C
  H98      1.0000 0.00000  0.57470  0.87220  Biso   1.000  H
  C135     1.0000 0.00000  0.48120  0.10310  Biso   1.000  C
  H99      1.0000 0.00000  0.44590  0.13120  Biso   1.000  H
  C136     1.0000 0.00000  0.53040  0.14800  Biso   1.000  C
  C137     1.0000 0.00000  0.58270  0.11040  Biso   1.000  C
  H100     1.0000 0.00000  0.61770  0.13930  Biso   1.000  H
  C138     1.0000 0.00000  0.58570  0.02780  Biso   1.000  C
  C139     1.0000 0.00000  0.52020  0.23660  Biso   1.000  C
  O33      1.0000 0.00000  0.45640  0.72130  Biso   1.000  O
  O34      1.0000 0.00000  0.56320  0.28300  Biso   1.000  O
  O35      1.0000 0.00000  0.46920  0.26220  Biso   1.000  O
  O36      1.0000 0.00000  0.55063  0.74060  Biso   1.000  O
  Zr2      1.0000 0.00000  0.57349  0.60484  Biso   1.000  Zr
  C140     1.0000 0.00000  0.50990  0.85540  Biso   1.000  C
  C141     1.0000 0.00000  0.56220  0.89310  Biso   1.000  C
  H101     1.0000 0.00000  0.59710  0.86410  Biso   1.000  H
  C142     1.0000 0.00000  0.56510  0.97560  Biso   1.000  C
  C143     1.0000 0.00000  0.51590  0.02050  Biso   1.000  C
  C144     1.0000 0.00000  0.46360  0.98290  Biso   1.000  C
  C145     1.0000 0.00000  0.46060  0.90030  Biso   1.000  C
  H102     1.0000 0.00000  0.42530  0.87220  Biso   1.000  H
  C146     1.0000 0.00000  0.51880  0.10310  Biso   1.000  C
  H103     1.0000 0.00000  0.55410  0.13120  Biso   1.000  H
  C147     1.0000 0.00000  0.46960  0.14800  Biso   1.000  C
  C148     1.0000 0.00000  0.41730  0.11040  Biso   1.000  C
  H104     1.0000 0.00000  0.38230  0.13930  Biso   1.000  H
  C149     1.0000 0.00000  0.41430  0.02780  Biso   1.000  C
  C150     1.0000 0.00000  0.47980  0.23660  Biso   1.000  C
  O37      1.0000 0.00000  0.54360  0.72130  Biso   1.000  O
  O38      1.0000 0.00000  0.43680  0.28300  Biso   1.000  O
  O39      1.0000 0.00000  0.53080  0.26220  Biso   1.000  O
  O40      1.0000 0.00000  0.44937  0.74060  Biso   1.000  O
  Zr3      1.0000 0.57349  0.00000  0.10484  Biso   1.000  Zr
  C151     1.0000 0.50990  0.00000  0.35540  Biso   1.000  C
  C152     1.0000 0.56220  0.00000  0.39310  Biso   1.000  C
  H105     1.0000 0.59710  0.00000  0.36410  Biso   1.000  H
  C153     1.0000 0.56510  0.00000  0.47560  Biso   1.000  C
  C154     1.0000 0.51590  0.00000  0.52050  Biso   1.000  C
  C155     1.0000 0.46360  0.00000  0.48290  Biso   1.000  C
  C156     1.0000 0.46060  0.00000  0.40030  Biso   1.000  C
  H106     1.0000 0.42530  0.00000  0.37220  Biso   1.000  H
  C157     1.0000 0.51880  0.00000  0.60310  Biso   1.000  C
  H107     1.0000 0.55410  0.00000  0.63120  Biso   1.000  H
  C158     1.0000 0.46960  0.00000  0.64800  Biso   1.000  C
  C159     1.0000 0.41730  0.00000  0.61040  Biso   1.000  C
  H108     1.0000 0.38230  0.00000  0.63930  Biso   1.000  H
  C160     1.0000 0.41430  0.00000  0.52780  Biso   1.000  C
  C161     1.0000 0.47980  0.00000  0.73660  Biso   1.000  C
  O41      1.0000 0.54360  0.00000  0.22130  Biso   1.000  O
  O42      1.0000 0.43680  0.00000  0.78300  Biso   1.000  O
  O43      1.0000 0.53080  0.00000  0.76220  Biso   1.000  O
  O44      1.0000 0.44937  0.00000  0.24060  Biso   1.000  O
  Zr4      1.0000 0.42651  0.00000  0.10484  Biso   1.000  Zr
  C162     1.0000 0.49010  0.00000  0.35540  Biso   1.000  C
  C163     1.0000 0.43780  0.00000  0.39310  Biso   1.000  C
  H109     1.0000 0.40290  0.00000  0.36410  Biso   1.000  H
  C164     1.0000 0.43490  0.00000  0.47560  Biso   1.000  C
  C165     1.0000 0.48410  0.00000  0.52050  Biso   1.000  C
  C166     1.0000 0.53640  0.00000  0.48290  Biso   1.000  C
  C167     1.0000 0.53940  0.00000  0.40030  Biso   1.000  C
  H110     1.0000 0.57470  0.00000  0.37220  Biso   1.000  H
  C168     1.0000 0.48120  0.00000  0.60310  Biso   1.000  C
  H111     1.0000 0.44590  0.00000  0.63120  Biso   1.000  H
  C169     1.0000 0.53040  0.00000  0.64800  Biso   1.000  C
  C170     1.0000 0.58270  0.00000  0.61040  Biso   1.000  C
  H112     1.0000 0.61770  0.00000  0.63930  Biso   1.000  H
  C171     1.0000 0.58570  0.00000  0.52780  Biso   1.000  C
  C172     1.0000 0.52020  0.00000  0.73660  Biso   1.000  C
  O45      1.0000 0.45640  0.00000  0.22130  Biso   1.000  O
  O46      1.0000 0.56320  0.00000  0.78300  Biso   1.000  O
  O47      1.0000 0.46920  0.00000  0.76220  Biso   1.000  O
  O48      1.0000 0.55063  0.00000  0.24060  Biso   1.000  O
  Zr5      1.0000 0.00000  0.42651  0.39516  Biso   1.000  Zr
  C173     1.0000 0.00000  0.49010  0.14460  Biso   1.000  C
  C174     1.0000 0.00000  0.43780  0.10690  Biso   1.000  C
  H113     1.0000 0.00000  0.40290  0.13590  Biso   1.000  H
  C175     1.0000 0.00000  0.43490  0.02440  Biso   1.000  C
  C176     1.0000 0.00000  0.48410  0.97950  Biso   1.000  C
  C177     1.0000 0.00000  0.53640  0.01710  Biso   1.000  C
  C178     1.0000 0.00000  0.53940  0.09970  Biso   1.000  C
  H114     1.0000 0.00000  0.57470  0.12780  Biso   1.000  H
  C179     1.0000 0.00000  0.48120  0.89690  Biso   1.000  C
  H115     1.0000 0.00000  0.44590  0.86880  Biso   1.000  H
  C180     1.0000 0.00000  0.53040  0.85200  Biso   1.000  C
  C181     1.0000 0.00000  0.58270  0.88960  Biso   1.000  C
  H116     1.0000 0.00000  0.61770  0.86070  Biso   1.000  H
  C182     1.0000 0.00000  0.58570  0.97220  Biso   1.000  C
  C183     1.0000 0.00000  0.52020  0.76340  Biso   1.000  C
  O49      1.0000 0.00000  0.45640  0.27870  Biso   1.000  O
  O50      1.0000 0.00000  0.56320  0.71700  Biso   1.000  O
  O51      1.0000 0.00000  0.46920  0.73780  Biso   1.000  O
  O52      1.0000 0.00000  0.55063  0.25940  Biso   1.000  O
  Zr6      1.0000 0.00000  0.57349  0.39516  Biso   1.000  Zr
  C184     1.0000 0.00000  0.50990  0.14460  Biso   1.000  C
  C185     1.0000 0.00000  0.56220  0.10690  Biso   1.000  C
  H117     1.0000 0.00000  0.59710  0.13590  Biso   1.000  H
  C186     1.0000 0.00000  0.56510  0.02440  Biso   1.000  C
  C187     1.0000 0.00000  0.51590  0.97950  Biso   1.000  C
  C188     1.0000 0.00000  0.46360  0.01710  Biso   1.000  C
  C189     1.0000 0.00000  0.46060  0.09970  Biso   1.000  C
  H118     1.0000 0.00000  0.42530  0.12780  Biso   1.000  H
  C190     1.0000 0.00000  0.51880  0.89690  Biso   1.000  C
  H119     1.0000 0.00000  0.55410  0.86880  Biso   1.000  H
  C191     1.0000 0.00000  0.46960  0.85200  Biso   1.000  C
  C192     1.0000 0.00000  0.41730  0.88960  Biso   1.000  C
  H120     1.0000 0.00000  0.38230  0.86070  Biso   1.000  H
  C193     1.0000 0.00000  0.41430  0.97220  Biso   1.000  C
  C194     1.0000 0.00000  0.47980  0.76340  Biso   1.000  C
  O53      1.0000 0.00000  0.54360  0.27870  Biso   1.000  O
  O54      1.0000 0.00000  0.43680  0.71700  Biso   1.000  O
  O55      1.0000 0.00000  0.53080  0.73780  Biso   1.000  O
  O56      1.0000 0.00000  0.44937  0.25940  Biso   1.000  O
  Zr7      1.0000 0.42651  0.00000  0.89516  Biso   1.000  Zr
  C195     1.0000 0.49010  0.00000  0.64460  Biso   1.000  C
  C196     1.0000 0.43780  0.00000  0.60690  Biso   1.000  C
  H121     1.0000 0.40290  0.00000  0.63590  Biso   1.000  H
  C197     1.0000 0.43490  0.00000  0.52440  Biso   1.000  C
  C198     1.0000 0.48410  0.00000  0.47950  Biso   1.000  C
  C199     1.0000 0.53640  0.00000  0.51710  Biso   1.000  C
  C200     1.0000 0.53940  0.00000  0.59970  Biso   1.000  C
  H122     1.0000 0.57470  0.00000  0.62780  Biso   1.000  H
  C201     1.0000 0.48120  0.00000  0.39690  Biso   1.000  C
  H123     1.0000 0.44590  0.00000  0.36880  Biso   1.000  H
  C202     1.0000 0.53040  0.00000  0.35200  Biso   1.000  C
  C203     1.0000 0.58270  0.00000  0.38960  Biso   1.000  C
  H124     1.0000 0.61770  0.00000  0.36070  Biso   1.000  H
  C204     1.0000 0.58570  0.00000  0.47220  Biso   1.000  C
  C205     1.0000 0.52020  0.00000  0.26340  Biso   1.000  C
  O57      1.0000 0.45640  0.00000  0.77870  Biso   1.000  O
  O58      1.0000 0.56320  0.00000  0.21700  Biso   1.000  O
  O59      1.0000 0.46920  0.00000  0.23780  Biso   1.000  O
  O60      1.0000 0.55063  0.00000  0.75940  Biso   1.000  O
  Zr8      1.0000 0.57349  0.00000  0.89516  Biso   1.000  Zr
  C206     1.0000 0.50990  0.00000  0.64460  Biso   1.000  C
  C207     1.0000 0.56220  0.00000  0.60690  Biso   1.000  C
  H125     1.0000 0.59710  0.00000  0.63590  Biso   1.000  H
  C208     1.0000 0.56510  0.00000  0.52440  Biso   1.000  C
  C209     1.0000 0.51590  0.00000  0.47950  Biso   1.000  C
  C210     1.0000 0.46360  0.00000  0.51710  Biso   1.000  C
  C211     1.0000 0.46060  0.00000  0.59970  Biso   1.000  C
  H126     1.0000 0.42530  0.00000  0.62780  Biso   1.000  H
  C212     1.0000 0.51880  0.00000  0.39690  Biso   1.000  C
  H127     1.0000 0.55410  0.00000  0.36880  Biso   1.000  H
  C213     1.0000 0.46960  0.00000  0.35200  Biso   1.000  C
  C214     1.0000 0.41730  0.00000  0.38960  Biso   1.000  C
  H128     1.0000 0.38230  0.00000  0.36070  Biso   1.000  H
  C215     1.0000 0.41430  0.00000  0.47220  Biso   1.000  C
  C216     1.0000 0.47980  0.00000  0.26340  Biso   1.000  C
  O61      1.0000 0.54360  0.00000  0.77870  Biso   1.000  O
  O62      1.0000 0.43680  0.00000  0.21700  Biso   1.000  O
  O63      1.0000 0.53080  0.00000  0.23780  Biso   1.000  O
  O64      1.0000 0.44937  0.00000  0.75940  Biso   1.000  O
  Zr9      1.0000 0.89626  0.50000  0.50000  Biso   1.000  Zr
  Zr10     1.0000 0.10374  0.50000  0.50000  Biso   1.000  Zr
  Zr11     1.0000 0.50000  0.89626  0.00000  Biso   1.000  Zr
  Zr12     1.0000 0.50000  0.10374  0.00000  Biso   1.000  Zr
  O65      1.0000 0.94965  0.42540  0.50000  Biso   1.000  O
  O66      1.0000 0.05035  0.57460  0.50000  Biso   1.000  O
  O67      1.0000 0.57460  0.94965  0.00000  Biso   1.000  O
  O68      1.0000 0.42540  0.05035  0.00000  Biso   1.000  O
  O69      1.0000 0.05035  0.42540  0.50000  Biso   1.000  O
  O70      1.0000 0.94965  0.57460  0.50000  Biso   1.000  O
  O71      1.0000 0.42540  0.94965  0.00000  Biso   1.000  O
  O72      1.0000 0.57460  0.05035  0.00000  Biso   1.000  O
  O73      1.0000 0.94876  0.50000  0.60190  Biso   1.000  O
  O74      1.0000 0.05124  0.50000  0.60190  Biso   1.000  O
  O75      1.0000 0.50000  0.94876  0.10190  Biso   1.000  O
  O76      1.0000 0.50000  0.05124  0.10190  Biso   1.000  O
  O77      1.0000 0.05124  0.50000  0.39810  Biso   1.000  O
  O78      1.0000 0.94876  0.50000  0.39810  Biso   1.000  O
  O79      1.0000 0.50000  0.94876  0.89810  Biso   1.000  O
  O80      1.0000 0.50000  0.05124  0.89810  Biso   1.000  O
  C217     1.0000 0.00000  0.50000  0.76680  Biso   1.000  C
  C218     1.0000 0.50000  0.00000  0.26680  Biso   1.000  C
  C219     1.0000 0.00000  0.50000  0.23320  Biso   1.000  C
  C220     1.0000 0.50000  0.00000  0.73320  Biso   1.000  C
  H129     1.0000 0.00000  0.39960  0.00000  Biso   1.000  H
  H130     1.0000 0.00000  0.62100  0.00000  Biso   1.000  H
  H131     1.0000 0.00000  0.60040  0.00000  Biso   1.000  H
  H132     1.0000 0.00000  0.37900  0.00000  Biso   1.000  H
  H133     1.0000 0.60040  0.00000  0.50000  Biso   1.000  H
  H134     1.0000 0.37900  0.00000  0.50000  Biso   1.000  H
  H135     1.0000 0.39960  0.00000  0.50000  Biso   1.000  H
  H136     1.0000 0.62100  0.00000  0.50000  Biso   1.000  H
