data_image0
_cell_length_a       24.378
_cell_length_b       24.378
_cell_length_c       15.017
_cell_angle_alpha    90
_cell_angle_beta     90
_cell_angle_gamma    90

_symmetry_space_group_name_H-M    "P 1"
_symmetry_int_tables_number       1

loop_
  _symmetry_equiv_pos_as_xyz
  'x, y, z'

loop_
  _atom_site_label
  _atom_site_occupancy
  _atom_site_fract_x
  _atom_site_fract_y
  _atom_site_fract_z
  _atom_site_thermal_displace_type
  _atom_site_B_iso_or_equiv
  _atom_site_type_symbol
  O1       1.0000 0.85281  0.44550  0.58890  Biso   1.000  O
  O2       1.0000 0.91800  0.39620  0.66290  Biso   1.000  O
  C1       1.0000 0.86810  0.40800  0.64000  Biso   1.000  C
  C2       1.0000 0.82630  0.36740  0.67320  Biso   1.000  C
  C3       1.0000 0.77390  0.37160  0.64210  Biso   1.000  C
  H1       1.0000 0.76440  0.39940  0.60050  Biso   1.000  H
  C4       1.0000 0.73340  0.33360  0.67260  Biso   1.000  C
  C5       1.0000 0.74660  0.29420  0.73250  Biso   1.000  C
  C6       1.0000 0.80210  0.28950  0.76330  Biso   1.000  C
  H2       1.0000 0.81220  0.26130  0.80370  Biso   1.000  H
  C7       1.0000 0.84050  0.32670  0.73300  Biso   1.000  C
  H3       1.0000 0.87730  0.32420  0.75360  Biso   1.000  H
  C8       1.0000 0.67600  0.33950  0.63500  Biso   1.000  C
  H4       1.0000 0.67490  0.37050  0.59340  Biso   1.000  H
  H5       1.0000 0.65000  0.34600  0.68370  Biso   1.000  H
  H6       1.0000 0.66580  0.30570  0.60350  Biso   1.000  H
  H7       1.0000 0.96790  0.11430  0.66920  Biso   1.000  H
  O3       1.0000 0.14719  0.55450  0.58890  Biso   1.000  O
  O4       1.0000 0.08200  0.60380  0.66290  Biso   1.000  O
  C9       1.0000 0.13190  0.59200  0.64000  Biso   1.000  C
  C10      1.0000 0.17370  0.63260  0.67320  Biso   1.000  C
  C11      1.0000 0.22610  0.62840  0.64210  Biso   1.000  C
  H8       1.0000 0.23560  0.60060  0.60050  Biso   1.000  H
  C12      1.0000 0.26660  0.66640  0.67260  Biso   1.000  C
  C13      1.0000 0.25340  0.70580  0.73250  Biso   1.000  C
  C14      1.0000 0.19790  0.71050  0.76330  Biso   1.000  C
  H9       1.0000 0.18780  0.73870  0.80370  Biso   1.000  H
  C15      1.0000 0.15950  0.67330  0.73300  Biso   1.000  C
  H10      1.0000 0.12270  0.67580  0.75360  Biso   1.000  H
  C16      1.0000 0.32400  0.66050  0.63500  Biso   1.000  C
  H11      1.0000 0.32510  0.62950  0.59340  Biso   1.000  H
  H12      1.0000 0.35000  0.65400  0.68370  Biso   1.000  H
  H13      1.0000 0.33420  0.69430  0.60350  Biso   1.000  H
  H14      1.0000 0.03210  0.88570  0.66920  Biso   1.000  H
  O5       1.0000 0.55450  0.85281  0.08890  Biso   1.000  O
  O6       1.0000 0.60380  0.91800  0.16290  Biso   1.000  O
  C17      1.0000 0.59200  0.86810  0.14000  Biso   1.000  C
  C18      1.0000 0.63260  0.82630  0.17320  Biso   1.000  C
  C19      1.0000 0.62840  0.77390  0.14210  Biso   1.000  C
  H15      1.0000 0.60060  0.76440  0.10050  Biso   1.000  H
  C20      1.0000 0.66640  0.73340  0.17260  Biso   1.000  C
  C21      1.0000 0.70580  0.74660  0.23250  Biso   1.000  C
  C22      1.0000 0.71050  0.80210  0.26330  Biso   1.000  C
  H16      1.0000 0.73870  0.81220  0.30370  Biso   1.000  H
  C23      1.0000 0.67330  0.84050  0.23300  Biso   1.000  C
  H17      1.0000 0.67580  0.87730  0.25360  Biso   1.000  H
  C24      1.0000 0.66050  0.67600  0.13500  Biso   1.000  C
  H18      1.0000 0.62950  0.67490  0.09340  Biso   1.000  H
  H19      1.0000 0.65400  0.65000  0.18370  Biso   1.000  H
  H20      1.0000 0.69430  0.66580  0.10350  Biso   1.000  H
  H21      1.0000 0.88570  0.96790  0.16920  Biso   1.000  H
  O7       1.0000 0.44550  0.14719  0.08890  Biso   1.000  O
  O8       1.0000 0.39620  0.08200  0.16290  Biso   1.000  O
  C25      1.0000 0.40800  0.13190  0.14000  Biso   1.000  C
  C26      1.0000 0.36740  0.17370  0.17320  Biso   1.000  C
  C27      1.0000 0.37160  0.22610  0.14210  Biso   1.000  C
  H22      1.0000 0.39940  0.23560  0.10050  Biso   1.000  H
  C28      1.0000 0.33360  0.26660  0.17260  Biso   1.000  C
  C29      1.0000 0.29420  0.25340  0.23250  Biso   1.000  C
  C30      1.0000 0.28950  0.19790  0.26330  Biso   1.000  C
  H23      1.0000 0.26130  0.18780  0.30370  Biso   1.000  H
  C31      1.0000 0.32670  0.15950  0.23300  Biso   1.000  C
  H24      1.0000 0.32420  0.12270  0.25360  Biso   1.000  H
  C32      1.0000 0.33950  0.32400  0.13500  Biso   1.000  C
  H25      1.0000 0.37050  0.32510  0.09340  Biso   1.000  H
  H26      1.0000 0.34600  0.35000  0.18370  Biso   1.000  H
  H27      1.0000 0.30570  0.33420  0.10350  Biso   1.000  H
  H28      1.0000 0.11430  0.03210  0.16920  Biso   1.000  H
  O9       1.0000 0.14719  0.44550  0.41110  Biso   1.000  O
  O10      1.0000 0.08200  0.39620  0.33710  Biso   1.000  O
  C33      1.0000 0.13190  0.40800  0.36000  Biso   1.000  C
  C34      1.0000 0.17370  0.36740  0.32680  Biso   1.000  C
  C35      1.0000 0.22610  0.37160  0.35790  Biso   1.000  C
  H29      1.0000 0.23560  0.39940  0.39950  Biso   1.000  H
  C36      1.0000 0.26660  0.33360  0.32740  Biso   1.000  C
  C37      1.0000 0.25340  0.29420  0.26750  Biso   1.000  C
  C38      1.0000 0.19790  0.28950  0.23670  Biso   1.000  C
  H30      1.0000 0.18780  0.26130  0.19630  Biso   1.000  H
  C39      1.0000 0.15950  0.32670  0.26700  Biso   1.000  C
  H31      1.0000 0.12270  0.32420  0.24640  Biso   1.000  H
  C40      1.0000 0.32400  0.33950  0.36500  Biso   1.000  C
  H32      1.0000 0.32510  0.37050  0.40660  Biso   1.000  H
  H33      1.0000 0.35000  0.34600  0.31630  Biso   1.000  H
  H34      1.0000 0.33420  0.30570  0.39650  Biso   1.000  H
  H35      1.0000 0.03210  0.11430  0.33080  Biso   1.000  H
  O11      1.0000 0.85281  0.55450  0.41110  Biso   1.000  O
  O12      1.0000 0.91800  0.60380  0.33710  Biso   1.000  O
  C41      1.0000 0.86810  0.59200  0.36000  Biso   1.000  C
  C42      1.0000 0.82630  0.63260  0.32680  Biso   1.000  C
  C43      1.0000 0.77390  0.62840  0.35790  Biso   1.000  C
  H36      1.0000 0.76440  0.60060  0.39950  Biso   1.000  H
  C44      1.0000 0.73340  0.66640  0.32740  Biso   1.000  C
  C45      1.0000 0.74660  0.70580  0.26750  Biso   1.000  C
  C46      1.0000 0.80210  0.71050  0.23670  Biso   1.000  C
  H37      1.0000 0.81220  0.73870  0.19630  Biso   1.000  H
  C47      1.0000 0.84050  0.67330  0.26700  Biso   1.000  C
  H38      1.0000 0.87730  0.67580  0.24640  Biso   1.000  H
  C48      1.0000 0.67600  0.66050  0.36500  Biso   1.000  C
  H39      1.0000 0.67490  0.62950  0.40660  Biso   1.000  H
  H40      1.0000 0.65000  0.65400  0.31630  Biso   1.000  H
  H41      1.0000 0.66580  0.69430  0.39650  Biso   1.000  H
  H42      1.0000 0.96790  0.88570  0.33080  Biso   1.000  H
  O13      1.0000 0.44550  0.85281  0.91110  Biso   1.000  O
  O14      1.0000 0.39620  0.91800  0.83710  Biso   1.000  O
  C49      1.0000 0.40800  0.86810  0.86000  Biso   1.000  C
  C50      1.0000 0.36740  0.82630  0.82680  Biso   1.000  C
  C51      1.0000 0.37160  0.77390  0.85790  Biso   1.000  C
  H43      1.0000 0.39940  0.76440  0.89950  Biso   1.000  H
  C52      1.0000 0.33360  0.73340  0.82740  Biso   1.000  C
  C53      1.0000 0.29420  0.74660  0.76750  Biso   1.000  C
  C54      1.0000 0.28950  0.80210  0.73670  Biso   1.000  C
  H44      1.0000 0.26130  0.81220  0.69630  Biso   1.000  H
  C55      1.0000 0.32670  0.84050  0.76700  Biso   1.000  C
  H45      1.0000 0.32420  0.87730  0.74640  Biso   1.000  H
  C56      1.0000 0.33950  0.67600  0.86500  Biso   1.000  C
  H46      1.0000 0.37050  0.67490  0.90660  Biso   1.000  H
  H47      1.0000 0.34600  0.65000  0.81630  Biso   1.000  H
  H48      1.0000 0.30570  0.66580  0.89650  Biso   1.000  H
  H49      1.0000 0.11430  0.96790  0.83080  Biso   1.000  H
  O15      1.0000 0.55450  0.14719  0.91110  Biso   1.000  O
  O16      1.0000 0.60380  0.08200  0.83710  Biso   1.000  O
  C57      1.0000 0.59200  0.13190  0.86000  Biso   1.000  C
  C58      1.0000 0.63260  0.17370  0.82680  Biso   1.000  C
  C59      1.0000 0.62840  0.22610  0.85790  Biso   1.000  C
  H50      1.0000 0.60060  0.23560  0.89950  Biso   1.000  H
  C60      1.0000 0.66640  0.26660  0.82740  Biso   1.000  C
  C61      1.0000 0.70580  0.25340  0.76750  Biso   1.000  C
  C62      1.0000 0.71050  0.19790  0.73670  Biso   1.000  C
  H51      1.0000 0.73870  0.18780  0.69630  Biso   1.000  H
  C63      1.0000 0.67330  0.15950  0.76700  Biso   1.000  C
  H52      1.0000 0.67580  0.12270  0.74640  Biso   1.000  H
  C64      1.0000 0.66050  0.32400  0.86500  Biso   1.000  C
  H53      1.0000 0.62950  0.32510  0.90660  Biso   1.000  H
  H54      1.0000 0.65400  0.35000  0.81630  Biso   1.000  H
  H55      1.0000 0.69430  0.33420  0.89650  Biso   1.000  H
  H56      1.0000 0.88570  0.03210  0.83080  Biso   1.000  H
  O17      1.0000 0.14719  0.55450  0.41110  Biso   1.000  O
  O18      1.0000 0.08200  0.60380  0.33710  Biso   1.000  O
  C65      1.0000 0.13190  0.59200  0.36000  Biso   1.000  C
  C66      1.0000 0.17370  0.63260  0.32680  Biso   1.000  C
  C67      1.0000 0.22610  0.62840  0.35790  Biso   1.000  C
  H57      1.0000 0.23560  0.60060  0.39950  Biso   1.000  H
  C68      1.0000 0.26660  0.66640  0.32740  Biso   1.000  C
  C69      1.0000 0.25340  0.70580  0.26750  Biso   1.000  C
  C70      1.0000 0.19790  0.71050  0.23670  Biso   1.000  C
  H58      1.0000 0.18780  0.73870  0.19630  Biso   1.000  H
  C71      1.0000 0.15950  0.67330  0.26700  Biso   1.000  C
  H59      1.0000 0.12270  0.67580  0.24640  Biso   1.000  H
  C72      1.0000 0.32400  0.66050  0.36500  Biso   1.000  C
  H60      1.0000 0.32510  0.62950  0.40660  Biso   1.000  H
  H61      1.0000 0.35000  0.65400  0.31630  Biso   1.000  H
  H62      1.0000 0.33420  0.69430  0.39650  Biso   1.000  H
  H63      1.0000 0.03210  0.88570  0.33080  Biso   1.000  H
  O19      1.0000 0.85281  0.44550  0.41110  Biso   1.000  O
  O20      1.0000 0.91800  0.39620  0.33710  Biso   1.000  O
  C73      1.0000 0.86810  0.40800  0.36000  Biso   1.000  C
  C74      1.0000 0.82630  0.36740  0.32680  Biso   1.000  C
  C75      1.0000 0.77390  0.37160  0.35790  Biso   1.000  C
  H64      1.0000 0.76440  0.39940  0.39950  Biso   1.000  H
  C76      1.0000 0.73340  0.33360  0.32740  Biso   1.000  C
  C77      1.0000 0.74660  0.29420  0.26750  Biso   1.000  C
  C78      1.0000 0.80210  0.28950  0.23670  Biso   1.000  C
  H65      1.0000 0.81220  0.26130  0.19630  Biso   1.000  H
  C79      1.0000 0.84050  0.32670  0.26700  Biso   1.000  C
  H66      1.0000 0.87730  0.32420  0.24640  Biso   1.000  H
  C80      1.0000 0.67600  0.33950  0.36500  Biso   1.000  C
  H67      1.0000 0.67490  0.37050  0.40660  Biso   1.000  H
  H68      1.0000 0.65000  0.34600  0.31630  Biso   1.000  H
  H69      1.0000 0.66580  0.30570  0.39650  Biso   1.000  H
  H70      1.0000 0.96790  0.11430  0.33080  Biso   1.000  H
  O21      1.0000 0.44550  0.14719  0.91110  Biso   1.000  O
  O22      1.0000 0.39620  0.08200  0.83710  Biso   1.000  O
  C81      1.0000 0.40800  0.13190  0.86000  Biso   1.000  C
  C82      1.0000 0.36740  0.17370  0.82680  Biso   1.000  C
  C83      1.0000 0.37160  0.22610  0.85790  Biso   1.000  C
  H71      1.0000 0.39940  0.23560  0.89950  Biso   1.000  H
  C84      1.0000 0.33360  0.26660  0.82740  Biso   1.000  C
  C85      1.0000 0.29420  0.25340  0.76750  Biso   1.000  C
  C86      1.0000 0.28950  0.19790  0.73670  Biso   1.000  C
  H72      1.0000 0.26130  0.18780  0.69630  Biso   1.000  H
  C87      1.0000 0.32670  0.15950  0.76700  Biso   1.000  C
  H73      1.0000 0.32420  0.12270  0.74640  Biso   1.000  H
  C88      1.0000 0.33950  0.32400  0.86500  Biso   1.000  C
  H74      1.0000 0.37050  0.32510  0.90660  Biso   1.000  H
  H75      1.0000 0.34600  0.35000  0.81630  Biso   1.000  H
  H76      1.0000 0.30570  0.33420  0.89650  Biso   1.000  H
  H77      1.0000 0.11430  0.03210  0.83080  Biso   1.000  H
  O23      1.0000 0.55450  0.85281  0.91110  Biso   1.000  O
  O24      1.0000 0.60380  0.91800  0.83710  Biso   1.000  O
  C89      1.0000 0.59200  0.86810  0.86000  Biso   1.000  C
  C90      1.0000 0.63260  0.82630  0.82680  Biso   1.000  C
  C91      1.0000 0.62840  0.77390  0.85790  Biso   1.000  C
  H78      1.0000 0.60060  0.76440  0.89950  Biso   1.000  H
  C92      1.0000 0.66640  0.73340  0.82740  Biso   1.000  C
  C93      1.0000 0.70580  0.74660  0.76750  Biso   1.000  C
  C94      1.0000 0.71050  0.80210  0.73670  Biso   1.000  C
  H79      1.0000 0.73870  0.81220  0.69630  Biso   1.000  H
  C95      1.0000 0.67330  0.84050  0.76700  Biso   1.000  C
  H80      1.0000 0.67580  0.87730  0.74640  Biso   1.000  H
  C96      1.0000 0.66050  0.67600  0.86500  Biso   1.000  C
  H81      1.0000 0.62950  0.67490  0.90660  Biso   1.000  H
  H82      1.0000 0.65400  0.65000  0.81630  Biso   1.000  H
  H83      1.0000 0.69430  0.66580  0.89650  Biso   1.000  H
  H84      1.0000 0.88570  0.96790  0.83080  Biso   1.000  H
  O25      1.0000 0.85281  0.55450  0.58890  Biso   1.000  O
  O26      1.0000 0.91800  0.60380  0.66290  Biso   1.000  O
  C97      1.0000 0.86810  0.59200  0.64000  Biso   1.000  C
  C98      1.0000 0.82630  0.63260  0.67320  Biso   1.000  C
  C99      1.0000 0.77390  0.62840  0.64210  Biso   1.000  C
  H85      1.0000 0.76440  0.60060  0.60050  Biso   1.000  H
  C100     1.0000 0.73340  0.66640  0.67260  Biso   1.000  C
  C101     1.0000 0.74660  0.70580  0.73250  Biso   1.000  C
  C102     1.0000 0.80210  0.71050  0.76330  Biso   1.000  C
  H86      1.0000 0.81220  0.73870  0.80370  Biso   1.000  H
  C103     1.0000 0.84050  0.67330  0.73300  Biso   1.000  C
  H87      1.0000 0.87730  0.67580  0.75360  Biso   1.000  H
  C104     1.0000 0.67600  0.66050  0.63500  Biso   1.000  C
  H88      1.0000 0.67490  0.62950  0.59340  Biso   1.000  H
  H89      1.0000 0.65000  0.65400  0.68370  Biso   1.000  H
  H90      1.0000 0.66580  0.69430  0.60350  Biso   1.000  H
  H91      1.0000 0.96790  0.88570  0.66920  Biso   1.000  H
  O27      1.0000 0.14719  0.44550  0.58890  Biso   1.000  O
  O28      1.0000 0.08200  0.39620  0.66290  Biso   1.000  O
  C105     1.0000 0.13190  0.40800  0.64000  Biso   1.000  C
  C106     1.0000 0.17370  0.36740  0.67320  Biso   1.000  C
  C107     1.0000 0.22610  0.37160  0.64210  Biso   1.000  C
  H92      1.0000 0.23560  0.39940  0.60050  Biso   1.000  H
  C108     1.0000 0.26660  0.33360  0.67260  Biso   1.000  C
  C109     1.0000 0.25340  0.29420  0.73250  Biso   1.000  C
  C110     1.0000 0.19790  0.28950  0.76330  Biso   1.000  C
  H93      1.0000 0.18780  0.26130  0.80370  Biso   1.000  H
  C111     1.0000 0.15950  0.32670  0.73300  Biso   1.000  C
  H94      1.0000 0.12270  0.32420  0.75360  Biso   1.000  H
  C112     1.0000 0.32400  0.33950  0.63500  Biso   1.000  C
  H95      1.0000 0.32510  0.37050  0.59340  Biso   1.000  H
  H96      1.0000 0.35000  0.34600  0.68370  Biso   1.000  H
  H97      1.0000 0.33420  0.30570  0.60350  Biso   1.000  H
  H98      1.0000 0.03210  0.11430  0.66920  Biso   1.000  H
  O29      1.0000 0.55450  0.14719  0.08890  Biso   1.000  O
  O30      1.0000 0.60380  0.08200  0.16290  Biso   1.000  O
  C113     1.0000 0.59200  0.13190  0.14000  Biso   1.000  C
  C114     1.0000 0.63260  0.17370  0.17320  Biso   1.000  C
  C115     1.0000 0.62840  0.22610  0.14210  Biso   1.000  C
  H99      1.0000 0.60060  0.23560  0.10050  Biso   1.000  H
  C116     1.0000 0.66640  0.26660  0.17260  Biso   1.000  C
  C117     1.0000 0.70580  0.25340  0.23250  Biso   1.000  C
  C118     1.0000 0.71050  0.19790  0.26330  Biso   1.000  C
  H100     1.0000 0.73870  0.18780  0.30370  Biso   1.000  H
  C119     1.0000 0.67330  0.15950  0.23300  Biso   1.000  C
  H101     1.0000 0.67580  0.12270  0.25360  Biso   1.000  H
  C120     1.0000 0.66050  0.32400  0.13500  Biso   1.000  C
  H102     1.0000 0.62950  0.32510  0.09340  Biso   1.000  H
  H103     1.0000 0.65400  0.35000  0.18370  Biso   1.000  H
  H104     1.0000 0.69430  0.33420  0.10350  Biso   1.000  H
  H105     1.0000 0.88570  0.03210  0.16920  Biso   1.000  H
  O31      1.0000 0.44550  0.85281  0.08890  Biso   1.000  O
  O32      1.0000 0.39620  0.91800  0.16290  Biso   1.000  O
  C121     1.0000 0.40800  0.86810  0.14000  Biso   1.000  C
  C122     1.0000 0.36740  0.82630  0.17320  Biso   1.000  C
  C123     1.0000 0.37160  0.77390  0.14210  Biso   1.000  C
  H106     1.0000 0.39940  0.76440  0.10050  Biso   1.000  H
  C124     1.0000 0.33360  0.73340  0.17260  Biso   1.000  C
  C125     1.0000 0.29420  0.74660  0.23250  Biso   1.000  C
  C126     1.0000 0.28950  0.80210  0.26330  Biso   1.000  C
  H107     1.0000 0.26130  0.81220  0.30370  Biso   1.000  H
  C127     1.0000 0.32670  0.84050  0.23300  Biso   1.000  C
  H108     1.0000 0.32420  0.87730  0.25360  Biso   1.000  H
  C128     1.0000 0.33950  0.67600  0.13500  Biso   1.000  C
  H109     1.0000 0.37050  0.67490  0.09340  Biso   1.000  H
  H110     1.0000 0.34600  0.65000  0.18370  Biso   1.000  H
  H111     1.0000 0.30570  0.66580  0.10350  Biso   1.000  H
  H112     1.0000 0.11430  0.96790  0.16920  Biso   1.000  H
  Zr1      1.0000 0.89903  0.50000  0.50000  Biso   1.000  Zr
  Zr2      1.0000 0.10097  0.50000  0.50000  Biso   1.000  Zr
  Zr3      1.0000 0.50000  0.89903  0.00000  Biso   1.000  Zr
  Zr4      1.0000 0.50000  0.10097  0.00000  Biso   1.000  Zr
  Zr5      1.0000 0.00000  0.42703  0.61706  Biso   1.000  Zr
  O33      1.0000 0.00000  0.33520  0.57760  Biso   1.000  O
  C129     1.0000 0.00000  0.22450  0.58120  Biso   1.000  C
  H113     1.0000 0.00000  0.24400  0.63600  Biso   1.000  H
  C130     1.0000 0.00000  0.16760  0.57910  Biso   1.000  C
  C131     1.0000 0.00000  0.13690  0.66580  Biso   1.000  C
  O34      1.0000 0.00000  0.33890  0.60270  Biso   1.000  O
  H114     1.0000 0.00000  0.16250  0.71430  Biso   1.000  H
  H115     1.0000 0.00000  0.14770  0.63610  Biso   1.000  H
  Zr6      1.0000 0.00000  0.57297  0.61706  Biso   1.000  Zr
  O35      1.0000 0.00000  0.66480  0.57760  Biso   1.000  O
  C132     1.0000 0.00000  0.77550  0.58120  Biso   1.000  C
  H116     1.0000 0.00000  0.75600  0.63600  Biso   1.000  H
  C133     1.0000 0.00000  0.83240  0.57910  Biso   1.000  C
  C134     1.0000 0.00000  0.86310  0.66580  Biso   1.000  C
  O36      1.0000 0.00000  0.66110  0.60270  Biso   1.000  O
  H117     1.0000 0.00000  0.83750  0.71430  Biso   1.000  H
  H118     1.0000 0.00000  0.85230  0.63610  Biso   1.000  H
  Zr7      1.0000 0.57297  0.00000  0.11706  Biso   1.000  Zr
  O37      1.0000 0.66480  0.00000  0.07760  Biso   1.000  O
  C135     1.0000 0.77550  0.00000  0.08120  Biso   1.000  C
  H119     1.0000 0.75600  0.00000  0.13600  Biso   1.000  H
  C136     1.0000 0.83240  0.00000  0.07910  Biso   1.000  C
  C137     1.0000 0.86310  0.00000  0.16580  Biso   1.000  C
  O38      1.0000 0.66110  0.00000  0.10270  Biso   1.000  O
  H120     1.0000 0.83750  0.00000  0.21430  Biso   1.000  H
  H121     1.0000 0.85230  0.00000  0.13610  Biso   1.000  H
  Zr8      1.0000 0.42703  0.00000  0.11706  Biso   1.000  Zr
  O39      1.0000 0.33520  0.00000  0.07760  Biso   1.000  O
  C138     1.0000 0.22450  0.00000  0.08120  Biso   1.000  C
  H122     1.0000 0.24400  0.00000  0.13600  Biso   1.000  H
  C139     1.0000 0.16760  0.00000  0.07910  Biso   1.000  C
  C140     1.0000 0.13690  0.00000  0.16580  Biso   1.000  C
  O40      1.0000 0.33890  0.00000  0.10270  Biso   1.000  O
  H123     1.0000 0.16250  0.00000  0.21430  Biso   1.000  H
  H124     1.0000 0.14770  0.00000  0.13610  Biso   1.000  H
  Zr9      1.0000 0.00000  0.42703  0.38294  Biso   1.000  Zr
  O41      1.0000 0.00000  0.33520  0.42240  Biso   1.000  O
  C141     1.0000 0.00000  0.22450  0.41880  Biso   1.000  C
  H125     1.0000 0.00000  0.24400  0.36400  Biso   1.000  H
  C142     1.0000 0.00000  0.16760  0.42090  Biso   1.000  C
  C143     1.0000 0.00000  0.13690  0.33420  Biso   1.000  C
  O42      1.0000 0.00000  0.33890  0.39730  Biso   1.000  O
  H126     1.0000 0.00000  0.16250  0.28570  Biso   1.000  H
  H127     1.0000 0.00000  0.14770  0.36390  Biso   1.000  H
  Zr10     1.0000 0.00000  0.57297  0.38294  Biso   1.000  Zr
  O43      1.0000 0.00000  0.66480  0.42240  Biso   1.000  O
  C144     1.0000 0.00000  0.77550  0.41880  Biso   1.000  C
  H128     1.0000 0.00000  0.75600  0.36400  Biso   1.000  H
  C145     1.0000 0.00000  0.83240  0.42090  Biso   1.000  C
  C146     1.0000 0.00000  0.86310  0.33420  Biso   1.000  C
  O44      1.0000 0.00000  0.66110  0.39730  Biso   1.000  O
  H129     1.0000 0.00000  0.83750  0.28570  Biso   1.000  H
  H130     1.0000 0.00000  0.85230  0.36390  Biso   1.000  H
  Zr11     1.0000 0.42703  0.00000  0.88294  Biso   1.000  Zr
  O45      1.0000 0.33520  0.00000  0.92240  Biso   1.000  O
  C147     1.0000 0.22450  0.00000  0.91880  Biso   1.000  C
  H131     1.0000 0.24400  0.00000  0.86400  Biso   1.000  H
  C148     1.0000 0.16760  0.00000  0.92090  Biso   1.000  C
  C149     1.0000 0.13690  0.00000  0.83420  Biso   1.000  C
  O46      1.0000 0.33890  0.00000  0.89730  Biso   1.000  O
  H132     1.0000 0.16250  0.00000  0.78570  Biso   1.000  H
  H133     1.0000 0.14770  0.00000  0.86390  Biso   1.000  H
  Zr12     1.0000 0.57297  0.00000  0.88294  Biso   1.000  Zr
  O47      1.0000 0.66480  0.00000  0.92240  Biso   1.000  O
  C150     1.0000 0.77550  0.00000  0.91880  Biso   1.000  C
  H134     1.0000 0.75600  0.00000  0.86400  Biso   1.000  H
  C151     1.0000 0.83240  0.00000  0.92090  Biso   1.000  C
  C152     1.0000 0.86310  0.00000  0.83420  Biso   1.000  C
  O48      1.0000 0.66110  0.00000  0.89730  Biso   1.000  O
  H135     1.0000 0.83750  0.00000  0.78570  Biso   1.000  H
  H136     1.0000 0.85230  0.00000  0.86390  Biso   1.000  H
  O49      1.0000 0.04950  0.50000  0.61970  Biso   1.000  O
  O50      1.0000 0.95050  0.50000  0.61970  Biso   1.000  O
  O51      1.0000 0.50000  0.04950  0.11970  Biso   1.000  O
  O52      1.0000 0.50000  0.95050  0.11970  Biso   1.000  O
  O53      1.0000 0.95050  0.50000  0.38030  Biso   1.000  O
  O54      1.0000 0.04950  0.50000  0.38030  Biso   1.000  O
  O55      1.0000 0.50000  0.04950  0.88030  Biso   1.000  O
  O56      1.0000 0.50000  0.95050  0.88030  Biso   1.000  O
  O57      1.0000 0.94990  0.42810  0.50000  Biso   1.000  O
  O58      1.0000 0.05010  0.57190  0.50000  Biso   1.000  O
  O59      1.0000 0.57190  0.94990  0.00000  Biso   1.000  O
  O60      1.0000 0.42810  0.05010  0.00000  Biso   1.000  O
  O61      1.0000 0.05010  0.42810  0.50000  Biso   1.000  O
  O62      1.0000 0.94990  0.57190  0.50000  Biso   1.000  O
  O63      1.0000 0.42810  0.94990  0.00000  Biso   1.000  O
  O64      1.0000 0.57190  0.05010  0.00000  Biso   1.000  O
  C153     1.0000 0.00000  0.31450  0.50000  Biso   1.000  C
  C154     1.0000 0.00000  0.25340  0.50000  Biso   1.000  C
  C155     1.0000 0.00000  0.13850  0.50000  Biso   1.000  C
  C156     1.0000 0.00000  0.07760  0.50000  Biso   1.000  C
  C157     1.0000 0.00000  0.02870  0.50000  Biso   1.000  C
  C158     1.0000 0.00000  0.68550  0.50000  Biso   1.000  C
  C159     1.0000 0.00000  0.74660  0.50000  Biso   1.000  C
  C160     1.0000 0.00000  0.86150  0.50000  Biso   1.000  C
  C161     1.0000 0.00000  0.92240  0.50000  Biso   1.000  C
  C162     1.0000 0.00000  0.97130  0.50000  Biso   1.000  C
  C163     1.0000 0.68550  0.00000  0.00000  Biso   1.000  C
  C164     1.0000 0.74660  0.00000  0.00000  Biso   1.000  C
  C165     1.0000 0.86150  0.00000  0.00000  Biso   1.000  C
  C166     1.0000 0.92240  0.00000  0.00000  Biso   1.000  C
  C167     1.0000 0.97130  0.00000  0.00000  Biso   1.000  C
  C168     1.0000 0.31450  0.00000  0.00000  Biso   1.000  C
  C169     1.0000 0.25340  0.00000  0.00000  Biso   1.000  C
  C170     1.0000 0.13850  0.00000  0.00000  Biso   1.000  C
  C171     1.0000 0.07760  0.00000  0.00000  Biso   1.000  C
  C172     1.0000 0.02870  0.00000  0.00000  Biso   1.000  C
