data_image0
_cell_length_a       10
_cell_length_b       10
_cell_length_c       10
_cell_angle_alpha    90
_cell_angle_beta     90
_cell_angle_gamma    90

_symmetry_space_group_name_H-M    "P 1"
_symmetry_int_tables_number       1

loop_
  _symmetry_equiv_pos_as_xyz
  'x, y, z'

loop_
  _atom_site_label
  _atom_site_occupancy
  _atom_site_fract_x
  _atom_site_fract_y
  _atom_site_fract_z
  _atom_site_thermal_displace_type
  _atom_site_B_iso_or_equiv
  _atom_site_type_symbol
  O1       1.0000 0.58270  0.89090  0.63260  Biso   1.000  O
  O2       1.0000 0.65880  0.94130  0.57340  Biso   1.000  O
  C1       1.0000 0.63210  0.90600  0.62900  Biso   1.000  C
  C2       1.0000 0.68120  0.87070  0.66060  Biso   1.000  C
  C3       1.0000 0.74080  0.87740  0.65310  Biso   1.000  C
  H1       1.0000 0.75570  0.90700  0.62380  Biso   1.000  H
  C4       1.0000 0.77850  0.84080  0.68860  Biso   1.000  C
  H2       1.0000 0.81920  0.84540  0.68340  Biso   1.000  H
  C5       1.0000 0.75670  0.79740  0.73160  Biso   1.000  C
  C6       1.0000 0.69720  0.79060  0.73910  Biso   1.000  C
  H3       1.0000 0.68230  0.76100  0.76850  Biso   1.000  H
  C7       1.0000 0.65940  0.82720  0.70370  Biso   1.000  C
  H4       1.0000 0.61870  0.82250  0.70890  Biso   1.000  H
  O3       1.0000 0.41730  0.10910  0.63260  Biso   1.000  O
  O4       1.0000 0.34120  0.05870  0.57340  Biso   1.000  O
  C8       1.0000 0.36790  0.09400  0.62900  Biso   1.000  C
  C9       1.0000 0.31880  0.12930  0.66060  Biso   1.000  C
  C10      1.0000 0.25920  0.12260  0.65310  Biso   1.000  C
  H5       1.0000 0.24430  0.09300  0.62380  Biso   1.000  H
  C11      1.0000 0.22150  0.15920  0.68860  Biso   1.000  C
  H6       1.0000 0.18080  0.15460  0.68340  Biso   1.000  H
  C12      1.0000 0.24330  0.20260  0.73160  Biso   1.000  C
  C13      1.0000 0.30280  0.20940  0.73910  Biso   1.000  C
  H7       1.0000 0.31770  0.23900  0.76850  Biso   1.000  H
  C14      1.0000 0.34060  0.17280  0.70370  Biso   1.000  C
  H8       1.0000 0.38130  0.17750  0.70890  Biso   1.000  H
  O5       1.0000 0.10910  0.58270  0.13260  Biso   1.000  O
  O6       1.0000 0.05870  0.65880  0.07340  Biso   1.000  O
  C15      1.0000 0.09400  0.63210  0.12900  Biso   1.000  C
  C16      1.0000 0.12930  0.68120  0.16060  Biso   1.000  C
  C17      1.0000 0.12260  0.74080  0.15310  Biso   1.000  C
  H9       1.0000 0.09300  0.75570  0.12380  Biso   1.000  H
  C18      1.0000 0.15920  0.77850  0.18860  Biso   1.000  C
  H10      1.0000 0.15460  0.81920  0.18340  Biso   1.000  H
  C19      1.0000 0.20260  0.75670  0.23160  Biso   1.000  C
  C20      1.0000 0.20940  0.69720  0.23910  Biso   1.000  C
  H11      1.0000 0.23900  0.68230  0.26850  Biso   1.000  H
  C21      1.0000 0.17280  0.65940  0.20370  Biso   1.000  C
  H12      1.0000 0.17750  0.61870  0.20890  Biso   1.000  H
  O7       1.0000 0.89090  0.41730  0.13260  Biso   1.000  O
  O8       1.0000 0.94130  0.34120  0.07340  Biso   1.000  O
  C22      1.0000 0.90600  0.36790  0.12900  Biso   1.000  C
  C23      1.0000 0.87070  0.31880  0.16060  Biso   1.000  C
  C24      1.0000 0.87740  0.25920  0.15310  Biso   1.000  C
  H13      1.0000 0.90700  0.24430  0.12380  Biso   1.000  H
  C25      1.0000 0.84080  0.22150  0.18860  Biso   1.000  C
  H14      1.0000 0.84540  0.18080  0.18340  Biso   1.000  H
  C26      1.0000 0.79740  0.24330  0.23160  Biso   1.000  C
  C27      1.0000 0.79060  0.30280  0.23910  Biso   1.000  C
  H15      1.0000 0.76100  0.31770  0.26850  Biso   1.000  H
  C28      1.0000 0.82720  0.34060  0.20370  Biso   1.000  C
  H16      1.0000 0.82250  0.38130  0.20890  Biso   1.000  H
  O9       1.0000 0.41730  0.89090  0.36740  Biso   1.000  O
  O10      1.0000 0.34120  0.94130  0.42660  Biso   1.000  O
  C29      1.0000 0.36790  0.90600  0.37100  Biso   1.000  C
  C30      1.0000 0.31880  0.87070  0.33940  Biso   1.000  C
  C31      1.0000 0.25920  0.87740  0.34690  Biso   1.000  C
  H17      1.0000 0.24430  0.90700  0.37620  Biso   1.000  H
  C32      1.0000 0.22150  0.84080  0.31140  Biso   1.000  C
  H18      1.0000 0.18080  0.84540  0.31660  Biso   1.000  H
  C33      1.0000 0.24330  0.79740  0.26840  Biso   1.000  C
  C34      1.0000 0.30280  0.79060  0.26090  Biso   1.000  C
  H19      1.0000 0.31770  0.76100  0.23150  Biso   1.000  H
  C35      1.0000 0.34060  0.82720  0.29630  Biso   1.000  C
  H20      1.0000 0.38130  0.82250  0.29110  Biso   1.000  H
  O11      1.0000 0.58270  0.10910  0.36740  Biso   1.000  O
  O12      1.0000 0.65880  0.05870  0.42660  Biso   1.000  O
  C36      1.0000 0.63210  0.09400  0.37100  Biso   1.000  C
  C37      1.0000 0.68120  0.12930  0.33940  Biso   1.000  C
  C38      1.0000 0.74080  0.12260  0.34690  Biso   1.000  C
  H21      1.0000 0.75570  0.09300  0.37620  Biso   1.000  H
  C39      1.0000 0.77850  0.15920  0.31140  Biso   1.000  C
  H22      1.0000 0.81920  0.15460  0.31660  Biso   1.000  H
  C40      1.0000 0.75670  0.20260  0.26840  Biso   1.000  C
  C41      1.0000 0.69720  0.20940  0.26090  Biso   1.000  C
  H23      1.0000 0.68230  0.23900  0.23150  Biso   1.000  H
  C42      1.0000 0.65940  0.17280  0.29630  Biso   1.000  C
  H24      1.0000 0.61870  0.17750  0.29110  Biso   1.000  H
  O13      1.0000 0.89090  0.58270  0.86740  Biso   1.000  O
  O14      1.0000 0.94130  0.65880  0.92660  Biso   1.000  O
  C43      1.0000 0.90600  0.63210  0.87100  Biso   1.000  C
  C44      1.0000 0.87070  0.68120  0.83940  Biso   1.000  C
  C45      1.0000 0.87740  0.74080  0.84690  Biso   1.000  C
  H25      1.0000 0.90700  0.75570  0.87620  Biso   1.000  H
  C46      1.0000 0.84080  0.77850  0.81140  Biso   1.000  C
  H26      1.0000 0.84540  0.81920  0.81660  Biso   1.000  H
  C47      1.0000 0.79740  0.75670  0.76840  Biso   1.000  C
  C48      1.0000 0.79060  0.69720  0.76090  Biso   1.000  C
  H27      1.0000 0.76100  0.68230  0.73150  Biso   1.000  H
  C49      1.0000 0.82720  0.65940  0.79630  Biso   1.000  C
  H28      1.0000 0.82250  0.61870  0.79110  Biso   1.000  H
  O15      1.0000 0.10910  0.41730  0.86740  Biso   1.000  O
  O16      1.0000 0.05870  0.34120  0.92660  Biso   1.000  O
  C50      1.0000 0.09400  0.36790  0.87100  Biso   1.000  C
  C51      1.0000 0.12930  0.31880  0.83940  Biso   1.000  C
  C52      1.0000 0.12260  0.25920  0.84690  Biso   1.000  C
  H29      1.0000 0.09300  0.24430  0.87620  Biso   1.000  H
  C53      1.0000 0.15920  0.22150  0.81140  Biso   1.000  C
  H30      1.0000 0.15460  0.18080  0.81660  Biso   1.000  H
  C54      1.0000 0.20260  0.24330  0.76840  Biso   1.000  C
  C55      1.0000 0.20940  0.30280  0.76090  Biso   1.000  C
  H31      1.0000 0.23900  0.31770  0.73150  Biso   1.000  H
  C56      1.0000 0.17280  0.34060  0.79630  Biso   1.000  C
  H32      1.0000 0.17750  0.38130  0.79110  Biso   1.000  H
  O17      1.0000 0.41730  0.10910  0.36740  Biso   1.000  O
  O18      1.0000 0.34120  0.05870  0.42660  Biso   1.000  O
  C57      1.0000 0.36790  0.09400  0.37100  Biso   1.000  C
  C58      1.0000 0.31880  0.12930  0.33940  Biso   1.000  C
  C59      1.0000 0.25920  0.12260  0.34690  Biso   1.000  C
  H33      1.0000 0.24430  0.09300  0.37620  Biso   1.000  H
  C60      1.0000 0.22150  0.15920  0.31140  Biso   1.000  C
  H34      1.0000 0.18080  0.15460  0.31660  Biso   1.000  H
  C61      1.0000 0.24330  0.20260  0.26840  Biso   1.000  C
  C62      1.0000 0.30280  0.20940  0.26090  Biso   1.000  C
  H35      1.0000 0.31770  0.23900  0.23150  Biso   1.000  H
  C63      1.0000 0.34060  0.17280  0.29630  Biso   1.000  C
  H36      1.0000 0.38130  0.17750  0.29110  Biso   1.000  H
  O19      1.0000 0.58270  0.89090  0.36740  Biso   1.000  O
  O20      1.0000 0.65880  0.94130  0.42660  Biso   1.000  O
  C64      1.0000 0.63210  0.90600  0.37100  Biso   1.000  C
  C65      1.0000 0.68120  0.87070  0.33940  Biso   1.000  C
  C66      1.0000 0.74080  0.87740  0.34690  Biso   1.000  C
  H37      1.0000 0.75570  0.90700  0.37620  Biso   1.000  H
  C67      1.0000 0.77850  0.84080  0.31140  Biso   1.000  C
  H38      1.0000 0.81920  0.84540  0.31660  Biso   1.000  H
  C68      1.0000 0.75670  0.79740  0.26840  Biso   1.000  C
  C69      1.0000 0.69720  0.79060  0.26090  Biso   1.000  C
  H39      1.0000 0.68230  0.76100  0.23150  Biso   1.000  H
  C70      1.0000 0.65940  0.82720  0.29630  Biso   1.000  C
  H40      1.0000 0.61870  0.82250  0.29110  Biso   1.000  H
  O21      1.0000 0.89090  0.41730  0.86740  Biso   1.000  O
  O22      1.0000 0.94130  0.34120  0.92660  Biso   1.000  O
  C71      1.0000 0.90600  0.36790  0.87100  Biso   1.000  C
  C72      1.0000 0.87070  0.31880  0.83940  Biso   1.000  C
  C73      1.0000 0.87740  0.25920  0.84690  Biso   1.000  C
  H41      1.0000 0.90700  0.24430  0.87620  Biso   1.000  H
  C74      1.0000 0.84080  0.22150  0.81140  Biso   1.000  C
  H42      1.0000 0.84540  0.18080  0.81660  Biso   1.000  H
  C75      1.0000 0.79740  0.24330  0.76840  Biso   1.000  C
  C76      1.0000 0.79060  0.30280  0.76090  Biso   1.000  C
  H43      1.0000 0.76100  0.31770  0.73150  Biso   1.000  H
  C77      1.0000 0.82720  0.34060  0.79630  Biso   1.000  C
  H44      1.0000 0.82250  0.38130  0.79110  Biso   1.000  H
  O23      1.0000 0.10910  0.58270  0.86740  Biso   1.000  O
  O24      1.0000 0.05870  0.65880  0.92660  Biso   1.000  O
  C78      1.0000 0.09400  0.63210  0.87100  Biso   1.000  C
  C79      1.0000 0.12930  0.68120  0.83940  Biso   1.000  C
  C80      1.0000 0.12260  0.74080  0.84690  Biso   1.000  C
  H45      1.0000 0.09300  0.75570  0.87620  Biso   1.000  H
  C81      1.0000 0.15920  0.77850  0.81140  Biso   1.000  C
  H46      1.0000 0.15460  0.81920  0.81660  Biso   1.000  H
  C82      1.0000 0.20260  0.75670  0.76840  Biso   1.000  C
  C83      1.0000 0.20940  0.69720  0.76090  Biso   1.000  C
  H47      1.0000 0.23900  0.68230  0.73150  Biso   1.000  H
  C84      1.0000 0.17280  0.65940  0.79630  Biso   1.000  C
  H48      1.0000 0.17750  0.61870  0.79110  Biso   1.000  H
  O25      1.0000 0.58270  0.10910  0.63260  Biso   1.000  O
  O26      1.0000 0.65880  0.05870  0.57340  Biso   1.000  O
  C85      1.0000 0.63210  0.09400  0.62900  Biso   1.000  C
  C86      1.0000 0.68120  0.12930  0.66060  Biso   1.000  C
  C87      1.0000 0.74080  0.12260  0.65310  Biso   1.000  C
  H49      1.0000 0.75570  0.09300  0.62380  Biso   1.000  H
  C88      1.0000 0.77850  0.15920  0.68860  Biso   1.000  C
  H50      1.0000 0.81920  0.15460  0.68340  Biso   1.000  H
  C89      1.0000 0.75670  0.20260  0.73160  Biso   1.000  C
  C90      1.0000 0.69720  0.20940  0.73910  Biso   1.000  C
  H51      1.0000 0.68230  0.23900  0.76850  Biso   1.000  H
  C91      1.0000 0.65940  0.17280  0.70370  Biso   1.000  C
  H52      1.0000 0.61870  0.17750  0.70890  Biso   1.000  H
  O27      1.0000 0.41730  0.89090  0.63260  Biso   1.000  O
  O28      1.0000 0.34120  0.94130  0.57340  Biso   1.000  O
  C92      1.0000 0.36790  0.90600  0.62900  Biso   1.000  C
  C93      1.0000 0.31880  0.87070  0.66060  Biso   1.000  C
  C94      1.0000 0.25920  0.87740  0.65310  Biso   1.000  C
  H53      1.0000 0.24430  0.90700  0.62380  Biso   1.000  H
  C95      1.0000 0.22150  0.84080  0.68860  Biso   1.000  C
  H54      1.0000 0.18080  0.84540  0.68340  Biso   1.000  H
  C96      1.0000 0.24330  0.79740  0.73160  Biso   1.000  C
  C97      1.0000 0.30280  0.79060  0.73910  Biso   1.000  C
  H55      1.0000 0.31770  0.76100  0.76850  Biso   1.000  H
  C98      1.0000 0.34060  0.82720  0.70370  Biso   1.000  C
  H56      1.0000 0.38130  0.82250  0.70890  Biso   1.000  H
  O29      1.0000 0.10910  0.41730  0.13260  Biso   1.000  O
  O30      1.0000 0.05870  0.34120  0.07340  Biso   1.000  O
  C99      1.0000 0.09400  0.36790  0.12900  Biso   1.000  C
  C100     1.0000 0.12930  0.31880  0.16060  Biso   1.000  C
  C101     1.0000 0.12260  0.25920  0.15310  Biso   1.000  C
  H57      1.0000 0.09300  0.24430  0.12380  Biso   1.000  H
  C102     1.0000 0.15920  0.22150  0.18860  Biso   1.000  C
  H58      1.0000 0.15460  0.18080  0.18340  Biso   1.000  H
  C103     1.0000 0.20260  0.24330  0.23160  Biso   1.000  C
  C104     1.0000 0.20940  0.30280  0.23910  Biso   1.000  C
  H59      1.0000 0.23900  0.31770  0.26850  Biso   1.000  H
  C105     1.0000 0.17280  0.34060  0.20370  Biso   1.000  C
  H60      1.0000 0.17750  0.38130  0.20890  Biso   1.000  H
  O31      1.0000 0.89090  0.58270  0.13260  Biso   1.000  O
  O32      1.0000 0.94130  0.65880  0.07340  Biso   1.000  O
  C106     1.0000 0.90600  0.63210  0.12900  Biso   1.000  C
  C107     1.0000 0.87070  0.68120  0.16060  Biso   1.000  C
  C108     1.0000 0.87740  0.74080  0.15310  Biso   1.000  C
  H61      1.0000 0.90700  0.75570  0.12380  Biso   1.000  H
  C109     1.0000 0.84080  0.77850  0.18860  Biso   1.000  C
  H62      1.0000 0.84540  0.81920  0.18340  Biso   1.000  H
  C110     1.0000 0.79740  0.75670  0.23160  Biso   1.000  C
  C111     1.0000 0.79060  0.69720  0.23910  Biso   1.000  C
  H63      1.0000 0.76100  0.68230  0.26850  Biso   1.000  H
  C112     1.0000 0.82720  0.65940  0.20370  Biso   1.000  C
  H64      1.0000 0.82250  0.61870  0.20890  Biso   1.000  H
  Zr1      1.0000 0.50000  0.92371  0.59281  Biso   1.000  Zr
  O33      1.0000 0.50000  0.95020  0.70370  Biso   1.000  O
  O34      1.0000 0.50000  0.82470  0.58140  Biso   1.000  O
  C113     1.0000 0.50000  0.05211  0.85190  Biso   1.000  C
  H65      1.0000 0.50000  0.08780  0.82710  Biso   1.000  H
  C114     1.0000 0.50000  0.05213  0.92440  Biso   1.000  C
  H66      1.0000 0.50000  0.08780  0.94920  Biso   1.000  H
  Zr2      1.0000 0.50000  0.07629  0.59281  Biso   1.000  Zr
  O35      1.0000 0.50000  0.04980  0.70370  Biso   1.000  O
  O36      1.0000 0.50000  0.17530  0.58140  Biso   1.000  O
  C115     1.0000 0.50000  0.94789  0.85190  Biso   1.000  C
  H67      1.0000 0.50000  0.91220  0.82710  Biso   1.000  H
  C116     1.0000 0.50000  0.94787  0.92440  Biso   1.000  C
  H68      1.0000 0.50000  0.91220  0.94920  Biso   1.000  H
  Zr3      1.0000 0.07629  0.50000  0.09281  Biso   1.000  Zr
  O37      1.0000 0.04980  0.50000  0.20370  Biso   1.000  O
  O38      1.0000 0.17530  0.50000  0.08140  Biso   1.000  O
  C117     1.0000 0.94789  0.50000  0.35190  Biso   1.000  C
  H69      1.0000 0.91220  0.50000  0.32710  Biso   1.000  H
  C118     1.0000 0.94787  0.50000  0.42440  Biso   1.000  C
  H70      1.0000 0.91220  0.50000  0.44920  Biso   1.000  H
  Zr4      1.0000 0.92371  0.50000  0.09281  Biso   1.000  Zr
  O39      1.0000 0.95020  0.50000  0.20370  Biso   1.000  O
  O40      1.0000 0.82470  0.50000  0.08140  Biso   1.000  O
  C119     1.0000 0.05211  0.50000  0.35190  Biso   1.000  C
  H71      1.0000 0.08780  0.50000  0.32710  Biso   1.000  H
  C120     1.0000 0.05213  0.50000  0.42440  Biso   1.000  C
  H72      1.0000 0.08780  0.50000  0.44920  Biso   1.000  H
  Zr5      1.0000 0.50000  0.92371  0.40719  Biso   1.000  Zr
  O41      1.0000 0.50000  0.95020  0.29630  Biso   1.000  O
  O42      1.0000 0.50000  0.82470  0.41860  Biso   1.000  O
  C121     1.0000 0.50000  0.05211  0.14810  Biso   1.000  C
  H73      1.0000 0.50000  0.08780  0.17290  Biso   1.000  H
  C122     1.0000 0.50000  0.05213  0.07560  Biso   1.000  C
  H74      1.0000 0.50000  0.08780  0.05080  Biso   1.000  H
  Zr6      1.0000 0.50000  0.07629  0.40719  Biso   1.000  Zr
  O43      1.0000 0.50000  0.04980  0.29630  Biso   1.000  O
  O44      1.0000 0.50000  0.17530  0.41860  Biso   1.000  O
  C123     1.0000 0.50000  0.94789  0.14810  Biso   1.000  C
  H75      1.0000 0.50000  0.91220  0.17290  Biso   1.000  H
  C124     1.0000 0.50000  0.94787  0.07560  Biso   1.000  C
  H76      1.0000 0.50000  0.91220  0.05080  Biso   1.000  H
  Zr7      1.0000 0.92371  0.50000  0.90719  Biso   1.000  Zr
  O45      1.0000 0.95020  0.50000  0.79630  Biso   1.000  O
  O46      1.0000 0.82470  0.50000  0.91860  Biso   1.000  O
  C125     1.0000 0.05211  0.50000  0.64810  Biso   1.000  C
  H77      1.0000 0.08780  0.50000  0.67290  Biso   1.000  H
  C126     1.0000 0.05213  0.50000  0.57560  Biso   1.000  C
  H78      1.0000 0.08780  0.50000  0.55080  Biso   1.000  H
  Zr8      1.0000 0.07629  0.50000  0.90719  Biso   1.000  Zr
  O47      1.0000 0.04980  0.50000  0.79630  Biso   1.000  O
  O48      1.0000 0.17530  0.50000  0.91860  Biso   1.000  O
  C127     1.0000 0.94789  0.50000  0.64810  Biso   1.000  C
  H79      1.0000 0.91220  0.50000  0.67290  Biso   1.000  H
  C128     1.0000 0.94787  0.50000  0.57560  Biso   1.000  C
  H80      1.0000 0.91220  0.50000  0.55080  Biso   1.000  H
  Zr9      1.0000 0.60867  0.00000  0.50000  Biso   1.000  Zr
  Zr10     1.0000 0.39133  0.00000  0.50000  Biso   1.000  Zr
  Zr11     1.0000 0.00000  0.60867  0.00000  Biso   1.000  Zr
  Zr12     1.0000 0.00000  0.39133  0.00000  Biso   1.000  Zr
  O49      1.0000 0.55620  0.00000  0.59310  Biso   1.000  O
  O50      1.0000 0.44380  0.00000  0.59310  Biso   1.000  O
  O51      1.0000 0.00000  0.55620  0.09310  Biso   1.000  O
  O52      1.0000 0.00000  0.44380  0.09310  Biso   1.000  O
  O53      1.0000 0.44380  0.00000  0.40690  Biso   1.000  O
  O54      1.0000 0.55620  0.00000  0.40690  Biso   1.000  O
  O55      1.0000 0.00000  0.55620  0.90690  Biso   1.000  O
  O56      1.0000 0.00000  0.44380  0.90690  Biso   1.000  O
  C129     1.0000 0.50000  0.00000  0.73680  Biso   1.000  C
  C130     1.0000 0.50000  0.00000  0.81550  Biso   1.000  C
  C131     1.0000 0.50000  0.00000  0.96080  Biso   1.000  C
  C132     1.0000 0.00000  0.50000  0.23680  Biso   1.000  C
  C133     1.0000 0.00000  0.50000  0.31550  Biso   1.000  C
  C134     1.0000 0.00000  0.50000  0.46080  Biso   1.000  C
  C135     1.0000 0.50000  0.00000  0.26320  Biso   1.000  C
  C136     1.0000 0.50000  0.00000  0.18450  Biso   1.000  C
  C137     1.0000 0.50000  0.00000  0.03920  Biso   1.000  C
  C138     1.0000 0.00000  0.50000  0.76320  Biso   1.000  C
  C139     1.0000 0.00000  0.50000  0.68450  Biso   1.000  C
  C140     1.0000 0.00000  0.50000  0.53920  Biso   1.000  C
  O57      1.0000 0.55140  0.91830  0.50000  Biso   1.000  O
  O58      1.0000 0.44860  0.08170  0.50000  Biso   1.000  O
  O59      1.0000 0.08170  0.55140  0.00000  Biso   1.000  O
  O60      1.0000 0.91830  0.44860  0.00000  Biso   1.000  O
  O61      1.0000 0.44860  0.91830  0.50000  Biso   1.000  O
  O62      1.0000 0.55140  0.08170  0.50000  Biso   1.000  O
  O63      1.0000 0.91830  0.55140  0.00000  Biso   1.000  O
  O64      1.0000 0.08170  0.44860  0.00000  Biso   1.000  O
