data_image0
_cell_length_a       15.483
_cell_length_b       15.483
_cell_length_c       12.308
_cell_angle_alpha    90
_cell_angle_beta     90
_cell_angle_gamma    90

_symmetry_space_group_name_H-M    "P 1"
_symmetry_int_tables_number       1

loop_
  _symmetry_equiv_pos_as_xyz
  'x, y, z'

loop_
  _atom_site_label
  _atom_site_occupancy
  _atom_site_fract_x
  _atom_site_fract_y
  _atom_site_fract_z
  _atom_site_thermal_displace_type
  _atom_site_B_iso_or_equiv
  _atom_site_type_symbol
  O1       1.0000 0.38290  0.61370  0.38510  Biso   1.000  O
  O2       1.0000 0.29072  0.59251  0.24580  Biso   1.000  O
  O3       1.0000 0.23440  0.75480  0.38730  Biso   1.000  O
  H1       1.0000 0.22210  0.80690  0.39670  Biso   1.000  H
  C1       1.0000 0.43190  0.53720  0.11880  Biso   1.000  C
  H2       1.0000 0.38440  0.56140  0.08050  Biso   1.000  H
  C2       1.0000 0.43230  0.53960  0.23280  Biso   1.000  C
  C3       1.0000 0.36250  0.58490  0.29180  Biso   1.000  C
  O4       1.0000 0.88290  0.11370  0.88510  Biso   1.000  O
  O5       1.0000 0.79072  0.09251  0.74580  Biso   1.000  O
  O6       1.0000 0.73440  0.25480  0.88730  Biso   1.000  O
  H3       1.0000 0.72210  0.30690  0.89670  Biso   1.000  H
  C4       1.0000 0.93190  0.03720  0.61880  Biso   1.000  C
  H4       1.0000 0.88440  0.06140  0.58050  Biso   1.000  H
  C5       1.0000 0.93230  0.03960  0.73280  Biso   1.000  C
  C6       1.0000 0.86250  0.08490  0.79180  Biso   1.000  C
  O7       1.0000 0.11710  0.88630  0.88510  Biso   1.000  O
  O8       1.0000 0.20928  0.90749  0.74580  Biso   1.000  O
  O9       1.0000 0.26560  0.74520  0.88730  Biso   1.000  O
  H5       1.0000 0.27790  0.69310  0.89670  Biso   1.000  H
  C7       1.0000 0.06810  0.96280  0.61880  Biso   1.000  C
  H6       1.0000 0.11560  0.93860  0.58050  Biso   1.000  H
  C8       1.0000 0.06770  0.96040  0.73280  Biso   1.000  C
  C9       1.0000 0.13750  0.91510  0.79180  Biso   1.000  C
  O10      1.0000 0.61710  0.38630  0.38510  Biso   1.000  O
  O11      1.0000 0.70928  0.40749  0.24580  Biso   1.000  O
  O12      1.0000 0.76560  0.24520  0.38730  Biso   1.000  O
  H7       1.0000 0.77790  0.19310  0.39670  Biso   1.000  H
  C10      1.0000 0.56810  0.46280  0.11880  Biso   1.000  C
  H8       1.0000 0.61560  0.43860  0.08050  Biso   1.000  H
  C11      1.0000 0.56770  0.46040  0.23280  Biso   1.000  C
  C12      1.0000 0.63750  0.41510  0.29180  Biso   1.000  C
  O13      1.0000 0.38630  0.88290  0.63510  Biso   1.000  O
  O14      1.0000 0.40749  0.79072  0.49580  Biso   1.000  O
  O15      1.0000 0.24520  0.73440  0.63730  Biso   1.000  O
  H9       1.0000 0.19310  0.72210  0.64670  Biso   1.000  H
  C13      1.0000 0.46280  0.93190  0.36880  Biso   1.000  C
  H10      1.0000 0.43860  0.88440  0.33050  Biso   1.000  H
  C14      1.0000 0.46040  0.93230  0.48280  Biso   1.000  C
  C15      1.0000 0.41510  0.86250  0.54180  Biso   1.000  C
  O16      1.0000 0.88630  0.38290  0.13510  Biso   1.000  O
  O17      1.0000 0.90749  0.29072  0.99580  Biso   1.000  O
  O18      1.0000 0.74520  0.23440  0.13730  Biso   1.000  O
  H11      1.0000 0.69310  0.22210  0.14670  Biso   1.000  H
  C16      1.0000 0.96280  0.43190  0.86880  Biso   1.000  C
  H12      1.0000 0.93860  0.38440  0.83050  Biso   1.000  H
  C17      1.0000 0.96040  0.43230  0.98280  Biso   1.000  C
  C18      1.0000 0.91510  0.36250  0.04180  Biso   1.000  C
  O19      1.0000 0.11370  0.61710  0.13510  Biso   1.000  O
  O20      1.0000 0.09251  0.70928  0.99580  Biso   1.000  O
  O21      1.0000 0.25480  0.76560  0.13730  Biso   1.000  O
  H13      1.0000 0.30690  0.77790  0.14670  Biso   1.000  H
  C19      1.0000 0.03720  0.56810  0.86880  Biso   1.000  C
  H14      1.0000 0.06140  0.61560  0.83050  Biso   1.000  H
  C20      1.0000 0.03960  0.56770  0.98280  Biso   1.000  C
  C21      1.0000 0.08490  0.63750  0.04180  Biso   1.000  C
  O22      1.0000 0.61370  0.11710  0.63510  Biso   1.000  O
  O23      1.0000 0.59251  0.20928  0.49580  Biso   1.000  O
  O24      1.0000 0.75480  0.26560  0.63730  Biso   1.000  O
  H15      1.0000 0.80690  0.27790  0.64670  Biso   1.000  H
  C22      1.0000 0.53720  0.06810  0.36880  Biso   1.000  C
  H16      1.0000 0.56140  0.11560  0.33050  Biso   1.000  H
  C23      1.0000 0.53960  0.06770  0.48280  Biso   1.000  C
  C24      1.0000 0.58490  0.13750  0.54180  Biso   1.000  C
  O25      1.0000 0.11710  0.61370  0.36490  Biso   1.000  O
  O26      1.0000 0.20928  0.59251  0.50420  Biso   1.000  O
  O27      1.0000 0.26560  0.75480  0.36270  Biso   1.000  O
  H17      1.0000 0.27790  0.80690  0.35330  Biso   1.000  H
  C25      1.0000 0.06810  0.53720  0.63120  Biso   1.000  C
  H18      1.0000 0.11560  0.56140  0.66950  Biso   1.000  H
  C26      1.0000 0.06770  0.53960  0.51720  Biso   1.000  C
  C27      1.0000 0.13750  0.58490  0.45820  Biso   1.000  C
  O28      1.0000 0.61710  0.11370  0.86490  Biso   1.000  O
  O29      1.0000 0.70928  0.09251  0.00420  Biso   1.000  O
  O30      1.0000 0.76560  0.25480  0.86270  Biso   1.000  O
  H19      1.0000 0.77790  0.30690  0.85330  Biso   1.000  H
  C28      1.0000 0.56810  0.03720  0.13120  Biso   1.000  C
  H20      1.0000 0.61560  0.06140  0.16950  Biso   1.000  H
  C29      1.0000 0.56770  0.03960  0.01720  Biso   1.000  C
  C30      1.0000 0.63750  0.08490  0.95820  Biso   1.000  C
  O31      1.0000 0.38290  0.88630  0.86490  Biso   1.000  O
  O32      1.0000 0.29072  0.90749  0.00420  Biso   1.000  O
  O33      1.0000 0.23440  0.74520  0.86270  Biso   1.000  O
  H21      1.0000 0.22210  0.69310  0.85330  Biso   1.000  H
  C31      1.0000 0.43190  0.96280  0.13120  Biso   1.000  C
  H22      1.0000 0.38440  0.93860  0.16950  Biso   1.000  H
  C32      1.0000 0.43230  0.96040  0.01720  Biso   1.000  C
  C33      1.0000 0.36250  0.91510  0.95820  Biso   1.000  C
  O34      1.0000 0.88290  0.38630  0.36490  Biso   1.000  O
  O35      1.0000 0.79072  0.40749  0.50420  Biso   1.000  O
  O36      1.0000 0.73440  0.24520  0.36270  Biso   1.000  O
  H23      1.0000 0.72210  0.19310  0.35330  Biso   1.000  H
  C34      1.0000 0.93190  0.46280  0.63120  Biso   1.000  C
  H24      1.0000 0.88440  0.43860  0.66950  Biso   1.000  H
  C35      1.0000 0.93230  0.46040  0.51720  Biso   1.000  C
  C36      1.0000 0.86250  0.41510  0.45820  Biso   1.000  C
  O37      1.0000 0.11370  0.88290  0.11490  Biso   1.000  O
  O38      1.0000 0.09251  0.79072  0.25420  Biso   1.000  O
  O39      1.0000 0.25480  0.73440  0.11270  Biso   1.000  O
  H25      1.0000 0.30690  0.72210  0.10330  Biso   1.000  H
  C37      1.0000 0.03720  0.93190  0.38120  Biso   1.000  C
  H26      1.0000 0.06140  0.88440  0.41950  Biso   1.000  H
  C38      1.0000 0.03960  0.93230  0.26720  Biso   1.000  C
  C39      1.0000 0.08490  0.86250  0.20820  Biso   1.000  C
  O40      1.0000 0.61370  0.38290  0.61490  Biso   1.000  O
  O41      1.0000 0.59251  0.29072  0.75420  Biso   1.000  O
  O42      1.0000 0.75480  0.23440  0.61270  Biso   1.000  O
  H27      1.0000 0.80690  0.22210  0.60330  Biso   1.000  H
  C40      1.0000 0.53720  0.43190  0.88120  Biso   1.000  C
  H28      1.0000 0.56140  0.38440  0.91950  Biso   1.000  H
  C41      1.0000 0.53960  0.43230  0.76720  Biso   1.000  C
  C42      1.0000 0.58490  0.36250  0.70820  Biso   1.000  C
  O43      1.0000 0.38630  0.61710  0.61490  Biso   1.000  O
  O44      1.0000 0.40749  0.70928  0.75420  Biso   1.000  O
  O45      1.0000 0.24520  0.76560  0.61270  Biso   1.000  O
  H29      1.0000 0.19310  0.77790  0.60330  Biso   1.000  H
  C43      1.0000 0.46280  0.56810  0.88120  Biso   1.000  C
  H30      1.0000 0.43860  0.61560  0.91950  Biso   1.000  H
  C44      1.0000 0.46040  0.56770  0.76720  Biso   1.000  C
  C45      1.0000 0.41510  0.63750  0.70820  Biso   1.000  C
  O46      1.0000 0.88630  0.11710  0.11490  Biso   1.000  O
  O47      1.0000 0.90749  0.20928  0.25420  Biso   1.000  O
  O48      1.0000 0.74520  0.26560  0.11270  Biso   1.000  O
  H31      1.0000 0.69310  0.27790  0.10330  Biso   1.000  H
  C46      1.0000 0.96280  0.06810  0.38120  Biso   1.000  C
  H32      1.0000 0.93860  0.11560  0.41950  Biso   1.000  H
  C47      1.0000 0.96040  0.06770  0.26720  Biso   1.000  C
  C48      1.0000 0.91510  0.13750  0.20820  Biso   1.000  C
  In1      1.0000 0.31142  0.68858  0.50000  Biso   1.000  In
  In2      1.0000 0.81142  0.18858  0.00000  Biso   1.000  In
  In3      1.0000 0.18858  0.81142  0.00000  Biso   1.000  In
  In4      1.0000 0.68858  0.31142  0.50000  Biso   1.000  In
  In5      1.0000 0.31142  0.81142  0.75000  Biso   1.000  In
  In6      1.0000 0.81142  0.31142  0.25000  Biso   1.000  In
  In7      1.0000 0.18858  0.68858  0.25000  Biso   1.000  In
  In8      1.0000 0.68858  0.18858  0.75000  Biso   1.000  In
  C49      1.0000 0.50000  0.50000  0.06020  Biso   1.000  C
  C50      1.0000 0.50000  0.50000  0.28860  Biso   1.000  C
  H33      1.0000 0.50000  0.50000  0.36580  Biso   1.000  H
  C51      1.0000 0.00000  0.00000  0.56020  Biso   1.000  C
  C52      1.0000 0.00000  0.00000  0.78860  Biso   1.000  C
  H34      1.0000 0.00000  0.00000  0.86580  Biso   1.000  H
  C53      1.0000 0.50000  0.00000  0.31020  Biso   1.000  C
  C54      1.0000 0.50000  0.00000  0.53860  Biso   1.000  C
  H35      1.0000 0.50000  0.00000  0.61580  Biso   1.000  H
  C55      1.0000 0.00000  0.50000  0.81020  Biso   1.000  C
  C56      1.0000 0.00000  0.50000  0.03860  Biso   1.000  C
  H36      1.0000 0.00000  0.50000  0.11580  Biso   1.000  H
  C57      1.0000 0.00000  0.50000  0.68980  Biso   1.000  C
  C58      1.0000 0.00000  0.50000  0.46140  Biso   1.000  C
  H37      1.0000 0.00000  0.50000  0.38420  Biso   1.000  H
  C59      1.0000 0.50000  0.00000  0.18980  Biso   1.000  C
  C60      1.0000 0.50000  0.00000  0.96140  Biso   1.000  C
  H38      1.0000 0.50000  0.00000  0.88420  Biso   1.000  H
  C61      1.0000 0.00000  0.00000  0.43980  Biso   1.000  C
  C62      1.0000 0.00000  0.00000  0.21140  Biso   1.000  C
  H39      1.0000 0.00000  0.00000  0.13420  Biso   1.000  H
  C63      1.0000 0.50000  0.50000  0.93980  Biso   1.000  C
  C64      1.0000 0.50000  0.50000  0.71140  Biso   1.000  C
  H40      1.0000 0.50000  0.50000  0.63420  Biso   1.000  H
