data_image0
_cell_length_a       24.0626
_cell_length_b       15.1916
_cell_length_c       10.4865
_cell_angle_alpha    90
_cell_angle_beta     90
_cell_angle_gamma    90

_symmetry_space_group_name_H-M    "P 1"
_symmetry_int_tables_number       1

loop_
  _symmetry_equiv_pos_as_xyz
  'x, y, z'

loop_
  _atom_site_label
  _atom_site_occupancy
  _atom_site_fract_x
  _atom_site_fract_y
  _atom_site_fract_z
  _atom_site_thermal_displace_type
  _atom_site_B_iso_or_equiv
  _atom_site_type_symbol
  O1       1.0000 0.73200  0.15510  0.56470  Biso   1.000  O
  O2       1.0000 0.66468  0.15760  0.71180  Biso   1.000  O
  C1       1.0000 0.68700  0.12900  0.61490  Biso   1.000  C
  C2       1.0000 0.69320  0.86800  0.31860  Biso   1.000  C
  O3       1.0000 0.73836  0.84500  0.36570  Biso   1.000  O
  O4       1.0000 0.67174  0.84140  0.21730  Biso   1.000  O
  C3       1.0000 0.68810  0.99710  0.46790  Biso   1.000  C
  H1       1.0000 0.72680  0.99920  0.46780  Biso   1.000  H
  N1       1.0000 0.51450  0.98410  0.45310  Biso   1.000  N
  C4       1.0000 0.60290  0.93320  0.38990  Biso   1.000  C
  H2       1.0000 0.58460  0.89450  0.33550  Biso   1.000  H
  C5       1.0000 0.65770  0.05710  0.54140  Biso   1.000  C
  C6       1.0000 0.66050  0.93450  0.39530  Biso   1.000  C
  C7       1.0000 0.60040  0.05250  0.54460  Biso   1.000  C
  H3       1.0000 0.58020  0.08990  0.59740  Biso   1.000  H
  C8       1.0000 0.57280  0.99080  0.46740  Biso   1.000  C
  O5       1.0000 0.49870  0.98700  0.32380  Biso   1.000  O
  C9       1.0000 0.38080  0.86410  0.87900  Biso   1.000  C
  N2       1.0000 0.37520  0.78180  0.81870  Biso   1.000  N
  N3       1.0000 0.34300  0.76760  0.01810  Biso   1.000  N
  C10      1.0000 0.35100  0.72200  0.90540  Biso   1.000  C
  C11      1.0000 0.36300  0.85490  0.00500  Biso   1.000  C
  N4       1.0000 0.62190  0.78340  0.75640  Biso   1.000  N
  C12      1.0000 0.62110  0.86780  0.80900  Biso   1.000  C
  C13      1.0000 0.64410  0.85920  0.93100  Biso   1.000  C
  N5       1.0000 0.66590  0.77470  0.94090  Biso   1.000  N
  C14      1.0000 0.67020  0.88240  0.85070  Biso   1.000  C
  C15      1.0000 0.32520  0.87540  0.90860  Biso   1.000  C
  C16      1.0000 0.68600  0.90650  0.99300  Biso   1.000  C
  C17      1.0000 0.64290  0.71570  0.84770  Biso   1.000  C
  C18      1.0000 0.44240  0.74200  0.64870  Biso   1.000  C
  C19      1.0000 0.54210  0.74500  0.62810  Biso   1.000  C
  C20      1.0000 0.38370  0.74000  0.69290  Biso   1.000  C
  C21      1.0000 0.49360  0.77630  0.68630  Biso   1.000  C
  C22      1.0000 0.29050  0.93400  0.00420  Biso   1.000  C
  C23      1.0000 0.27460  0.85380  0.81250  Biso   1.000  C
  H4       1.0000 0.61200  0.78940  0.56550  Biso   1.000  H
  H5       1.0000 0.61510  0.69270  0.61670  Biso   1.000  H
  H6       1.0000 0.45090  0.68020  0.63750  Biso   1.000  H
  H7       1.0000 0.43870  0.76510  0.56280  Biso   1.000  H
  H8       1.0000 0.53670  0.68140  0.63410  Biso   1.000  H
  H9       1.0000 0.53510  0.75830  0.53920  Biso   1.000  H
  H10      1.0000 0.36050  0.76890  0.63030  Biso   1.000  H
  H11      1.0000 0.37170  0.67870  0.69790  Biso   1.000  H
  H12      1.0000 0.49720  0.76660  0.77740  Biso   1.000  H
  H13      1.0000 0.49240  0.83940  0.67310  Biso   1.000  H
  H14      1.0000 0.39400  0.91550  0.84180  Biso   1.000  H
  H15      1.0000 0.36400  0.89770  0.06870  Biso   1.000  H
  H16      1.0000 0.60800  0.91910  0.77060  Biso   1.000  H
  H17      1.0000 0.64460  0.90230  0.99380  Biso   1.000  H
  H18      1.0000 0.64380  0.57440  0.81680  Biso   1.000  H
  H19      1.0000 0.71140  0.60400  0.67490  Biso   1.000  H
  H20      1.0000 0.75260  0.59740  0.79030  Biso   1.000  H
  H21      1.0000 0.72980  0.68940  0.74740  Biso   1.000  H
  H22      1.0000 0.69140  0.64670  0.04100  Biso   1.000  H
  H23      1.0000 0.71970  0.55960  0.99370  Biso   1.000  H
  H24      1.0000 0.65650  0.55980  0.03060  Biso   1.000  H
  H25      1.0000 0.35110  0.58560  0.86370  Biso   1.000  H
  H26      1.0000 0.28880  0.67540  0.73810  Biso   1.000  H
  H27      1.0000 0.24820  0.68380  0.85440  Biso   1.000  H
  H28      1.0000 0.25670  0.59240  0.78770  Biso   1.000  H
  H29      1.0000 0.28470  0.50890  0.96770  Biso   1.000  H
  H30      1.0000 0.25520  0.59360  0.01980  Biso   1.000  H
  H31      1.0000 0.31030  0.56050  0.08310  Biso   1.000  H
  C24      1.0000 0.72090  0.62800  0.75670  Biso   1.000  C
  O6       1.0000 0.76800  0.84490  0.06470  Biso   1.000  O
  O7       1.0000 0.83532  0.84240  0.21180  Biso   1.000  O
  C25      1.0000 0.81300  0.87100  0.11490  Biso   1.000  C
  C26      1.0000 0.80680  0.13200  0.81860  Biso   1.000  C
  O8       1.0000 0.76164  0.15500  0.86570  Biso   1.000  O
  O9       1.0000 0.82826  0.15860  0.71730  Biso   1.000  O
  C27      1.0000 0.81190  0.00290  0.96790  Biso   1.000  C
  H32      1.0000 0.77320  0.00080  0.96780  Biso   1.000  H
  N6       1.0000 0.98550  0.01590  0.95310  Biso   1.000  N
  C28      1.0000 0.89710  0.06680  0.88990  Biso   1.000  C
  H33      1.0000 0.91540  0.10550  0.83550  Biso   1.000  H
  C29      1.0000 0.84230  0.94290  0.04140  Biso   1.000  C
  C30      1.0000 0.83950  0.06550  0.89530  Biso   1.000  C
  C31      1.0000 0.89960  0.94750  0.04460  Biso   1.000  C
  H34      1.0000 0.91980  0.91010  0.09740  Biso   1.000  H
  C32      1.0000 0.92720  0.00920  0.96740  Biso   1.000  C
  O10      1.0000 0.00130  0.01300  0.82380  Biso   1.000  O
  C33      1.0000 0.11920  0.13590  0.37900  Biso   1.000  C
  N7       1.0000 0.12480  0.21820  0.31870  Biso   1.000  N
  N8       1.0000 0.15700  0.23240  0.51810  Biso   1.000  N
  C34      1.0000 0.14900  0.27800  0.40540  Biso   1.000  C
  C35      1.0000 0.13700  0.14510  0.50500  Biso   1.000  C
  N9       1.0000 0.87810  0.21660  0.25640  Biso   1.000  N
  C36      1.0000 0.87890  0.13220  0.30900  Biso   1.000  C
  C37      1.0000 0.85590  0.14080  0.43100  Biso   1.000  C
  N10      1.0000 0.83410  0.22530  0.44090  Biso   1.000  N
  C38      1.0000 0.82980  0.11760  0.35070  Biso   1.000  C
  C39      1.0000 0.17480  0.12460  0.40860  Biso   1.000  C
  C40      1.0000 0.81400  0.09350  0.49300  Biso   1.000  C
  C41      1.0000 0.85710  0.28430  0.34770  Biso   1.000  C
  C42      1.0000 0.05760  0.25800  0.14870  Biso   1.000  C
  C43      1.0000 0.95790  0.25500  0.12810  Biso   1.000  C
  C44      1.0000 0.11630  0.26000  0.19290  Biso   1.000  C
  C45      1.0000 0.00640  0.22370  0.18630  Biso   1.000  C
  C46      1.0000 0.20950  0.06600  0.50420  Biso   1.000  C
  C47      1.0000 0.22540  0.14620  0.31250  Biso   1.000  C
  H35      1.0000 0.88800  0.21060  0.06550  Biso   1.000  H
  H36      1.0000 0.88490  0.30730  0.11670  Biso   1.000  H
  H37      1.0000 0.04910  0.31980  0.13750  Biso   1.000  H
  H38      1.0000 0.06130  0.23490  0.06280  Biso   1.000  H
  H39      1.0000 0.96330  0.31860  0.13410  Biso   1.000  H
  H40      1.0000 0.96490  0.24170  0.03920  Biso   1.000  H
  H41      1.0000 0.13950  0.23110  0.13030  Biso   1.000  H
  H42      1.0000 0.12830  0.32130  0.19790  Biso   1.000  H
  H43      1.0000 0.00280  0.23340  0.27740  Biso   1.000  H
  H44      1.0000 0.00760  0.16060  0.17310  Biso   1.000  H
  H45      1.0000 0.10600  0.08450  0.34180  Biso   1.000  H
  H46      1.0000 0.13600  0.10230  0.56870  Biso   1.000  H
  H47      1.0000 0.89200  0.08090  0.27060  Biso   1.000  H
  H48      1.0000 0.85540  0.09770  0.49380  Biso   1.000  H
  H49      1.0000 0.85620  0.42560  0.31680  Biso   1.000  H
  H50      1.0000 0.78860  0.39600  0.17490  Biso   1.000  H
  H51      1.0000 0.74740  0.40260  0.29030  Biso   1.000  H
  H52      1.0000 0.77020  0.31060  0.24740  Biso   1.000  H
  H53      1.0000 0.80860  0.35330  0.54100  Biso   1.000  H
  H54      1.0000 0.78030  0.44040  0.49370  Biso   1.000  H
  H55      1.0000 0.84350  0.44020  0.53060  Biso   1.000  H
  H56      1.0000 0.14890  0.41440  0.36370  Biso   1.000  H
  H57      1.0000 0.21120  0.32460  0.23810  Biso   1.000  H
  H58      1.0000 0.25180  0.31620  0.35440  Biso   1.000  H
  H59      1.0000 0.24330  0.40760  0.28770  Biso   1.000  H
  H60      1.0000 0.21530  0.49110  0.46770  Biso   1.000  H
  H61      1.0000 0.24480  0.40640  0.51980  Biso   1.000  H
  H62      1.0000 0.18970  0.43950  0.58310  Biso   1.000  H
  C48      1.0000 0.77910  0.37200  0.25670  Biso   1.000  C
  O11      1.0000 0.26800  0.65510  0.43530  Biso   1.000  O
  O12      1.0000 0.33532  0.65760  0.28820  Biso   1.000  O
  C49      1.0000 0.31300  0.62900  0.38510  Biso   1.000  C
  C50      1.0000 0.30680  0.36800  0.68140  Biso   1.000  C
  O13      1.0000 0.26164  0.34500  0.63430  Biso   1.000  O
  O14      1.0000 0.32826  0.34140  0.78270  Biso   1.000  O
  C51      1.0000 0.31190  0.49710  0.53210  Biso   1.000  C
  H63      1.0000 0.27320  0.49920  0.53220  Biso   1.000  H
  N11      1.0000 0.48550  0.48410  0.54690  Biso   1.000  N
  C52      1.0000 0.39710  0.43320  0.61010  Biso   1.000  C
  H64      1.0000 0.41540  0.39450  0.66450  Biso   1.000  H
  C53      1.0000 0.34230  0.55710  0.45860  Biso   1.000  C
  C54      1.0000 0.33950  0.43450  0.60470  Biso   1.000  C
  C55      1.0000 0.39960  0.55250  0.45540  Biso   1.000  C
  H65      1.0000 0.41980  0.58990  0.40260  Biso   1.000  H
  C56      1.0000 0.42720  0.49080  0.53260  Biso   1.000  C
  O15      1.0000 0.50130  0.48700  0.67620  Biso   1.000  O
  C57      1.0000 0.61920  0.36410  0.12100  Biso   1.000  C
  N12      1.0000 0.62480  0.28180  0.18130  Biso   1.000  N
  N13      1.0000 0.65700  0.26760  0.98190  Biso   1.000  N
  C58      1.0000 0.64900  0.22200  0.09460  Biso   1.000  C
  C59      1.0000 0.63700  0.35490  0.99500  Biso   1.000  C
  N14      1.0000 0.37810  0.28340  0.24360  Biso   1.000  N
  C60      1.0000 0.37890  0.36780  0.19100  Biso   1.000  C
  C61      1.0000 0.35590  0.35920  0.06900  Biso   1.000  C
  N15      1.0000 0.33410  0.27470  0.05910  Biso   1.000  N
  C62      1.0000 0.32980  0.38240  0.14930  Biso   1.000  C
  C63      1.0000 0.67480  0.37540  0.09140  Biso   1.000  C
  C64      1.0000 0.31400  0.40650  0.00700  Biso   1.000  C
  C65      1.0000 0.35710  0.21570  0.15230  Biso   1.000  C
  C66      1.0000 0.55760  0.24200  0.35130  Biso   1.000  C
  C67      1.0000 0.45790  0.24500  0.37190  Biso   1.000  C
  C68      1.0000 0.61630  0.24000  0.30710  Biso   1.000  C
  C69      1.0000 0.50640  0.27630  0.31370  Biso   1.000  C
  C70      1.0000 0.70950  0.43400  0.99580  Biso   1.000  C
  C71      1.0000 0.72540  0.35380  0.18750  Biso   1.000  C
  H66      1.0000 0.38800  0.28940  0.43450  Biso   1.000  H
  H67      1.0000 0.38490  0.19270  0.38330  Biso   1.000  H
  H68      1.0000 0.54910  0.18020  0.36250  Biso   1.000  H
  H69      1.0000 0.56130  0.26510  0.43720  Biso   1.000  H
  H70      1.0000 0.46330  0.18140  0.36590  Biso   1.000  H
  H71      1.0000 0.46490  0.25830  0.46080  Biso   1.000  H
  H72      1.0000 0.63950  0.26890  0.36970  Biso   1.000  H
  H73      1.0000 0.62830  0.17870  0.30210  Biso   1.000  H
  H74      1.0000 0.50280  0.26660  0.22260  Biso   1.000  H
  H75      1.0000 0.50760  0.33940  0.32690  Biso   1.000  H
  H76      1.0000 0.60600  0.41550  0.15820  Biso   1.000  H
  H77      1.0000 0.63600  0.39770  0.93130  Biso   1.000  H
  H78      1.0000 0.39200  0.41910  0.22940  Biso   1.000  H
  H79      1.0000 0.35540  0.40230  0.00620  Biso   1.000  H
  H80      1.0000 0.35620  0.07440  0.18320  Biso   1.000  H
  H81      1.0000 0.28860  0.10400  0.32510  Biso   1.000  H
  H82      1.0000 0.24740  0.09740  0.20970  Biso   1.000  H
  H83      1.0000 0.27020  0.18940  0.25260  Biso   1.000  H
  H84      1.0000 0.30860  0.14670  0.95900  Biso   1.000  H
  H85      1.0000 0.28030  0.05960  0.00630  Biso   1.000  H
  H86      1.0000 0.34350  0.05980  0.96940  Biso   1.000  H
  H87      1.0000 0.64890  0.08560  0.13630  Biso   1.000  H
  H88      1.0000 0.71120  0.17540  0.26190  Biso   1.000  H
  H89      1.0000 0.75180  0.18380  0.14560  Biso   1.000  H
  H90      1.0000 0.74330  0.09240  0.21230  Biso   1.000  H
  H91      1.0000 0.71530  0.00890  0.03230  Biso   1.000  H
  H92      1.0000 0.74480  0.09360  0.98020  Biso   1.000  H
  H93      1.0000 0.68970  0.06050  0.91690  Biso   1.000  H
  C72      1.0000 0.27910  0.12800  0.24330  Biso   1.000  C
  O16      1.0000 0.23200  0.34490  0.93530  Biso   1.000  O
  O17      1.0000 0.16468  0.34240  0.78820  Biso   1.000  O
  C73      1.0000 0.18700  0.37100  0.88510  Biso   1.000  C
  C74      1.0000 0.19320  0.63200  0.18140  Biso   1.000  C
  O18      1.0000 0.23836  0.65500  0.13430  Biso   1.000  O
  O19      1.0000 0.17174  0.65860  0.28270  Biso   1.000  O
  C75      1.0000 0.18810  0.50290  0.03210  Biso   1.000  C
  H94      1.0000 0.22680  0.50080  0.03220  Biso   1.000  H
  N16      1.0000 0.01450  0.51590  0.04690  Biso   1.000  N
  C76      1.0000 0.10290  0.56680  0.11010  Biso   1.000  C
  H95      1.0000 0.08460  0.60550  0.16450  Biso   1.000  H
  C77      1.0000 0.15770  0.44290  0.95860  Biso   1.000  C
  C78      1.0000 0.16050  0.56550  0.10470  Biso   1.000  C
  C79      1.0000 0.10040  0.44750  0.95540  Biso   1.000  C
  H96      1.0000 0.08020  0.41010  0.90260  Biso   1.000  H
  C80      1.0000 0.07280  0.50920  0.03260  Biso   1.000  C
  O20      1.0000 0.99870  0.51300  0.17620  Biso   1.000  O
  C81      1.0000 0.88080  0.63590  0.62100  Biso   1.000  C
  N17      1.0000 0.87520  0.71820  0.68130  Biso   1.000  N
  N18      1.0000 0.84300  0.73240  0.48190  Biso   1.000  N
  C82      1.0000 0.85100  0.77800  0.59460  Biso   1.000  C
  C83      1.0000 0.86300  0.64510  0.49500  Biso   1.000  C
  N19      1.0000 0.12190  0.71660  0.74360  Biso   1.000  N
  C84      1.0000 0.12110  0.63220  0.69100  Biso   1.000  C
  C85      1.0000 0.14410  0.64080  0.56900  Biso   1.000  C
  N20      1.0000 0.16590  0.72530  0.55910  Biso   1.000  N
  C86      1.0000 0.17020  0.61760  0.64930  Biso   1.000  C
  C87      1.0000 0.82520  0.62460  0.59140  Biso   1.000  C
  C88      1.0000 0.18600  0.59350  0.50700  Biso   1.000  C
  C89      1.0000 0.14290  0.78430  0.65230  Biso   1.000  C
  C90      1.0000 0.94240  0.75800  0.85130  Biso   1.000  C
  C91      1.0000 0.04210  0.75500  0.87190  Biso   1.000  C
  C92      1.0000 0.88370  0.76000  0.80710  Biso   1.000  C
  C93      1.0000 0.99360  0.72370  0.81370  Biso   1.000  C
  C94      1.0000 0.79050  0.56600  0.49580  Biso   1.000  C
  C95      1.0000 0.77460  0.64620  0.68750  Biso   1.000  C
  H97      1.0000 0.11200  0.71060  0.93450  Biso   1.000  H
  H98      1.0000 0.11510  0.80730  0.88330  Biso   1.000  H
  H99      1.0000 0.95090  0.81980  0.86250  Biso   1.000  H
  H100     1.0000 0.93870  0.73490  0.93720  Biso   1.000  H
  H101     1.0000 0.03670  0.81860  0.86590  Biso   1.000  H
  H102     1.0000 0.03510  0.74170  0.96080  Biso   1.000  H
  H103     1.0000 0.86050  0.73110  0.86970  Biso   1.000  H
  H104     1.0000 0.87170  0.82130  0.80210  Biso   1.000  H
  H105     1.0000 0.99720  0.73340  0.72260  Biso   1.000  H
  H106     1.0000 0.99240  0.66060  0.82690  Biso   1.000  H
  H107     1.0000 0.89400  0.58450  0.65820  Biso   1.000  H
  H108     1.0000 0.86400  0.60230  0.43130  Biso   1.000  H
  H109     1.0000 0.10800  0.58090  0.72940  Biso   1.000  H
  H110     1.0000 0.14460  0.59770  0.50620  Biso   1.000  H
  H111     1.0000 0.14380  0.92560  0.68320  Biso   1.000  H
  H112     1.0000 0.21140  0.89600  0.82510  Biso   1.000  H
  H113     1.0000 0.25260  0.90260  0.70970  Biso   1.000  H
  H114     1.0000 0.22980  0.81060  0.75260  Biso   1.000  H
  H115     1.0000 0.19140  0.85330  0.45900  Biso   1.000  H
  H116     1.0000 0.21970  0.94040  0.50630  Biso   1.000  H
  H117     1.0000 0.15650  0.94020  0.46940  Biso   1.000  H
  H118     1.0000 0.85110  0.91440  0.63630  Biso   1.000  H
  H119     1.0000 0.78880  0.82460  0.76190  Biso   1.000  H
  H120     1.0000 0.74820  0.81620  0.64560  Biso   1.000  H
  H121     1.0000 0.75670  0.90760  0.71230  Biso   1.000  H
  H122     1.0000 0.78470  0.99110  0.53230  Biso   1.000  H
  H123     1.0000 0.75520  0.90640  0.48020  Biso   1.000  H
  H124     1.0000 0.81030  0.93950  0.41690  Biso   1.000  H
  C96      1.0000 0.22090  0.87200  0.74330  Biso   1.000  C
  O21      1.0000 0.26800  0.84490  0.43530  Biso   1.000  O
  O22      1.0000 0.33532  0.84240  0.28820  Biso   1.000  O
  C97      1.0000 0.31300  0.87100  0.38510  Biso   1.000  C
  C98      1.0000 0.30680  0.13200  0.68140  Biso   1.000  C
  O23      1.0000 0.26164  0.15500  0.63430  Biso   1.000  O
  O24      1.0000 0.32826  0.15860  0.78270  Biso   1.000  O
  C99      1.0000 0.31190  0.00290  0.53210  Biso   1.000  C
  H125     1.0000 0.27320  0.00080  0.53220  Biso   1.000  H
  N21      1.0000 0.48550  0.01590  0.54690  Biso   1.000  N
  C100     1.0000 0.39710  0.06680  0.61010  Biso   1.000  C
  H126     1.0000 0.41540  0.10550  0.66450  Biso   1.000  H
  C101     1.0000 0.34230  0.94290  0.45860  Biso   1.000  C
  C102     1.0000 0.33950  0.06550  0.60470  Biso   1.000  C
  C103     1.0000 0.39960  0.94750  0.45540  Biso   1.000  C
  H127     1.0000 0.41980  0.91010  0.40260  Biso   1.000  H
  C104     1.0000 0.42720  0.00920  0.53260  Biso   1.000  C
  O25      1.0000 0.50130  0.01300  0.67620  Biso   1.000  O
  C105     1.0000 0.61920  0.13590  0.12100  Biso   1.000  C
  N22      1.0000 0.62480  0.21820  0.18130  Biso   1.000  N
  N23      1.0000 0.65700  0.23240  0.98190  Biso   1.000  N
  C106     1.0000 0.64900  0.27800  0.09460  Biso   1.000  C
  C107     1.0000 0.63700  0.14510  0.99500  Biso   1.000  C
  N24      1.0000 0.37810  0.21660  0.24360  Biso   1.000  N
  C108     1.0000 0.37890  0.13220  0.19100  Biso   1.000  C
  C109     1.0000 0.35590  0.14080  0.06900  Biso   1.000  C
  N25      1.0000 0.33410  0.22530  0.05910  Biso   1.000  N
  C110     1.0000 0.32980  0.11760  0.14930  Biso   1.000  C
  C111     1.0000 0.67480  0.12460  0.09140  Biso   1.000  C
  C112     1.0000 0.31400  0.09350  0.00700  Biso   1.000  C
  C113     1.0000 0.35710  0.28430  0.15230  Biso   1.000  C
  C114     1.0000 0.55760  0.25800  0.35130  Biso   1.000  C
  C115     1.0000 0.45790  0.25500  0.37190  Biso   1.000  C
  C116     1.0000 0.61630  0.26000  0.30710  Biso   1.000  C
  C117     1.0000 0.50640  0.22370  0.31370  Biso   1.000  C
  C118     1.0000 0.70950  0.06600  0.99580  Biso   1.000  C
  C119     1.0000 0.72540  0.14620  0.18750  Biso   1.000  C
  H128     1.0000 0.38800  0.21060  0.43450  Biso   1.000  H
  H129     1.0000 0.38490  0.30730  0.38330  Biso   1.000  H
  H130     1.0000 0.54910  0.31980  0.36250  Biso   1.000  H
  H131     1.0000 0.56130  0.23490  0.43720  Biso   1.000  H
  H132     1.0000 0.46330  0.31860  0.36590  Biso   1.000  H
  H133     1.0000 0.46490  0.24170  0.46080  Biso   1.000  H
  H134     1.0000 0.63950  0.23110  0.36970  Biso   1.000  H
  H135     1.0000 0.62830  0.32130  0.30210  Biso   1.000  H
  H136     1.0000 0.50280  0.23340  0.22260  Biso   1.000  H
  H137     1.0000 0.50760  0.16060  0.32690  Biso   1.000  H
  H138     1.0000 0.60600  0.08450  0.15820  Biso   1.000  H
  H139     1.0000 0.63600  0.10230  0.93130  Biso   1.000  H
  H140     1.0000 0.39200  0.08090  0.22940  Biso   1.000  H
  H141     1.0000 0.35540  0.09770  0.00620  Biso   1.000  H
  H142     1.0000 0.35620  0.42560  0.18320  Biso   1.000  H
  H143     1.0000 0.28860  0.39600  0.32510  Biso   1.000  H
  H144     1.0000 0.24740  0.40260  0.20970  Biso   1.000  H
  H145     1.0000 0.27020  0.31060  0.25260  Biso   1.000  H
  H146     1.0000 0.30860  0.35330  0.95900  Biso   1.000  H
  H147     1.0000 0.28030  0.44040  0.00630  Biso   1.000  H
  H148     1.0000 0.34350  0.44020  0.96940  Biso   1.000  H
  H149     1.0000 0.64890  0.41440  0.13630  Biso   1.000  H
  H150     1.0000 0.71120  0.32460  0.26190  Biso   1.000  H
  H151     1.0000 0.75180  0.31620  0.14560  Biso   1.000  H
  H152     1.0000 0.74330  0.40760  0.21230  Biso   1.000  H
  H153     1.0000 0.71530  0.49110  0.03230  Biso   1.000  H
  H154     1.0000 0.74480  0.40640  0.98020  Biso   1.000  H
  H155     1.0000 0.68970  0.43950  0.91690  Biso   1.000  H
  C120     1.0000 0.27910  0.37200  0.24330  Biso   1.000  C
  O26      1.0000 0.23200  0.15510  0.93530  Biso   1.000  O
  O27      1.0000 0.16468  0.15760  0.78820  Biso   1.000  O
  C121     1.0000 0.18700  0.12900  0.88510  Biso   1.000  C
  C122     1.0000 0.19320  0.86800  0.18140  Biso   1.000  C
  O28      1.0000 0.23836  0.84500  0.13430  Biso   1.000  O
  O29      1.0000 0.17174  0.84140  0.28270  Biso   1.000  O
  C123     1.0000 0.18810  0.99710  0.03210  Biso   1.000  C
  H156     1.0000 0.22680  0.99920  0.03220  Biso   1.000  H
  N26      1.0000 0.01450  0.98410  0.04690  Biso   1.000  N
  C124     1.0000 0.10290  0.93320  0.11010  Biso   1.000  C
  H157     1.0000 0.08460  0.89450  0.16450  Biso   1.000  H
  C125     1.0000 0.15770  0.05710  0.95860  Biso   1.000  C
  C126     1.0000 0.16050  0.93450  0.10470  Biso   1.000  C
  C127     1.0000 0.10040  0.05250  0.95540  Biso   1.000  C
  H158     1.0000 0.08020  0.08990  0.90260  Biso   1.000  H
  C128     1.0000 0.07280  0.99080  0.03260  Biso   1.000  C
  O30      1.0000 0.99870  0.98700  0.17620  Biso   1.000  O
  C129     1.0000 0.88080  0.86410  0.62100  Biso   1.000  C
  N27      1.0000 0.87520  0.78180  0.68130  Biso   1.000  N
  N28      1.0000 0.84300  0.76760  0.48190  Biso   1.000  N
  C130     1.0000 0.85100  0.72200  0.59460  Biso   1.000  C
  C131     1.0000 0.86300  0.85490  0.49500  Biso   1.000  C
  N29      1.0000 0.12190  0.78340  0.74360  Biso   1.000  N
  C132     1.0000 0.12110  0.86780  0.69100  Biso   1.000  C
  C133     1.0000 0.14410  0.85920  0.56900  Biso   1.000  C
  N30      1.0000 0.16590  0.77470  0.55910  Biso   1.000  N
  C134     1.0000 0.17020  0.88240  0.64930  Biso   1.000  C
  C135     1.0000 0.82520  0.87540  0.59140  Biso   1.000  C
  C136     1.0000 0.18600  0.90650  0.50700  Biso   1.000  C
  C137     1.0000 0.14290  0.71570  0.65230  Biso   1.000  C
  C138     1.0000 0.94240  0.74200  0.85130  Biso   1.000  C
  C139     1.0000 0.04210  0.74500  0.87190  Biso   1.000  C
  C140     1.0000 0.88370  0.74000  0.80710  Biso   1.000  C
  C141     1.0000 0.99360  0.77630  0.81370  Biso   1.000  C
  C142     1.0000 0.79050  0.93400  0.49580  Biso   1.000  C
  C143     1.0000 0.77460  0.85380  0.68750  Biso   1.000  C
  H159     1.0000 0.11200  0.78940  0.93450  Biso   1.000  H
  H160     1.0000 0.11510  0.69270  0.88330  Biso   1.000  H
  H161     1.0000 0.95090  0.68020  0.86250  Biso   1.000  H
  H162     1.0000 0.93870  0.76510  0.93720  Biso   1.000  H
  H163     1.0000 0.03670  0.68140  0.86590  Biso   1.000  H
  H164     1.0000 0.03510  0.75830  0.96080  Biso   1.000  H
  H165     1.0000 0.86050  0.76890  0.86970  Biso   1.000  H
  H166     1.0000 0.87170  0.67870  0.80210  Biso   1.000  H
  H167     1.0000 0.99720  0.76660  0.72260  Biso   1.000  H
  H168     1.0000 0.99240  0.83940  0.82690  Biso   1.000  H
  H169     1.0000 0.89400  0.91550  0.65820  Biso   1.000  H
  H170     1.0000 0.86400  0.89770  0.43130  Biso   1.000  H
  H171     1.0000 0.10800  0.91910  0.72940  Biso   1.000  H
  H172     1.0000 0.14460  0.90230  0.50620  Biso   1.000  H
  H173     1.0000 0.14380  0.57440  0.68320  Biso   1.000  H
  H174     1.0000 0.21140  0.60400  0.82510  Biso   1.000  H
  H175     1.0000 0.25260  0.59740  0.70970  Biso   1.000  H
  H176     1.0000 0.22980  0.68940  0.75260  Biso   1.000  H
  H177     1.0000 0.19140  0.64670  0.45900  Biso   1.000  H
  H178     1.0000 0.21970  0.55960  0.50630  Biso   1.000  H
  H179     1.0000 0.15650  0.55980  0.46940  Biso   1.000  H
  H180     1.0000 0.85110  0.58560  0.63630  Biso   1.000  H
  H181     1.0000 0.78880  0.67540  0.76190  Biso   1.000  H
  H182     1.0000 0.74820  0.68380  0.64560  Biso   1.000  H
  H183     1.0000 0.75670  0.59240  0.71230  Biso   1.000  H
  H184     1.0000 0.78470  0.50890  0.53230  Biso   1.000  H
  H185     1.0000 0.75520  0.59360  0.48020  Biso   1.000  H
  H186     1.0000 0.81030  0.56050  0.41690  Biso   1.000  H
  C144     1.0000 0.22090  0.62800  0.74330  Biso   1.000  C
  O31      1.0000 0.73200  0.34490  0.56470  Biso   1.000  O
  O32      1.0000 0.66468  0.34240  0.71180  Biso   1.000  O
  C145     1.0000 0.68700  0.37100  0.61490  Biso   1.000  C
  C146     1.0000 0.69320  0.63200  0.31860  Biso   1.000  C
  O33      1.0000 0.73836  0.65500  0.36570  Biso   1.000  O
  O34      1.0000 0.67174  0.65860  0.21730  Biso   1.000  O
  C147     1.0000 0.68810  0.50290  0.46790  Biso   1.000  C
  H187     1.0000 0.72680  0.50080  0.46780  Biso   1.000  H
  N31      1.0000 0.51450  0.51590  0.45310  Biso   1.000  N
  C148     1.0000 0.60290  0.56680  0.38990  Biso   1.000  C
  H188     1.0000 0.58460  0.60550  0.33550  Biso   1.000  H
  C149     1.0000 0.65770  0.44290  0.54140  Biso   1.000  C
  C150     1.0000 0.66050  0.56550  0.39530  Biso   1.000  C
  C151     1.0000 0.60040  0.44750  0.54460  Biso   1.000  C
  H189     1.0000 0.58020  0.41010  0.59740  Biso   1.000  H
  C152     1.0000 0.57280  0.50920  0.46740  Biso   1.000  C
  O35      1.0000 0.49870  0.51300  0.32380  Biso   1.000  O
  C153     1.0000 0.38080  0.63590  0.87900  Biso   1.000  C
  N32      1.0000 0.37520  0.71820  0.81870  Biso   1.000  N
  N33      1.0000 0.34300  0.73240  0.01810  Biso   1.000  N
  C154     1.0000 0.35100  0.77800  0.90540  Biso   1.000  C
  C155     1.0000 0.36300  0.64510  0.00500  Biso   1.000  C
  N34      1.0000 0.62190  0.71660  0.75640  Biso   1.000  N
  C156     1.0000 0.62110  0.63220  0.80900  Biso   1.000  C
  C157     1.0000 0.64410  0.64080  0.93100  Biso   1.000  C
  N35      1.0000 0.66590  0.72530  0.94090  Biso   1.000  N
  C158     1.0000 0.67020  0.61760  0.85070  Biso   1.000  C
  C159     1.0000 0.32520  0.62460  0.90860  Biso   1.000  C
  C160     1.0000 0.68600  0.59350  0.99300  Biso   1.000  C
  C161     1.0000 0.64290  0.78430  0.84770  Biso   1.000  C
  C162     1.0000 0.44240  0.75800  0.64870  Biso   1.000  C
  C163     1.0000 0.54210  0.75500  0.62810  Biso   1.000  C
  C164     1.0000 0.38370  0.76000  0.69290  Biso   1.000  C
  C165     1.0000 0.49360  0.72370  0.68630  Biso   1.000  C
  C166     1.0000 0.29050  0.56600  0.00420  Biso   1.000  C
  C167     1.0000 0.27460  0.64620  0.81250  Biso   1.000  C
  H190     1.0000 0.61200  0.71060  0.56550  Biso   1.000  H
  H191     1.0000 0.61510  0.80730  0.61670  Biso   1.000  H
  H192     1.0000 0.45090  0.81980  0.63750  Biso   1.000  H
  H193     1.0000 0.43870  0.73490  0.56280  Biso   1.000  H
  H194     1.0000 0.53670  0.81860  0.63410  Biso   1.000  H
  H195     1.0000 0.53510  0.74170  0.53920  Biso   1.000  H
  H196     1.0000 0.36050  0.73110  0.63030  Biso   1.000  H
  H197     1.0000 0.37170  0.82130  0.69790  Biso   1.000  H
  H198     1.0000 0.49720  0.73340  0.77740  Biso   1.000  H
  H199     1.0000 0.49240  0.66060  0.67310  Biso   1.000  H
  H200     1.0000 0.39400  0.58450  0.84180  Biso   1.000  H
  H201     1.0000 0.36400  0.60230  0.06870  Biso   1.000  H
  H202     1.0000 0.60800  0.58090  0.77060  Biso   1.000  H
  H203     1.0000 0.64460  0.59770  0.99380  Biso   1.000  H
  H204     1.0000 0.64380  0.92560  0.81680  Biso   1.000  H
  H205     1.0000 0.71140  0.89600  0.67490  Biso   1.000  H
  H206     1.0000 0.75260  0.90260  0.79030  Biso   1.000  H
  H207     1.0000 0.72980  0.81060  0.74740  Biso   1.000  H
  H208     1.0000 0.69140  0.85330  0.04100  Biso   1.000  H
  H209     1.0000 0.71970  0.94040  0.99370  Biso   1.000  H
  H210     1.0000 0.65650  0.94020  0.03060  Biso   1.000  H
  H211     1.0000 0.35110  0.91440  0.86370  Biso   1.000  H
  H212     1.0000 0.28880  0.82460  0.73810  Biso   1.000  H
  H213     1.0000 0.24820  0.81620  0.85440  Biso   1.000  H
  H214     1.0000 0.25670  0.90760  0.78770  Biso   1.000  H
  H215     1.0000 0.28470  0.99110  0.96770  Biso   1.000  H
  H216     1.0000 0.25520  0.90640  0.01980  Biso   1.000  H
  H217     1.0000 0.31030  0.93950  0.08310  Biso   1.000  H
  C168     1.0000 0.72090  0.87200  0.75670  Biso   1.000  C
  O36      1.0000 0.76800  0.65510  0.06470  Biso   1.000  O
  O37      1.0000 0.83532  0.65760  0.21180  Biso   1.000  O
  C169     1.0000 0.81300  0.62900  0.11490  Biso   1.000  C
  C170     1.0000 0.80680  0.36800  0.81860  Biso   1.000  C
  O38      1.0000 0.76164  0.34500  0.86570  Biso   1.000  O
  O39      1.0000 0.82826  0.34140  0.71730  Biso   1.000  O
  C171     1.0000 0.81190  0.49710  0.96790  Biso   1.000  C
  H218     1.0000 0.77320  0.49920  0.96780  Biso   1.000  H
  N36      1.0000 0.98550  0.48410  0.95310  Biso   1.000  N
  C172     1.0000 0.89710  0.43320  0.88990  Biso   1.000  C
  H219     1.0000 0.91540  0.39450  0.83550  Biso   1.000  H
  C173     1.0000 0.84230  0.55710  0.04140  Biso   1.000  C
  C174     1.0000 0.83950  0.43450  0.89530  Biso   1.000  C
  C175     1.0000 0.89960  0.55250  0.04460  Biso   1.000  C
  H220     1.0000 0.91980  0.58990  0.09740  Biso   1.000  H
  C176     1.0000 0.92720  0.49080  0.96740  Biso   1.000  C
  O40      1.0000 0.00130  0.48700  0.82380  Biso   1.000  O
  C177     1.0000 0.11920  0.36410  0.37900  Biso   1.000  C
  N37      1.0000 0.12480  0.28180  0.31870  Biso   1.000  N
  N38      1.0000 0.15700  0.26760  0.51810  Biso   1.000  N
  C178     1.0000 0.14900  0.22200  0.40540  Biso   1.000  C
  C179     1.0000 0.13700  0.35490  0.50500  Biso   1.000  C
  N39      1.0000 0.87810  0.28340  0.25640  Biso   1.000  N
  C180     1.0000 0.87890  0.36780  0.30900  Biso   1.000  C
  C181     1.0000 0.85590  0.35920  0.43100  Biso   1.000  C
  N40      1.0000 0.83410  0.27470  0.44090  Biso   1.000  N
  C182     1.0000 0.82980  0.38240  0.35070  Biso   1.000  C
  C183     1.0000 0.17480  0.37540  0.40860  Biso   1.000  C
  C184     1.0000 0.81400  0.40650  0.49300  Biso   1.000  C
  C185     1.0000 0.85710  0.21570  0.34770  Biso   1.000  C
  C186     1.0000 0.05760  0.24200  0.14870  Biso   1.000  C
  C187     1.0000 0.95790  0.24500  0.12810  Biso   1.000  C
  C188     1.0000 0.11630  0.24000  0.19290  Biso   1.000  C
  C189     1.0000 0.00640  0.27630  0.18630  Biso   1.000  C
  C190     1.0000 0.20950  0.43400  0.50420  Biso   1.000  C
  C191     1.0000 0.22540  0.35380  0.31250  Biso   1.000  C
  H221     1.0000 0.88800  0.28940  0.06550  Biso   1.000  H
  H222     1.0000 0.88490  0.19270  0.11670  Biso   1.000  H
  H223     1.0000 0.04910  0.18020  0.13750  Biso   1.000  H
  H224     1.0000 0.06130  0.26510  0.06280  Biso   1.000  H
  H225     1.0000 0.96330  0.18140  0.13410  Biso   1.000  H
  H226     1.0000 0.96490  0.25830  0.03920  Biso   1.000  H
  H227     1.0000 0.13950  0.26890  0.13030  Biso   1.000  H
  H228     1.0000 0.12830  0.17870  0.19790  Biso   1.000  H
  H229     1.0000 0.00280  0.26660  0.27740  Biso   1.000  H
  H230     1.0000 0.00760  0.33940  0.17310  Biso   1.000  H
  H231     1.0000 0.10600  0.41550  0.34180  Biso   1.000  H
  H232     1.0000 0.13600  0.39770  0.56870  Biso   1.000  H
  H233     1.0000 0.89200  0.41910  0.27060  Biso   1.000  H
  H234     1.0000 0.85540  0.40230  0.49380  Biso   1.000  H
  H235     1.0000 0.85620  0.07440  0.31680  Biso   1.000  H
  H236     1.0000 0.78860  0.10400  0.17490  Biso   1.000  H
  H237     1.0000 0.74740  0.09740  0.29030  Biso   1.000  H
  H238     1.0000 0.77020  0.18940  0.24740  Biso   1.000  H
  H239     1.0000 0.80860  0.14670  0.54100  Biso   1.000  H
  H240     1.0000 0.78030  0.05960  0.49370  Biso   1.000  H
  H241     1.0000 0.84350  0.05980  0.53060  Biso   1.000  H
  H242     1.0000 0.14890  0.08560  0.36370  Biso   1.000  H
  H243     1.0000 0.21120  0.17540  0.23810  Biso   1.000  H
  H244     1.0000 0.25180  0.18380  0.35440  Biso   1.000  H
  H245     1.0000 0.24330  0.09240  0.28770  Biso   1.000  H
  H246     1.0000 0.21530  0.00890  0.46770  Biso   1.000  H
  H247     1.0000 0.24480  0.09360  0.51980  Biso   1.000  H
  H248     1.0000 0.18970  0.06050  0.58310  Biso   1.000  H
  C192     1.0000 0.77910  0.12800  0.25670  Biso   1.000  C
  Zn1      1.0000 0.71013  0.75000  0.10479  Biso   1.000  Zn
  Zn2      1.0000 0.29751  0.75000  0.17666  Biso   1.000  Zn
  C193     1.0000 0.59950  0.75000  0.63310  Biso   1.000  C
  Zn3      1.0000 0.78987  0.25000  0.60479  Biso   1.000  Zn
  Zn4      1.0000 0.20249  0.25000  0.67666  Biso   1.000  Zn
  C194     1.0000 0.90050  0.25000  0.13310  Biso   1.000  C
  Zn5      1.0000 0.28987  0.25000  0.89521  Biso   1.000  Zn
  Zn6      1.0000 0.70249  0.25000  0.82334  Biso   1.000  Zn
  C195     1.0000 0.40050  0.25000  0.36690  Biso   1.000  C
  Zn7      1.0000 0.21013  0.75000  0.39521  Biso   1.000  Zn
  Zn8      1.0000 0.79751  0.75000  0.32334  Biso   1.000  Zn
  C196     1.0000 0.09950  0.75000  0.86690  Biso   1.000  C
