data_image0
_cell_length_a       28.331
_cell_length_b       28.331
_cell_length_c       28.331
_cell_angle_alpha    90
_cell_angle_beta     90
_cell_angle_gamma    90

_symmetry_space_group_name_H-M    "P 1"
_symmetry_int_tables_number       1

loop_
  _symmetry_equiv_pos_as_xyz
  'x, y, z'

loop_
  _atom_site_label
  _atom_site_occupancy
  _atom_site_fract_x
  _atom_site_fract_y
  _atom_site_fract_z
  _atom_site_thermal_displace_type
  _atom_site_B_iso_or_equiv
  _atom_site_type_symbol
  H1       1.0000 0.58490  0.25970  0.71290  Biso   1.000  H
  H2       1.0000 0.59740  0.28350  0.76130  Biso   1.000  H
  H3       1.0000 0.61690  0.23310  0.74940  Biso   1.000  H
  H4       1.0000 0.41510  0.74030  0.71290  Biso   1.000  H
  H5       1.0000 0.40260  0.71650  0.76130  Biso   1.000  H
  H6       1.0000 0.38310  0.76690  0.74940  Biso   1.000  H
  H7       1.0000 0.41510  0.25970  0.28710  Biso   1.000  H
  H8       1.0000 0.40260  0.28350  0.23870  Biso   1.000  H
  H9       1.0000 0.38310  0.23310  0.25060  Biso   1.000  H
  H10      1.0000 0.58490  0.74030  0.28710  Biso   1.000  H
  H11      1.0000 0.59740  0.71650  0.23870  Biso   1.000  H
  H12      1.0000 0.61690  0.76690  0.25060  Biso   1.000  H
  H13      1.0000 0.71290  0.58490  0.25970  Biso   1.000  H
  H14      1.0000 0.76130  0.59740  0.28350  Biso   1.000  H
  H15      1.0000 0.74940  0.61690  0.23310  Biso   1.000  H
  H16      1.0000 0.71290  0.41510  0.74030  Biso   1.000  H
  H17      1.0000 0.76130  0.40260  0.71650  Biso   1.000  H
  H18      1.0000 0.74940  0.38310  0.76690  Biso   1.000  H
  H19      1.0000 0.28710  0.41510  0.25970  Biso   1.000  H
  H20      1.0000 0.23870  0.40260  0.28350  Biso   1.000  H
  H21      1.0000 0.25060  0.38310  0.23310  Biso   1.000  H
  H22      1.0000 0.28710  0.58490  0.74030  Biso   1.000  H
  H23      1.0000 0.23870  0.59740  0.71650  Biso   1.000  H
  H24      1.0000 0.25060  0.61690  0.76690  Biso   1.000  H
  H25      1.0000 0.25970  0.71290  0.58490  Biso   1.000  H
  H26      1.0000 0.28350  0.76130  0.59740  Biso   1.000  H
  H27      1.0000 0.23310  0.74940  0.61690  Biso   1.000  H
  H28      1.0000 0.74030  0.71290  0.41510  Biso   1.000  H
  H29      1.0000 0.71650  0.76130  0.40260  Biso   1.000  H
  H30      1.0000 0.76690  0.74940  0.38310  Biso   1.000  H
  H31      1.0000 0.25970  0.28710  0.41510  Biso   1.000  H
  H32      1.0000 0.28350  0.23870  0.40260  Biso   1.000  H
  H33      1.0000 0.23310  0.25060  0.38310  Biso   1.000  H
  H34      1.0000 0.74030  0.28710  0.58490  Biso   1.000  H
  H35      1.0000 0.71650  0.23870  0.59740  Biso   1.000  H
  H36      1.0000 0.76690  0.25060  0.61690  Biso   1.000  H
  H37      1.0000 0.25970  0.58490  0.28710  Biso   1.000  H
  H38      1.0000 0.28350  0.59740  0.23870  Biso   1.000  H
  H39      1.0000 0.23310  0.61690  0.25060  Biso   1.000  H
  H40      1.0000 0.74030  0.41510  0.28710  Biso   1.000  H
  H41      1.0000 0.71650  0.40260  0.23870  Biso   1.000  H
  H42      1.0000 0.76690  0.38310  0.25060  Biso   1.000  H
  H43      1.0000 0.25970  0.41510  0.71290  Biso   1.000  H
  H44      1.0000 0.28350  0.40260  0.76130  Biso   1.000  H
  H45      1.0000 0.23310  0.38310  0.74940  Biso   1.000  H
  H46      1.0000 0.74030  0.58490  0.71290  Biso   1.000  H
  H47      1.0000 0.71650  0.59740  0.76130  Biso   1.000  H
  H48      1.0000 0.76690  0.61690  0.74940  Biso   1.000  H
  H49      1.0000 0.58490  0.71290  0.74030  Biso   1.000  H
  H50      1.0000 0.59740  0.76130  0.71650  Biso   1.000  H
  H51      1.0000 0.61690  0.74940  0.76690  Biso   1.000  H
  H52      1.0000 0.41510  0.71290  0.25970  Biso   1.000  H
  H53      1.0000 0.40260  0.76130  0.28350  Biso   1.000  H
  H54      1.0000 0.38310  0.74940  0.23310  Biso   1.000  H
  H55      1.0000 0.41510  0.28710  0.74030  Biso   1.000  H
  H56      1.0000 0.40260  0.23870  0.71650  Biso   1.000  H
  H57      1.0000 0.38310  0.25060  0.76690  Biso   1.000  H
  H58      1.0000 0.58490  0.28710  0.25970  Biso   1.000  H
  H59      1.0000 0.59740  0.23870  0.28350  Biso   1.000  H
  H60      1.0000 0.61690  0.25060  0.23310  Biso   1.000  H
  H61      1.0000 0.71290  0.25970  0.41510  Biso   1.000  H
  H62      1.0000 0.76130  0.28350  0.40260  Biso   1.000  H
  H63      1.0000 0.74940  0.23310  0.38310  Biso   1.000  H
  H64      1.0000 0.71290  0.74030  0.58490  Biso   1.000  H
  H65      1.0000 0.76130  0.71650  0.59740  Biso   1.000  H
  H66      1.0000 0.74940  0.76690  0.61690  Biso   1.000  H
  H67      1.0000 0.28710  0.25970  0.58490  Biso   1.000  H
  H68      1.0000 0.23870  0.28350  0.59740  Biso   1.000  H
  H69      1.0000 0.25060  0.23310  0.61690  Biso   1.000  H
  H70      1.0000 0.28710  0.74030  0.41510  Biso   1.000  H
  H71      1.0000 0.23870  0.71650  0.40260  Biso   1.000  H
  H72      1.0000 0.25060  0.76690  0.38310  Biso   1.000  H
  H73      1.0000 0.41510  0.74030  0.28710  Biso   1.000  H
  H74      1.0000 0.40260  0.71650  0.23870  Biso   1.000  H
  H75      1.0000 0.38310  0.76690  0.25060  Biso   1.000  H
  H76      1.0000 0.58490  0.25970  0.28710  Biso   1.000  H
  H77      1.0000 0.59740  0.28350  0.23870  Biso   1.000  H
  H78      1.0000 0.61690  0.23310  0.25060  Biso   1.000  H
  H79      1.0000 0.58490  0.74030  0.71290  Biso   1.000  H
  H80      1.0000 0.59740  0.71650  0.76130  Biso   1.000  H
  H81      1.0000 0.61690  0.76690  0.74940  Biso   1.000  H
  H82      1.0000 0.41510  0.25970  0.71290  Biso   1.000  H
  H83      1.0000 0.40260  0.28350  0.76130  Biso   1.000  H
  H84      1.0000 0.38310  0.23310  0.74940  Biso   1.000  H
  H85      1.0000 0.28710  0.41510  0.74030  Biso   1.000  H
  H86      1.0000 0.23870  0.40260  0.71650  Biso   1.000  H
  H87      1.0000 0.25060  0.38310  0.76690  Biso   1.000  H
  H88      1.0000 0.28710  0.58490  0.25970  Biso   1.000  H
  H89      1.0000 0.23870  0.59740  0.28350  Biso   1.000  H
  H90      1.0000 0.25060  0.61690  0.23310  Biso   1.000  H
  H91      1.0000 0.71290  0.58490  0.74030  Biso   1.000  H
  H92      1.0000 0.76130  0.59740  0.71650  Biso   1.000  H
  H93      1.0000 0.74940  0.61690  0.76690  Biso   1.000  H
  H94      1.0000 0.71290  0.41510  0.25970  Biso   1.000  H
  H95      1.0000 0.76130  0.40260  0.28350  Biso   1.000  H
  H96      1.0000 0.74940  0.38310  0.23310  Biso   1.000  H
  H97      1.0000 0.74030  0.28710  0.41510  Biso   1.000  H
  H98      1.0000 0.71650  0.23870  0.40260  Biso   1.000  H
  H99      1.0000 0.76690  0.25060  0.38310  Biso   1.000  H
  H100     1.0000 0.25970  0.28710  0.58490  Biso   1.000  H
  H101     1.0000 0.28350  0.23870  0.59740  Biso   1.000  H
  H102     1.0000 0.23310  0.25060  0.61690  Biso   1.000  H
  H103     1.0000 0.74030  0.71290  0.58490  Biso   1.000  H
  H104     1.0000 0.71650  0.76130  0.59740  Biso   1.000  H
  H105     1.0000 0.76690  0.74940  0.61690  Biso   1.000  H
  H106     1.0000 0.25970  0.71290  0.41510  Biso   1.000  H
  H107     1.0000 0.28350  0.76130  0.40260  Biso   1.000  H
  H108     1.0000 0.23310  0.74940  0.38310  Biso   1.000  H
  H109     1.0000 0.74030  0.41510  0.71290  Biso   1.000  H
  H110     1.0000 0.71650  0.40260  0.76130  Biso   1.000  H
  H111     1.0000 0.76690  0.38310  0.74940  Biso   1.000  H
  H112     1.0000 0.25970  0.58490  0.71290  Biso   1.000  H
  H113     1.0000 0.28350  0.59740  0.76130  Biso   1.000  H
  H114     1.0000 0.23310  0.61690  0.74940  Biso   1.000  H
  H115     1.0000 0.74030  0.58490  0.28710  Biso   1.000  H
  H116     1.0000 0.71650  0.59740  0.23870  Biso   1.000  H
  H117     1.0000 0.76690  0.61690  0.25060  Biso   1.000  H
  H118     1.0000 0.25970  0.41510  0.28710  Biso   1.000  H
  H119     1.0000 0.28350  0.40260  0.23870  Biso   1.000  H
  H120     1.0000 0.23310  0.38310  0.25060  Biso   1.000  H
  H121     1.0000 0.41510  0.28710  0.25970  Biso   1.000  H
  H122     1.0000 0.40260  0.23870  0.28350  Biso   1.000  H
  H123     1.0000 0.38310  0.25060  0.23310  Biso   1.000  H
  H124     1.0000 0.58490  0.28710  0.74030  Biso   1.000  H
  H125     1.0000 0.59740  0.23870  0.71650  Biso   1.000  H
  H126     1.0000 0.61690  0.25060  0.76690  Biso   1.000  H
  H127     1.0000 0.58490  0.71290  0.25970  Biso   1.000  H
  H128     1.0000 0.59740  0.76130  0.28350  Biso   1.000  H
  H129     1.0000 0.61690  0.74940  0.23310  Biso   1.000  H
  H130     1.0000 0.41510  0.71290  0.74030  Biso   1.000  H
  H131     1.0000 0.40260  0.76130  0.71650  Biso   1.000  H
  H132     1.0000 0.38310  0.74940  0.76690  Biso   1.000  H
  H133     1.0000 0.28710  0.74030  0.58490  Biso   1.000  H
  H134     1.0000 0.23870  0.71650  0.59740  Biso   1.000  H
  H135     1.0000 0.25060  0.76690  0.61690  Biso   1.000  H
  H136     1.0000 0.28710  0.25970  0.41510  Biso   1.000  H
  H137     1.0000 0.23870  0.28350  0.40260  Biso   1.000  H
  H138     1.0000 0.25060  0.23310  0.38310  Biso   1.000  H
  H139     1.0000 0.71290  0.74030  0.41510  Biso   1.000  H
  H140     1.0000 0.76130  0.71650  0.40260  Biso   1.000  H
  H141     1.0000 0.74940  0.76690  0.38310  Biso   1.000  H
  H142     1.0000 0.71290  0.25970  0.58490  Biso   1.000  H
  H143     1.0000 0.76130  0.28350  0.59740  Biso   1.000  H
  H144     1.0000 0.74940  0.23310  0.61690  Biso   1.000  H
  Zr1      1.0000 0.50000  0.08700  0.50000  Biso   1.000  Zr
  Zr2      1.0000 0.50000  0.91300  0.50000  Biso   1.000  Zr
  Zr3      1.0000 0.50000  0.50000  0.08700  Biso   1.000  Zr
  Zr4      1.0000 0.50000  0.50000  0.91300  Biso   1.000  Zr
  Zr5      1.0000 0.08700  0.50000  0.50000  Biso   1.000  Zr
  Zr6      1.0000 0.91300  0.50000  0.50000  Biso   1.000  Zr
  Zr7      1.0000 0.43748  0.00000  0.43748  Biso   1.000  Zr
  Zr8      1.0000 0.56252  0.00000  0.43748  Biso   1.000  Zr
  Zr9      1.0000 0.56252  0.00000  0.56252  Biso   1.000  Zr
  Zr10     1.0000 0.43748  0.00000  0.56252  Biso   1.000  Zr
  Zr11     1.0000 0.43748  0.43748  0.00000  Biso   1.000  Zr
  Zr12     1.0000 0.43748  0.56252  0.00000  Biso   1.000  Zr
  Zr13     1.0000 0.56252  0.56252  0.00000  Biso   1.000  Zr
  Zr14     1.0000 0.56252  0.43748  0.00000  Biso   1.000  Zr
  Zr15     1.0000 0.00000  0.43748  0.43748  Biso   1.000  Zr
  Zr16     1.0000 0.00000  0.43748  0.56252  Biso   1.000  Zr
  Zr17     1.0000 0.00000  0.56252  0.56252  Biso   1.000  Zr
  Zr18     1.0000 0.00000  0.56252  0.43748  Biso   1.000  Zr
  O1       1.0000 0.54624  0.12670  0.54624  Biso   1.000  O
  O2       1.0000 0.58738  0.07120  0.58738  Biso   1.000  O
  C1       1.0000 0.57650  0.11500  0.57650  Biso   1.000  C
  C2       1.0000 0.60330  0.15120  0.60330  Biso   1.000  C
  C3       1.0000 0.59350  0.19840  0.59350  Biso   1.000  C
  H145     1.0000 0.57090  0.20580  0.57090  Biso   1.000  H
  C4       1.0000 0.61710  0.23510  0.61710  Biso   1.000  C
  H146     1.0000 0.60950  0.26610  0.60950  Biso   1.000  H
  C5       1.0000 0.65080  0.22740  0.65080  Biso   1.000  C
  C6       1.0000 0.65990  0.18120  0.65990  Biso   1.000  C
  H147     1.0000 0.68250  0.17390  0.68250  Biso   1.000  H
  C7       1.0000 0.63740  0.14450  0.63740  Biso   1.000  C
  H148     1.0000 0.64560  0.11380  0.64560  Biso   1.000  H
  C8       1.0000 0.67340  0.26670  0.67340  Biso   1.000  C
  O3       1.0000 0.45376  0.87330  0.54624  Biso   1.000  O
  O4       1.0000 0.41262  0.92880  0.58738  Biso   1.000  O
  C9       1.0000 0.42350  0.88500  0.57650  Biso   1.000  C
  C10      1.0000 0.39670  0.84880  0.60330  Biso   1.000  C
  C11      1.0000 0.40650  0.80160  0.59350  Biso   1.000  C
  H149     1.0000 0.42910  0.79420  0.57090  Biso   1.000  H
  C12      1.0000 0.38290  0.76490  0.61710  Biso   1.000  C
  H150     1.0000 0.39050  0.73390  0.60950  Biso   1.000  H
  C13      1.0000 0.34920  0.77260  0.65080  Biso   1.000  C
  C14      1.0000 0.34010  0.81880  0.65990  Biso   1.000  C
  H151     1.0000 0.31750  0.82610  0.68250  Biso   1.000  H
  C15      1.0000 0.36260  0.85550  0.63740  Biso   1.000  C
  H152     1.0000 0.35440  0.88620  0.64560  Biso   1.000  H
  C16      1.0000 0.32660  0.73330  0.67340  Biso   1.000  C
  O5       1.0000 0.45376  0.12670  0.45376  Biso   1.000  O
  O6       1.0000 0.41262  0.07120  0.41262  Biso   1.000  O
  C17      1.0000 0.42350  0.11500  0.42350  Biso   1.000  C
  C18      1.0000 0.39670  0.15120  0.39670  Biso   1.000  C
  C19      1.0000 0.40650  0.19840  0.40650  Biso   1.000  C
  H153     1.0000 0.42910  0.20580  0.42910  Biso   1.000  H
  C20      1.0000 0.38290  0.23510  0.38290  Biso   1.000  C
  H154     1.0000 0.39050  0.26610  0.39050  Biso   1.000  H
  C21      1.0000 0.34920  0.22740  0.34920  Biso   1.000  C
  C22      1.0000 0.34010  0.18120  0.34010  Biso   1.000  C
  H155     1.0000 0.31750  0.17390  0.31750  Biso   1.000  H
  C23      1.0000 0.36260  0.14450  0.36260  Biso   1.000  C
  H156     1.0000 0.35440  0.11380  0.35440  Biso   1.000  H
  C24      1.0000 0.32660  0.26670  0.32660  Biso   1.000  C
  O7       1.0000 0.54624  0.87330  0.45376  Biso   1.000  O
  O8       1.0000 0.58738  0.92880  0.41262  Biso   1.000  O
  C25      1.0000 0.57650  0.88500  0.42350  Biso   1.000  C
  C26      1.0000 0.60330  0.84880  0.39670  Biso   1.000  C
  C27      1.0000 0.59350  0.80160  0.40650  Biso   1.000  C
  H157     1.0000 0.57090  0.79420  0.42910  Biso   1.000  H
  C28      1.0000 0.61710  0.76490  0.38290  Biso   1.000  C
  H158     1.0000 0.60950  0.73390  0.39050  Biso   1.000  H
  C29      1.0000 0.65080  0.77260  0.34920  Biso   1.000  C
  C30      1.0000 0.65990  0.81880  0.34010  Biso   1.000  C
  H159     1.0000 0.68250  0.82610  0.31750  Biso   1.000  H
  C31      1.0000 0.63740  0.85550  0.36260  Biso   1.000  C
  H160     1.0000 0.64560  0.88620  0.35440  Biso   1.000  H
  C32      1.0000 0.67340  0.73330  0.32660  Biso   1.000  C
  O9       1.0000 0.54624  0.54624  0.12670  Biso   1.000  O
  O10      1.0000 0.58738  0.58738  0.07120  Biso   1.000  O
  C33      1.0000 0.57650  0.57650  0.11500  Biso   1.000  C
  C34      1.0000 0.60330  0.60330  0.15120  Biso   1.000  C
  C35      1.0000 0.59350  0.59350  0.19840  Biso   1.000  C
  H161     1.0000 0.57090  0.57090  0.20580  Biso   1.000  H
  C36      1.0000 0.61710  0.61710  0.23510  Biso   1.000  C
  H162     1.0000 0.60950  0.60950  0.26610  Biso   1.000  H
  C37      1.0000 0.65080  0.65080  0.22740  Biso   1.000  C
  C38      1.0000 0.65990  0.65990  0.18120  Biso   1.000  C
  H163     1.0000 0.68250  0.68250  0.17390  Biso   1.000  H
  C39      1.0000 0.63740  0.63740  0.14450  Biso   1.000  C
  H164     1.0000 0.64560  0.64560  0.11380  Biso   1.000  H
  C40      1.0000 0.67340  0.67340  0.26670  Biso   1.000  C
  O11      1.0000 0.54624  0.45376  0.87330  Biso   1.000  O
  O12      1.0000 0.58738  0.41262  0.92880  Biso   1.000  O
  C41      1.0000 0.57650  0.42350  0.88500  Biso   1.000  C
  C42      1.0000 0.60330  0.39670  0.84880  Biso   1.000  C
  C43      1.0000 0.59350  0.40650  0.80160  Biso   1.000  C
  H165     1.0000 0.57090  0.42910  0.79420  Biso   1.000  H
  C44      1.0000 0.61710  0.38290  0.76490  Biso   1.000  C
  H166     1.0000 0.60950  0.39050  0.73390  Biso   1.000  H
  C45      1.0000 0.65080  0.34920  0.77260  Biso   1.000  C
  C46      1.0000 0.65990  0.34010  0.81880  Biso   1.000  C
  H167     1.0000 0.68250  0.31750  0.82610  Biso   1.000  H
  C47      1.0000 0.63740  0.36260  0.85550  Biso   1.000  C
  H168     1.0000 0.64560  0.35440  0.88620  Biso   1.000  H
  C48      1.0000 0.67340  0.32660  0.73330  Biso   1.000  C
  O13      1.0000 0.45376  0.45376  0.12670  Biso   1.000  O
  O14      1.0000 0.41262  0.41262  0.07120  Biso   1.000  O
  C49      1.0000 0.42350  0.42350  0.11500  Biso   1.000  C
  C50      1.0000 0.39670  0.39670  0.15120  Biso   1.000  C
  C51      1.0000 0.40650  0.40650  0.19840  Biso   1.000  C
  H169     1.0000 0.42910  0.42910  0.20580  Biso   1.000  H
  C52      1.0000 0.38290  0.38290  0.23510  Biso   1.000  C
  H170     1.0000 0.39050  0.39050  0.26610  Biso   1.000  H
  C53      1.0000 0.34920  0.34920  0.22740  Biso   1.000  C
  C54      1.0000 0.34010  0.34010  0.18120  Biso   1.000  C
  H171     1.0000 0.31750  0.31750  0.17390  Biso   1.000  H
  C55      1.0000 0.36260  0.36260  0.14450  Biso   1.000  C
  H172     1.0000 0.35440  0.35440  0.11380  Biso   1.000  H
  C56      1.0000 0.32660  0.32660  0.26670  Biso   1.000  C
  O15      1.0000 0.45376  0.54624  0.87330  Biso   1.000  O
  O16      1.0000 0.41262  0.58738  0.92880  Biso   1.000  O
  C57      1.0000 0.42350  0.57650  0.88500  Biso   1.000  C
  C58      1.0000 0.39670  0.60330  0.84880  Biso   1.000  C
  C59      1.0000 0.40650  0.59350  0.80160  Biso   1.000  C
  H173     1.0000 0.42910  0.57090  0.79420  Biso   1.000  H
  C60      1.0000 0.38290  0.61710  0.76490  Biso   1.000  C
  H174     1.0000 0.39050  0.60950  0.73390  Biso   1.000  H
  C61      1.0000 0.34920  0.65080  0.77260  Biso   1.000  C
  C62      1.0000 0.34010  0.65990  0.81880  Biso   1.000  C
  H175     1.0000 0.31750  0.68250  0.82610  Biso   1.000  H
  C63      1.0000 0.36260  0.63740  0.85550  Biso   1.000  C
  H176     1.0000 0.35440  0.64560  0.88620  Biso   1.000  H
  C64      1.0000 0.32660  0.67340  0.73330  Biso   1.000  C
  O17      1.0000 0.12670  0.54624  0.54624  Biso   1.000  O
  O18      1.0000 0.07120  0.58738  0.58738  Biso   1.000  O
  C65      1.0000 0.11500  0.57650  0.57650  Biso   1.000  C
  C66      1.0000 0.15120  0.60330  0.60330  Biso   1.000  C
  C67      1.0000 0.19840  0.59350  0.59350  Biso   1.000  C
  H177     1.0000 0.20580  0.57090  0.57090  Biso   1.000  H
  C68      1.0000 0.23510  0.61710  0.61710  Biso   1.000  C
  H178     1.0000 0.26610  0.60950  0.60950  Biso   1.000  H
  C69      1.0000 0.22740  0.65080  0.65080  Biso   1.000  C
  C70      1.0000 0.18120  0.65990  0.65990  Biso   1.000  C
  H179     1.0000 0.17390  0.68250  0.68250  Biso   1.000  H
  C71      1.0000 0.14450  0.63740  0.63740  Biso   1.000  C
  H180     1.0000 0.11380  0.64560  0.64560  Biso   1.000  H
  C72      1.0000 0.26670  0.67340  0.67340  Biso   1.000  C
  O19      1.0000 0.87330  0.54624  0.45376  Biso   1.000  O
  O20      1.0000 0.92880  0.58738  0.41262  Biso   1.000  O
  C73      1.0000 0.88500  0.57650  0.42350  Biso   1.000  C
  C74      1.0000 0.84880  0.60330  0.39670  Biso   1.000  C
  C75      1.0000 0.80160  0.59350  0.40650  Biso   1.000  C
  H181     1.0000 0.79420  0.57090  0.42910  Biso   1.000  H
  C76      1.0000 0.76490  0.61710  0.38290  Biso   1.000  C
  H182     1.0000 0.73390  0.60950  0.39050  Biso   1.000  H
  C77      1.0000 0.77260  0.65080  0.34920  Biso   1.000  C
  C78      1.0000 0.81880  0.65990  0.34010  Biso   1.000  C
  H183     1.0000 0.82610  0.68250  0.31750  Biso   1.000  H
  C79      1.0000 0.85550  0.63740  0.36260  Biso   1.000  C
  H184     1.0000 0.88620  0.64560  0.35440  Biso   1.000  H
  C80      1.0000 0.73330  0.67340  0.32660  Biso   1.000  C
  O21      1.0000 0.12670  0.45376  0.45376  Biso   1.000  O
  O22      1.0000 0.07120  0.41262  0.41262  Biso   1.000  O
  C81      1.0000 0.11500  0.42350  0.42350  Biso   1.000  C
  C82      1.0000 0.15120  0.39670  0.39670  Biso   1.000  C
  C83      1.0000 0.19840  0.40650  0.40650  Biso   1.000  C
  H185     1.0000 0.20580  0.42910  0.42910  Biso   1.000  H
  C84      1.0000 0.23510  0.38290  0.38290  Biso   1.000  C
  H186     1.0000 0.26610  0.39050  0.39050  Biso   1.000  H
  C85      1.0000 0.22740  0.34920  0.34920  Biso   1.000  C
  C86      1.0000 0.18120  0.34010  0.34010  Biso   1.000  C
  H187     1.0000 0.17390  0.31750  0.31750  Biso   1.000  H
  C87      1.0000 0.14450  0.36260  0.36260  Biso   1.000  C
  H188     1.0000 0.11380  0.35440  0.35440  Biso   1.000  H
  C88      1.0000 0.26670  0.32660  0.32660  Biso   1.000  C
  O23      1.0000 0.87330  0.45376  0.54624  Biso   1.000  O
  O24      1.0000 0.92880  0.41262  0.58738  Biso   1.000  O
  C89      1.0000 0.88500  0.42350  0.57650  Biso   1.000  C
  C90      1.0000 0.84880  0.39670  0.60330  Biso   1.000  C
  C91      1.0000 0.80160  0.40650  0.59350  Biso   1.000  C
  H189     1.0000 0.79420  0.42910  0.57090  Biso   1.000  H
  C92      1.0000 0.76490  0.38290  0.61710  Biso   1.000  C
  H190     1.0000 0.73390  0.39050  0.60950  Biso   1.000  H
  C93      1.0000 0.77260  0.34920  0.65080  Biso   1.000  C
  C94      1.0000 0.81880  0.34010  0.65990  Biso   1.000  C
  H191     1.0000 0.82610  0.31750  0.68250  Biso   1.000  H
  C95      1.0000 0.85550  0.36260  0.63740  Biso   1.000  C
  H192     1.0000 0.88620  0.35440  0.64560  Biso   1.000  H
  C96      1.0000 0.73330  0.32660  0.67340  Biso   1.000  C
  O25      1.0000 0.12670  0.54624  0.45376  Biso   1.000  O
  O26      1.0000 0.07120  0.58738  0.41262  Biso   1.000  O
  C97      1.0000 0.11500  0.57650  0.42350  Biso   1.000  C
  C98      1.0000 0.15120  0.60330  0.39670  Biso   1.000  C
  C99      1.0000 0.19840  0.59350  0.40650  Biso   1.000  C
  H193     1.0000 0.20580  0.57090  0.42910  Biso   1.000  H
  C100     1.0000 0.23510  0.61710  0.38290  Biso   1.000  C
  H194     1.0000 0.26610  0.60950  0.39050  Biso   1.000  H
  C101     1.0000 0.22740  0.65080  0.34920  Biso   1.000  C
  C102     1.0000 0.18120  0.65990  0.34010  Biso   1.000  C
  H195     1.0000 0.17390  0.68250  0.31750  Biso   1.000  H
  C103     1.0000 0.14450  0.63740  0.36260  Biso   1.000  C
  H196     1.0000 0.11380  0.64560  0.35440  Biso   1.000  H
  C104     1.0000 0.26670  0.67340  0.32660  Biso   1.000  C
  O27      1.0000 0.87330  0.45376  0.45376  Biso   1.000  O
  O28      1.0000 0.92880  0.41262  0.41262  Biso   1.000  O
  C105     1.0000 0.88500  0.42350  0.42350  Biso   1.000  C
  C106     1.0000 0.84880  0.39670  0.39670  Biso   1.000  C
  C107     1.0000 0.80160  0.40650  0.40650  Biso   1.000  C
  H197     1.0000 0.79420  0.42910  0.42910  Biso   1.000  H
  C108     1.0000 0.76490  0.38290  0.38290  Biso   1.000  C
  H198     1.0000 0.73390  0.39050  0.39050  Biso   1.000  H
  C109     1.0000 0.77260  0.34920  0.34920  Biso   1.000  C
  C110     1.0000 0.81880  0.34010  0.34010  Biso   1.000  C
  H199     1.0000 0.82610  0.31750  0.31750  Biso   1.000  H
  C111     1.0000 0.85550  0.36260  0.36260  Biso   1.000  C
  H200     1.0000 0.88620  0.35440  0.35440  Biso   1.000  H
  C112     1.0000 0.73330  0.32660  0.32660  Biso   1.000  C
  O29      1.0000 0.12670  0.45376  0.54624  Biso   1.000  O
  O30      1.0000 0.07120  0.41262  0.58738  Biso   1.000  O
  C113     1.0000 0.11500  0.42350  0.57650  Biso   1.000  C
  C114     1.0000 0.15120  0.39670  0.60330  Biso   1.000  C
  C115     1.0000 0.19840  0.40650  0.59350  Biso   1.000  C
  H201     1.0000 0.20580  0.42910  0.57090  Biso   1.000  H
  C116     1.0000 0.23510  0.38290  0.61710  Biso   1.000  C
  H202     1.0000 0.26610  0.39050  0.60950  Biso   1.000  H
  C117     1.0000 0.22740  0.34920  0.65080  Biso   1.000  C
  C118     1.0000 0.18120  0.34010  0.65990  Biso   1.000  C
  H203     1.0000 0.17390  0.31750  0.68250  Biso   1.000  H
  C119     1.0000 0.14450  0.36260  0.63740  Biso   1.000  C
  H204     1.0000 0.11380  0.35440  0.64560  Biso   1.000  H
  C120     1.0000 0.26670  0.32660  0.67340  Biso   1.000  C
  O31      1.0000 0.87330  0.54624  0.54624  Biso   1.000  O
  O32      1.0000 0.92880  0.58738  0.58738  Biso   1.000  O
  C121     1.0000 0.88500  0.57650  0.57650  Biso   1.000  C
  C122     1.0000 0.84880  0.60330  0.60330  Biso   1.000  C
  C123     1.0000 0.80160  0.59350  0.59350  Biso   1.000  C
  H205     1.0000 0.79420  0.57090  0.57090  Biso   1.000  H
  C124     1.0000 0.76490  0.61710  0.61710  Biso   1.000  C
  H206     1.0000 0.73390  0.60950  0.60950  Biso   1.000  H
  C125     1.0000 0.77260  0.65080  0.65080  Biso   1.000  C
  C126     1.0000 0.81880  0.65990  0.65990  Biso   1.000  C
  H207     1.0000 0.82610  0.68250  0.68250  Biso   1.000  H
  C127     1.0000 0.85550  0.63740  0.63740  Biso   1.000  C
  H208     1.0000 0.88620  0.64560  0.64560  Biso   1.000  H
  C128     1.0000 0.73330  0.67340  0.67340  Biso   1.000  C
  O33      1.0000 0.54624  0.54624  0.87330  Biso   1.000  O
  O34      1.0000 0.58738  0.58738  0.92880  Biso   1.000  O
  C129     1.0000 0.57650  0.57650  0.88500  Biso   1.000  C
  C130     1.0000 0.60330  0.60330  0.84880  Biso   1.000  C
  C131     1.0000 0.59350  0.59350  0.80160  Biso   1.000  C
  H209     1.0000 0.57090  0.57090  0.79420  Biso   1.000  H
  C132     1.0000 0.61710  0.61710  0.76490  Biso   1.000  C
  H210     1.0000 0.60950  0.60950  0.73390  Biso   1.000  H
  C133     1.0000 0.65080  0.65080  0.77260  Biso   1.000  C
  C134     1.0000 0.65990  0.65990  0.81880  Biso   1.000  C
  H211     1.0000 0.68250  0.68250  0.82610  Biso   1.000  H
  C135     1.0000 0.63740  0.63740  0.85550  Biso   1.000  C
  H212     1.0000 0.64560  0.64560  0.88620  Biso   1.000  H
  C136     1.0000 0.67340  0.67340  0.73330  Biso   1.000  C
  O35      1.0000 0.45376  0.54624  0.12670  Biso   1.000  O
  O36      1.0000 0.41262  0.58738  0.07120  Biso   1.000  O
  C137     1.0000 0.42350  0.57650  0.11500  Biso   1.000  C
  C138     1.0000 0.39670  0.60330  0.15120  Biso   1.000  C
  C139     1.0000 0.40650  0.59350  0.19840  Biso   1.000  C
  H213     1.0000 0.42910  0.57090  0.20580  Biso   1.000  H
  C140     1.0000 0.38290  0.61710  0.23510  Biso   1.000  C
  H214     1.0000 0.39050  0.60950  0.26610  Biso   1.000  H
  C141     1.0000 0.34920  0.65080  0.22740  Biso   1.000  C
  C142     1.0000 0.34010  0.65990  0.18120  Biso   1.000  C
  H215     1.0000 0.31750  0.68250  0.17390  Biso   1.000  H
  C143     1.0000 0.36260  0.63740  0.14450  Biso   1.000  C
  H216     1.0000 0.35440  0.64560  0.11380  Biso   1.000  H
  C144     1.0000 0.32660  0.67340  0.26670  Biso   1.000  C
  O37      1.0000 0.45376  0.45376  0.87330  Biso   1.000  O
  O38      1.0000 0.41262  0.41262  0.92880  Biso   1.000  O
  C145     1.0000 0.42350  0.42350  0.88500  Biso   1.000  C
  C146     1.0000 0.39670  0.39670  0.84880  Biso   1.000  C
  C147     1.0000 0.40650  0.40650  0.80160  Biso   1.000  C
  H217     1.0000 0.42910  0.42910  0.79420  Biso   1.000  H
  C148     1.0000 0.38290  0.38290  0.76490  Biso   1.000  C
  H218     1.0000 0.39050  0.39050  0.73390  Biso   1.000  H
  C149     1.0000 0.34920  0.34920  0.77260  Biso   1.000  C
  C150     1.0000 0.34010  0.34010  0.81880  Biso   1.000  C
  H219     1.0000 0.31750  0.31750  0.82610  Biso   1.000  H
  C151     1.0000 0.36260  0.36260  0.85550  Biso   1.000  C
  H220     1.0000 0.35440  0.35440  0.88620  Biso   1.000  H
  C152     1.0000 0.32660  0.32660  0.73330  Biso   1.000  C
  O39      1.0000 0.54624  0.45376  0.12670  Biso   1.000  O
  O40      1.0000 0.58738  0.41262  0.07120  Biso   1.000  O
  C153     1.0000 0.57650  0.42350  0.11500  Biso   1.000  C
  C154     1.0000 0.60330  0.39670  0.15120  Biso   1.000  C
  C155     1.0000 0.59350  0.40650  0.19840  Biso   1.000  C
  H221     1.0000 0.57090  0.42910  0.20580  Biso   1.000  H
  C156     1.0000 0.61710  0.38290  0.23510  Biso   1.000  C
  H222     1.0000 0.60950  0.39050  0.26610  Biso   1.000  H
  C157     1.0000 0.65080  0.34920  0.22740  Biso   1.000  C
  C158     1.0000 0.65990  0.34010  0.18120  Biso   1.000  C
  H223     1.0000 0.68250  0.31750  0.17390  Biso   1.000  H
  C159     1.0000 0.63740  0.36260  0.14450  Biso   1.000  C
  H224     1.0000 0.64560  0.35440  0.11380  Biso   1.000  H
  C160     1.0000 0.67340  0.32660  0.26670  Biso   1.000  C
  O41      1.0000 0.54624  0.12670  0.45376  Biso   1.000  O
  O42      1.0000 0.58738  0.07120  0.41262  Biso   1.000  O
  C161     1.0000 0.57650  0.11500  0.42350  Biso   1.000  C
  C162     1.0000 0.60330  0.15120  0.39670  Biso   1.000  C
  C163     1.0000 0.59350  0.19840  0.40650  Biso   1.000  C
  H225     1.0000 0.57090  0.20580  0.42910  Biso   1.000  H
  C164     1.0000 0.61710  0.23510  0.38290  Biso   1.000  C
  H226     1.0000 0.60950  0.26610  0.39050  Biso   1.000  H
  C165     1.0000 0.65080  0.22740  0.34920  Biso   1.000  C
  C166     1.0000 0.65990  0.18120  0.34010  Biso   1.000  C
  H227     1.0000 0.68250  0.17390  0.31750  Biso   1.000  H
  C167     1.0000 0.63740  0.14450  0.36260  Biso   1.000  C
  H228     1.0000 0.64560  0.11380  0.35440  Biso   1.000  H
  C168     1.0000 0.67340  0.26670  0.32660  Biso   1.000  C
  O43      1.0000 0.54624  0.87330  0.54624  Biso   1.000  O
  O44      1.0000 0.58738  0.92880  0.58738  Biso   1.000  O
  C169     1.0000 0.57650  0.88500  0.57650  Biso   1.000  C
  C170     1.0000 0.60330  0.84880  0.60330  Biso   1.000  C
  C171     1.0000 0.59350  0.80160  0.59350  Biso   1.000  C
  H229     1.0000 0.57090  0.79420  0.57090  Biso   1.000  H
  C172     1.0000 0.61710  0.76490  0.61710  Biso   1.000  C
  H230     1.0000 0.60950  0.73390  0.60950  Biso   1.000  H
  C173     1.0000 0.65080  0.77260  0.65080  Biso   1.000  C
  C174     1.0000 0.65990  0.81880  0.65990  Biso   1.000  C
  H231     1.0000 0.68250  0.82610  0.68250  Biso   1.000  H
  C175     1.0000 0.63740  0.85550  0.63740  Biso   1.000  C
  H232     1.0000 0.64560  0.88620  0.64560  Biso   1.000  H
  C176     1.0000 0.67340  0.73330  0.67340  Biso   1.000  C
  O45      1.0000 0.45376  0.12670  0.54624  Biso   1.000  O
  O46      1.0000 0.41262  0.07120  0.58738  Biso   1.000  O
  C177     1.0000 0.42350  0.11500  0.57650  Biso   1.000  C
  C178     1.0000 0.39670  0.15120  0.60330  Biso   1.000  C
  C179     1.0000 0.40650  0.19840  0.59350  Biso   1.000  C
  H233     1.0000 0.42910  0.20580  0.57090  Biso   1.000  H
  C180     1.0000 0.38290  0.23510  0.61710  Biso   1.000  C
  H234     1.0000 0.39050  0.26610  0.60950  Biso   1.000  H
  C181     1.0000 0.34920  0.22740  0.65080  Biso   1.000  C
  C182     1.0000 0.34010  0.18120  0.65990  Biso   1.000  C
  H235     1.0000 0.31750  0.17390  0.68250  Biso   1.000  H
  C183     1.0000 0.36260  0.14450  0.63740  Biso   1.000  C
  H236     1.0000 0.35440  0.11380  0.64560  Biso   1.000  H
  C184     1.0000 0.32660  0.26670  0.67340  Biso   1.000  C
  O47      1.0000 0.45376  0.87330  0.45376  Biso   1.000  O
  O48      1.0000 0.41262  0.92880  0.41262  Biso   1.000  O
  C185     1.0000 0.42350  0.88500  0.42350  Biso   1.000  C
  C186     1.0000 0.39670  0.84880  0.39670  Biso   1.000  C
  C187     1.0000 0.40650  0.80160  0.40650  Biso   1.000  C
  H237     1.0000 0.42910  0.79420  0.42910  Biso   1.000  H
  C188     1.0000 0.38290  0.76490  0.38290  Biso   1.000  C
  H238     1.0000 0.39050  0.73390  0.39050  Biso   1.000  H
  C189     1.0000 0.34920  0.77260  0.34920  Biso   1.000  C
  C190     1.0000 0.34010  0.81880  0.34010  Biso   1.000  C
  H239     1.0000 0.31750  0.82610  0.31750  Biso   1.000  H
  C191     1.0000 0.36260  0.85550  0.36260  Biso   1.000  C
  H240     1.0000 0.35440  0.88620  0.35440  Biso   1.000  H
  C192     1.0000 0.32660  0.73330  0.32660  Biso   1.000  C
  O49      1.0000 0.43710  0.04329  0.50000  Biso   1.000  O
  O50      1.0000 0.56290  0.95671  0.50000  Biso   1.000  O
  O51      1.0000 0.56290  0.04329  0.50000  Biso   1.000  O
  O52      1.0000 0.43710  0.95671  0.50000  Biso   1.000  O
  O53      1.0000 0.50000  0.43710  0.04329  Biso   1.000  O
  O54      1.0000 0.50000  0.56290  0.95671  Biso   1.000  O
  O55      1.0000 0.50000  0.56290  0.04329  Biso   1.000  O
  O56      1.0000 0.50000  0.43710  0.95671  Biso   1.000  O
  O57      1.0000 0.04329  0.50000  0.43710  Biso   1.000  O
  O58      1.0000 0.95671  0.50000  0.56290  Biso   1.000  O
  O59      1.0000 0.04329  0.50000  0.56290  Biso   1.000  O
  O60      1.0000 0.95671  0.50000  0.43710  Biso   1.000  O
  O61      1.0000 0.04329  0.43710  0.50000  Biso   1.000  O
  O62      1.0000 0.95671  0.56290  0.50000  Biso   1.000  O
  O63      1.0000 0.04329  0.56290  0.50000  Biso   1.000  O
  O64      1.0000 0.95671  0.43710  0.50000  Biso   1.000  O
  O65      1.0000 0.43710  0.50000  0.95671  Biso   1.000  O
  O66      1.0000 0.56290  0.50000  0.04329  Biso   1.000  O
  O67      1.0000 0.56290  0.50000  0.95671  Biso   1.000  O
  O68      1.0000 0.43710  0.50000  0.04329  Biso   1.000  O
  O69      1.0000 0.50000  0.04329  0.56290  Biso   1.000  O
  O70      1.0000 0.50000  0.95671  0.43710  Biso   1.000  O
  O71      1.0000 0.50000  0.04329  0.43710  Biso   1.000  O
  O72      1.0000 0.50000  0.95671  0.56290  Biso   1.000  O
  C193     1.0000 0.65340  0.28600  0.71400  Biso   1.000  C
  C194     1.0000 0.60890  0.26340  0.73660  Biso   1.000  C
  C195     1.0000 0.34660  0.71400  0.71400  Biso   1.000  C
  C196     1.0000 0.39110  0.73660  0.73660  Biso   1.000  C
  C197     1.0000 0.34660  0.28600  0.28600  Biso   1.000  C
  C198     1.0000 0.39110  0.26340  0.26340  Biso   1.000  C
  C199     1.0000 0.65340  0.71400  0.28600  Biso   1.000  C
  C200     1.0000 0.60890  0.73660  0.26340  Biso   1.000  C
  C201     1.0000 0.71400  0.65340  0.28600  Biso   1.000  C
  C202     1.0000 0.73660  0.60890  0.26340  Biso   1.000  C
  C203     1.0000 0.71400  0.34660  0.71400  Biso   1.000  C
  C204     1.0000 0.73660  0.39110  0.73660  Biso   1.000  C
  C205     1.0000 0.28600  0.34660  0.28600  Biso   1.000  C
  C206     1.0000 0.26340  0.39110  0.26340  Biso   1.000  C
  C207     1.0000 0.28600  0.65340  0.71400  Biso   1.000  C
  C208     1.0000 0.26340  0.60890  0.73660  Biso   1.000  C
  C209     1.0000 0.28600  0.71400  0.65340  Biso   1.000  C
  C210     1.0000 0.26340  0.73660  0.60890  Biso   1.000  C
  C211     1.0000 0.71400  0.71400  0.34660  Biso   1.000  C
  C212     1.0000 0.73660  0.73660  0.39110  Biso   1.000  C
  C213     1.0000 0.28600  0.28600  0.34660  Biso   1.000  C
  C214     1.0000 0.26340  0.26340  0.39110  Biso   1.000  C
  C215     1.0000 0.71400  0.28600  0.65340  Biso   1.000  C
  C216     1.0000 0.73660  0.26340  0.60890  Biso   1.000  C
  C217     1.0000 0.28600  0.65340  0.28600  Biso   1.000  C
  C218     1.0000 0.26340  0.60890  0.26340  Biso   1.000  C
  C219     1.0000 0.71400  0.34660  0.28600  Biso   1.000  C
  C220     1.0000 0.73660  0.39110  0.26340  Biso   1.000  C
  C221     1.0000 0.28600  0.34660  0.71400  Biso   1.000  C
  C222     1.0000 0.26340  0.39110  0.73660  Biso   1.000  C
  C223     1.0000 0.71400  0.65340  0.71400  Biso   1.000  C
  C224     1.0000 0.73660  0.60890  0.73660  Biso   1.000  C
  C225     1.0000 0.65340  0.71400  0.71400  Biso   1.000  C
  C226     1.0000 0.60890  0.73660  0.73660  Biso   1.000  C
  C227     1.0000 0.34660  0.71400  0.28600  Biso   1.000  C
  C228     1.0000 0.39110  0.73660  0.26340  Biso   1.000  C
  C229     1.0000 0.34660  0.28600  0.71400  Biso   1.000  C
  C230     1.0000 0.39110  0.26340  0.73660  Biso   1.000  C
  C231     1.0000 0.65340  0.28600  0.28600  Biso   1.000  C
  C232     1.0000 0.60890  0.26340  0.26340  Biso   1.000  C
  C233     1.0000 0.71400  0.28600  0.34660  Biso   1.000  C
  C234     1.0000 0.73660  0.26340  0.39110  Biso   1.000  C
  C235     1.0000 0.71400  0.71400  0.65340  Biso   1.000  C
  C236     1.0000 0.73660  0.73660  0.60890  Biso   1.000  C
  C237     1.0000 0.28600  0.28600  0.65340  Biso   1.000  C
  C238     1.0000 0.26340  0.26340  0.60890  Biso   1.000  C
  C239     1.0000 0.28600  0.71400  0.34660  Biso   1.000  C
  C240     1.0000 0.26340  0.73660  0.39110  Biso   1.000  C
