data_image0
_cell_length_a       15.398
_cell_length_b       15.398
_cell_length_c       25.456
_cell_angle_alpha    90
_cell_angle_beta     90
_cell_angle_gamma    120

_symmetry_space_group_name_H-M    "P 1"
_symmetry_int_tables_number       1

loop_
  _symmetry_equiv_pos_as_xyz
  'x, y, z'

loop_
  _atom_site_label
  _atom_site_occupancy
  _atom_site_fract_x
  _atom_site_fract_y
  _atom_site_fract_z
  _atom_site_thermal_displace_type
  _atom_site_B_iso_or_equiv
  _atom_site_type_symbol
  C1       1.0000 0.55500  0.01330  0.78740  Biso   1.000  C
  H1       1.0000 0.61880  0.05370  0.77360  Biso   1.000  H
  C2       1.0000 0.11130  0.11950  0.13040  Biso   1.000  C
  C3       1.0000 0.26050  0.11410  0.11990  Biso   1.000  C
  C4       1.0000 0.21140  0.03270  0.08490  Biso   1.000  C
  H2       1.0000 0.24630  0.00610  0.06790  Biso   1.000  H
  C5       1.0000 0.11270  0.99480  0.07670  Biso   1.000  C
  C6       1.0000 0.05820  0.03550  0.09970  Biso   1.000  C
  H3       1.0000 0.98950  0.00720  0.09440  Biso   1.000  H
  C7       1.0000 0.10180  0.25990  0.15990  Biso   1.000  C
  C8       1.0000 0.11170  0.29750  0.20880  Biso   1.000  C
  H4       1.0000 0.08450  0.25400  0.23710  Biso   1.000  H
  C9       1.0000 0.37150  0.15840  0.12960  Biso   1.000  C
  C10      1.0000 0.16110  0.39880  0.21730  Biso   1.000  C
  H5       1.0000 0.17160  0.42380  0.25140  Biso   1.000  H
  C11      1.0000 0.17430  0.68250  0.93080  Biso   1.000  C
  C12      1.0000 0.15340  0.75070  0.96160  Biso   1.000  C
  C13      1.0000 0.11090  0.79800  0.04430  Biso   1.000  C
  H6       1.0000 0.10470  0.79080  0.08060  Biso   1.000  H
  C14      1.0000 0.54470  0.00420  0.84170  Biso   1.000  C
  H7       1.0000 0.59930  0.04180  0.86360  Biso   1.000  H
  C15      1.0000 0.09220  0.86170  0.02130  Biso   1.000  C
  C16      1.0000 0.14190  0.82490  0.94000  Biso   1.000  C
  H8       1.0000 0.15570  0.83870  0.90440  Biso   1.000  H
  C17      1.0000 0.45270  0.93880  0.86240  Biso   1.000  C
  C18      1.0000 0.20970  0.15860  0.14140  Biso   1.000  C
  H9       1.0000 0.24270  0.21440  0.16320  Biso   1.000  H
  C19      1.0000 0.37660  0.89390  0.82800  Biso   1.000  C
  H10      1.0000 0.31270  0.85090  0.84100  Biso   1.000  H
  C20      1.0000 0.14070  0.73830  0.01490  Biso   1.000  C
  H11      1.0000 0.15160  0.69110  0.03190  Biso   1.000  H
  Cd1      1.0000 0.34980  0.77856  0.19415  Biso   1.000  Cd
  Cd2      1.0000 0.49186  0.99375  0.66359  Biso   1.000  Cd
  N1       1.0000 0.48050  0.96850  0.75480  Biso   1.000  N
  O1       1.0000 0.16780  0.68350  0.88080  Biso   1.000  O
  C21      1.0000 0.19440  0.46250  0.17610  Biso   1.000  C
  O2       1.0000 0.40990  0.22470  0.16320  Biso   1.000  O
  C22      1.0000 0.11620  0.31220  0.12020  Biso   1.000  C
  H12      1.0000 0.09670  0.28430  0.08690  Biso   1.000  H
  O3       1.0000 0.41800  0.12610  0.10510  Biso   1.000  O
  C23      1.0000 0.25060  0.57590  0.18260  Biso   1.000  C
  C24      1.0000 0.16470  0.41840  0.12880  Biso   1.000  C
  H13      1.0000 0.17620  0.45950  0.09980  Biso   1.000  H
  O4       1.0000 0.05420  0.15510  0.15390  Biso   1.000  O
  O5       1.0000 0.25560  0.61160  0.22720  Biso   1.000  O
  O6       1.0000 0.20120  0.62930  0.95120  Biso   1.000  O
  O7       1.0000 0.05120  0.90960  0.04660  Biso   1.000  O
  O8       1.0000 0.28910  0.63130  0.14440  Biso   1.000  O
  O9       1.0000 0.34220  0.98800  0.66230  Biso   1.000  O
  H14      1.0000 0.33390  0.04790  0.67470  Biso   1.000  H
  H15      1.0000 0.27430  0.92870  0.66990  Biso   1.000  H
  O10      1.0000 0.39710  0.83380  0.65330  Biso   1.000  O
  H16      1.0000 0.39190  0.81140  0.62220  Biso   1.000  H
  H17      1.0000 0.41030  0.79940  0.67490  Biso   1.000  H
  C25      1.0000 0.11070  0.88120  0.96840  Biso   1.000  C
  H18      1.0000 0.10240  0.93070  0.95220  Biso   1.000  H
  C26      1.0000 0.38850  0.90820  0.77420  Biso   1.000  C
  H19      1.0000 0.33350  0.87640  0.75190  Biso   1.000  H
  O11      1.0000 0.62590  0.96180  0.66600  Biso   1.000  O
  C27      1.0000 0.43920  0.96180  0.92060  Biso   1.000  C
  H20      1.0000 0.48100  0.03240  0.92900  Biso   1.000  H
  H21      1.0000 0.36980  0.94050  0.92870  Biso   1.000  H
  C28      1.0000 0.47270  0.90080  0.94740  Biso   1.000  C
  H22      1.0000 0.54120  0.92180  0.93740  Biso   1.000  H
  H23      1.0000 0.43060  0.83100  0.93760  Biso   1.000  H
  C29      1.0000 0.46650  0.91310  0.00920  Biso   1.000  C
  C30      1.0000 0.44130  0.96640  0.04410  Biso   1.000  C
  H24      1.0000 0.44640  0.02680  0.03370  Biso   1.000  H
  C31      1.0000 0.40840  0.92960  0.09440  Biso   1.000  C
  H25      1.0000 0.39150  0.96530  0.11770  Biso   1.000  H
  N2       1.0000 0.40070  0.83950  0.10990  Biso   1.000  N
  C32      1.0000 0.42590  0.78610  0.07500  Biso   1.000  C
  H26      1.0000 0.42080  0.72580  0.08540  Biso   1.000  H
  C33      1.0000 0.45880  0.82290  0.02470  Biso   1.000  C
  H27      1.0000 0.47570  0.78720  0.00140  Biso   1.000  H
  C34      1.0000 0.42150  0.90000  0.91910  Biso   1.000  C
  H28      1.0000 0.36380  0.90560  0.92930  Biso   1.000  H
  H29      1.0000 0.40280  0.82980  0.92080  Biso   1.000  H
  C35      1.0000 0.50260  0.95690  0.95410  Biso   1.000  C
  H30      1.0000 0.51970  0.02660  0.95460  Biso   1.000  H
  H31      1.0000 0.56150  0.95320  0.94420  Biso   1.000  H
  C36      1.0000 0.16470  0.32710  0.12060  Biso   1.000  C
  H32      1.0000 0.17650  0.30300  0.08950  Biso   1.000  H
  C37      1.0000 0.20910  0.43130  0.12950  Biso   1.000  C
  H33      1.0000 0.24760  0.47730  0.10370  Biso   1.000  H
  C38      1.0000 0.46140  0.90600  0.00940  Biso   1.000  C
  C39      1.0000 0.39200  0.92480  0.03410  Biso   1.000  C
  H34      1.0000 0.35910  0.95130  0.01500  Biso   1.000  H
  C40      1.0000 0.37170  0.90390  0.08720  Biso   1.000  C
  H35      1.0000 0.32520  0.91650  0.10380  Biso   1.000  H
  N3       1.0000 0.42080  0.86420  0.11570  Biso   1.000  N
  C41      1.0000 0.49020  0.84540  0.09100  Biso   1.000  C
  H36      1.0000 0.52310  0.81890  0.11000  Biso   1.000  H
  C42      1.0000 0.51050  0.86630  0.03780  Biso   1.000  C
  H37      1.0000 0.55700  0.85370  0.02130  Biso   1.000  H
  C43      1.0000 0.98670  0.54170  0.45407  Biso   1.000  C
  H38      1.0000 0.94630  0.56510  0.44027  Biso   1.000  H
  C44      1.0000 0.88050  0.99180  0.79707  Biso   1.000  C
  C45      1.0000 0.88590  0.14640  0.78657  Biso   1.000  C
  C46      1.0000 0.96730  0.17870  0.75157  Biso   1.000  C
  H39      1.0000 0.99390  0.24020  0.73457  Biso   1.000  H
  C47      1.0000 0.00520  0.11790  0.74337  Biso   1.000  C
  C48      1.0000 0.96450  0.02270  0.76637  Biso   1.000  C
  H40      1.0000 0.99280  0.98230  0.76107  Biso   1.000  H
  C49      1.0000 0.74010  0.84190  0.82657  Biso   1.000  C
  C50      1.0000 0.70250  0.81420  0.87547  Biso   1.000  C
  H41      1.0000 0.74600  0.83050  0.90377  Biso   1.000  H
  C51      1.0000 0.84160  0.21310  0.79627  Biso   1.000  C
  C52      1.0000 0.60120  0.76230  0.88397  Biso   1.000  C
  H42      1.0000 0.57620  0.74780  0.91807  Biso   1.000  H
  C53      1.0000 0.31750  0.49180  0.59747  Biso   1.000  C
  C54      1.0000 0.24930  0.40270  0.62827  Biso   1.000  C
  C55      1.0000 0.20200  0.31290  0.71097  Biso   1.000  C
  H43      1.0000 0.20920  0.31390  0.74727  Biso   1.000  H
  C56      1.0000 0.99580  0.54050  0.50837  Biso   1.000  C
  H44      1.0000 0.95820  0.55750  0.53027  Biso   1.000  H
  C57      1.0000 0.13830  0.23050  0.68797  Biso   1.000  C
  C58      1.0000 0.17510  0.31700  0.60667  Biso   1.000  C
  H45      1.0000 0.16130  0.31700  0.57107  Biso   1.000  H
  C59      1.0000 0.06120  0.51390  0.52907  Biso   1.000  C
  C60      1.0000 0.84140  0.05110  0.80807  Biso   1.000  C
  H46      1.0000 0.78560  0.02830  0.82987  Biso   1.000  H
  C61      1.0000 0.10610  0.48270  0.49467  Biso   1.000  C
  H47      1.0000 0.14910  0.46180  0.50767  Biso   1.000  H
  C62      1.0000 0.26170  0.40240  0.68157  Biso   1.000  C
  H48      1.0000 0.30890  0.46050  0.69857  Biso   1.000  H
  Cd3      1.0000 0.22144  0.57124  0.86082  Biso   1.000  Cd
  Cd4      1.0000 0.00625  0.49811  0.33026  Biso   1.000  Cd
  N4       1.0000 0.03150  0.51200  0.42147  Biso   1.000  N
  O12      1.0000 0.31650  0.48430  0.54747  Biso   1.000  O
  C63      1.0000 0.53750  0.73190  0.84277  Biso   1.000  C
  O13      1.0000 0.77530  0.18520  0.82987  Biso   1.000  O
  C64      1.0000 0.68780  0.80400  0.78687  Biso   1.000  C
  H49      1.0000 0.71570  0.81240  0.75357  Biso   1.000  H
  O14      1.0000 0.87390  0.29190  0.77177  Biso   1.000  O
  C65      1.0000 0.42410  0.67470  0.84927  Biso   1.000  C
  C66      1.0000 0.58160  0.74630  0.79547  Biso   1.000  C
  H50      1.0000 0.54050  0.71670  0.76647  Biso   1.000  H
  O15      1.0000 0.84490  0.89910  0.82057  Biso   1.000  O
  O16      1.0000 0.38840  0.64400  0.89387  Biso   1.000  O
  O17      1.0000 0.37070  0.57190  0.61787  Biso   1.000  O
  O18      1.0000 0.09040  0.14160  0.71327  Biso   1.000  O
  O19      1.0000 0.36870  0.65780  0.81107  Biso   1.000  O
  O20      1.0000 0.01200  0.35420  0.32897  Biso   1.000  O
  H51      1.0000 0.95210  0.28600  0.34137  Biso   1.000  H
  H52      1.0000 0.07130  0.34560  0.33657  Biso   1.000  H
  O21      1.0000 0.16620  0.56330  0.31997  Biso   1.000  O
  H53      1.0000 0.18860  0.58050  0.28887  Biso   1.000  H
  H54      1.0000 0.20060  0.61090  0.34157  Biso   1.000  H
  C67      1.0000 0.11880  0.22950  0.63507  Biso   1.000  C
  H55      1.0000 0.06930  0.17170  0.61887  Biso   1.000  H
  C68      1.0000 0.09180  0.48030  0.44087  Biso   1.000  C
  H56      1.0000 0.12360  0.45710  0.41857  Biso   1.000  H
  O22      1.0000 0.03820  0.66410  0.33267  Biso   1.000  O
  C69      1.0000 0.03820  0.47740  0.58727  Biso   1.000  C
  H57      1.0000 0.96760  0.44860  0.59567  Biso   1.000  H
  H58      1.0000 0.05950  0.42930  0.59537  Biso   1.000  H
  C70      1.0000 0.09920  0.57190  0.61407  Biso   1.000  C
  H59      1.0000 0.07820  0.61940  0.60407  Biso   1.000  H
  H60      1.0000 0.16900  0.59960  0.60427  Biso   1.000  H
  C71      1.0000 0.08690  0.55340  0.67587  Biso   1.000  C
  C72      1.0000 0.03360  0.47490  0.71077  Biso   1.000  C
  H61      1.0000 0.97320  0.41960  0.70037  Biso   1.000  H
  C73      1.0000 0.07040  0.47880  0.76107  Biso   1.000  C
  H62      1.0000 0.03470  0.42620  0.78437  Biso   1.000  H
  N5       1.0000 0.16050  0.56120  0.77657  Biso   1.000  N
  C74      1.0000 0.21390  0.63980  0.74167  Biso   1.000  C
  H63      1.0000 0.27420  0.69500  0.75207  Biso   1.000  H
  C75      1.0000 0.17710  0.63590  0.69137  Biso   1.000  C
  H64      1.0000 0.21280  0.68850  0.66807  Biso   1.000  H
  C76      1.0000 0.10000  0.52150  0.58577  Biso   1.000  C
  H65      1.0000 0.09440  0.45820  0.59597  Biso   1.000  H
  H66      1.0000 0.17020  0.57300  0.58747  Biso   1.000  H
  C77      1.0000 0.04310  0.54570  0.62077  Biso   1.000  C
  H67      1.0000 0.97340  0.49310  0.62127  Biso   1.000  H
  H68      1.0000 0.04680  0.60830  0.61087  Biso   1.000  H
  C78      1.0000 0.67290  0.83760  0.78727  Biso   1.000  C
  H69      1.0000 0.69700  0.87350  0.75617  Biso   1.000  H
  C79      1.0000 0.56870  0.77780  0.79617  Biso   1.000  C
  H70      1.0000 0.52270  0.77030  0.77037  Biso   1.000  H
  C80      1.0000 0.09400  0.55540  0.67607  Biso   1.000  C
  C81      1.0000 0.07520  0.46720  0.70077  Biso   1.000  C
  H71      1.0000 0.04870  0.40780  0.68167  Biso   1.000  H
  C82      1.0000 0.09610  0.46780  0.75387  Biso   1.000  C
  H72      1.0000 0.08350  0.40870  0.77047  Biso   1.000  H
  N6       1.0000 0.13580  0.55660  0.78237  Biso   1.000  N
  C83      1.0000 0.15460  0.64480  0.75767  Biso   1.000  C
  H73      1.0000 0.18110  0.70420  0.77667  Biso   1.000  H
  C84      1.0000 0.13370  0.64420  0.70447  Biso   1.000  C
  H74      1.0000 0.14630  0.70330  0.68797  Biso   1.000  H
  C85      1.0000 0.45830  0.44500  0.12073  Biso   1.000  C
  H75      1.0000 0.43490  0.38120  0.10693  Biso   1.000  H
  C86      1.0000 0.00820  0.88870  0.46373  Biso   1.000  C
  C87      1.0000 0.85360  0.73950  0.45323  Biso   1.000  C
  C88      1.0000 0.82130  0.78860  0.41823  Biso   1.000  C
  H76      1.0000 0.75980  0.75370  0.40123  Biso   1.000  H
  C89      1.0000 0.88210  0.88730  0.41003  Biso   1.000  C
  C90      1.0000 0.97730  0.94180  0.43303  Biso   1.000  C
  H77      1.0000 0.01770  0.01050  0.42773  Biso   1.000  H
  C91      1.0000 0.15810  0.89820  0.49323  Biso   1.000  C
  C92      1.0000 0.18580  0.88830  0.54213  Biso   1.000  C
  H78      1.0000 0.16950  0.91550  0.57043  Biso   1.000  H
  C93      1.0000 0.78690  0.62850  0.46293  Biso   1.000  C
  C94      1.0000 0.23770  0.83890  0.55063  Biso   1.000  C
  H79      1.0000 0.25220  0.82840  0.58473  Biso   1.000  H
  C95      1.0000 0.50820  0.82570  0.26413  Biso   1.000  C
  C96      1.0000 0.59730  0.84660  0.29493  Biso   1.000  C
  C97      1.0000 0.68710  0.88910  0.37763  Biso   1.000  C
  H80      1.0000 0.68610  0.89530  0.41393  Biso   1.000  H
  C98      1.0000 0.45950  0.45530  0.17503  Biso   1.000  C
  H81      1.0000 0.44250  0.40070  0.19693  Biso   1.000  H
  C99      1.0000 0.76950  0.90780  0.35463  Biso   1.000  C
  C100     1.0000 0.68300  0.85810  0.27333  Biso   1.000  C
  H82      1.0000 0.68300  0.84430  0.23773  Biso   1.000  H
  C101     1.0000 0.48610  0.54730  0.19573  Biso   1.000  C
  C102     1.0000 0.94890  0.79030  0.47473  Biso   1.000  C
  H83      1.0000 0.97170  0.75730  0.49653  Biso   1.000  H
  C103     1.0000 0.51730  0.62340  0.16133  Biso   1.000  C
  H84      1.0000 0.53820  0.68730  0.17433  Biso   1.000  H
  C104     1.0000 0.59760  0.85930  0.34823  Biso   1.000  C
  H85      1.0000 0.53950  0.84840  0.36523  Biso   1.000  H
  Cd5      1.0000 0.42876  0.65020  0.52748  Biso   1.000  Cd
  Cd6      1.0000 0.50189  0.50814  0.99692  Biso   1.000  Cd
  N7       1.0000 0.48800  0.51950  0.08813  Biso   1.000  N
  O23      1.0000 0.51570  0.83220  0.21413  Biso   1.000  O
  C105     1.0000 0.26810  0.80560  0.50943  Biso   1.000  C
  O24      1.0000 0.81480  0.59010  0.49653  Biso   1.000  O
  C106     1.0000 0.19600  0.88380  0.45353  Biso   1.000  C
  H86      1.0000 0.18760  0.90330  0.42023  Biso   1.000  H
  O25      1.0000 0.70810  0.58200  0.43843  Biso   1.000  O
  C107     1.0000 0.32530  0.74940  0.51593  Biso   1.000  C
  C108     1.0000 0.25370  0.83530  0.46213  Biso   1.000  C
  H87      1.0000 0.28330  0.82380  0.43313  Biso   1.000  H
  O26      1.0000 0.10090  0.94580  0.48723  Biso   1.000  O
  O27      1.0000 0.35600  0.74440  0.56053  Biso   1.000  O
  O28      1.0000 0.42810  0.79880  0.28453  Biso   1.000  O
  O29      1.0000 0.85840  0.94880  0.37993  Biso   1.000  O
  O30      1.0000 0.34220  0.71090  0.47773  Biso   1.000  O
  O31      1.0000 0.64580  0.65780  0.99563  Biso   1.000  O
  H88      1.0000 0.71400  0.66610  0.00803  Biso   1.000  H
  H89      1.0000 0.65440  0.72570  0.00323  Biso   1.000  H
  O32      1.0000 0.43670  0.60290  0.98663  Biso   1.000  O
  H90      1.0000 0.41950  0.60810  0.95553  Biso   1.000  H
  H91      1.0000 0.38910  0.58970  0.00823  Biso   1.000  H
  C109     1.0000 0.77050  0.88930  0.30173  Biso   1.000  C
  H92      1.0000 0.82830  0.89760  0.28553  Biso   1.000  H
  C110     1.0000 0.51970  0.61150  0.10753  Biso   1.000  C
  H93      1.0000 0.54290  0.66650  0.08523  Biso   1.000  H
  O33      1.0000 0.33590  0.37410  0.99933  Biso   1.000  O
  C111     1.0000 0.52260  0.56080  0.25393  Biso   1.000  C
  H94      1.0000 0.55140  0.51900  0.26233  Biso   1.000  H
  H95      1.0000 0.57070  0.63020  0.26203  Biso   1.000  H
  C112     1.0000 0.42810  0.52730  0.28073  Biso   1.000  C
  H96      1.0000 0.38060  0.45880  0.27073  Biso   1.000  H
  H97      1.0000 0.40040  0.56940  0.27093  Biso   1.000  H
  C113     1.0000 0.44660  0.53350  0.34253  Biso   1.000  C
  C114     1.0000 0.52510  0.55870  0.37743  Biso   1.000  C
  H98      1.0000 0.58040  0.55360  0.36703  Biso   1.000  H
  C115     1.0000 0.52120  0.59160  0.42773  Biso   1.000  C
  H99      1.0000 0.57380  0.60850  0.45103  Biso   1.000  H
  N8       1.0000 0.43880  0.59930  0.44323  Biso   1.000  N
  C116     1.0000 0.36020  0.57410  0.40833  Biso   1.000  C
  H100     1.0000 0.30500  0.57920  0.41873  Biso   1.000  H
  C117     1.0000 0.36410  0.54120  0.35803  Biso   1.000  C
  H101     1.0000 0.31150  0.52430  0.33473  Biso   1.000  H
  C118     1.0000 0.47850  0.57850  0.25243  Biso   1.000  C
  H102     1.0000 0.54180  0.63620  0.26263  Biso   1.000  H
  H103     1.0000 0.42700  0.59720  0.25413  Biso   1.000  H
  C119     1.0000 0.45430  0.49740  0.28743  Biso   1.000  C
  H104     1.0000 0.50690  0.48030  0.28793  Biso   1.000  H
  H105     1.0000 0.39170  0.43850  0.27753  Biso   1.000  H
  C120     1.0000 0.16240  0.83530  0.45393  Biso   1.000  C
  H106     1.0000 0.12650  0.82350  0.42283  Biso   1.000  H
  C121     1.0000 0.22220  0.79090  0.46283  Biso   1.000  C
  H107     1.0000 0.22970  0.75240  0.43703  Biso   1.000  H
  C122     1.0000 0.44460  0.53860  0.34273  Biso   1.000  C
  C123     1.0000 0.53280  0.60800  0.36743  Biso   1.000  C
  H108     1.0000 0.59220  0.64090  0.34833  Biso   1.000  H
  C124     1.0000 0.53220  0.62830  0.42053  Biso   1.000  C
  H109     1.0000 0.59130  0.67480  0.43713  Biso   1.000  H
  N9       1.0000 0.44340  0.57920  0.44903  Biso   1.000  N
  C125     1.0000 0.35520  0.50980  0.42433  Biso   1.000  C
  H110     1.0000 0.29580  0.47690  0.44333  Biso   1.000  H
  C126     1.0000 0.35580  0.48950  0.37113  Biso   1.000  C
  H111     1.0000 0.29670  0.44300  0.35463  Biso   1.000  H
  C127     1.0000 0.01330  0.55500  0.21260  Biso   1.000  C
  H112     1.0000 0.05370  0.61880  0.22640  Biso   1.000  H
  C128     1.0000 0.11950  0.11130  0.86960  Biso   1.000  C
  C129     1.0000 0.11410  0.26050  0.88010  Biso   1.000  C
  C130     1.0000 0.03270  0.21140  0.91510  Biso   1.000  C
  H113     1.0000 0.00610  0.24630  0.93210  Biso   1.000  H
  C131     1.0000 0.99480  0.11270  0.92330  Biso   1.000  C
  C132     1.0000 0.03550  0.05820  0.90030  Biso   1.000  C
  H114     1.0000 0.00720  0.98950  0.90560  Biso   1.000  H
  C133     1.0000 0.25990  0.10180  0.84010  Biso   1.000  C
  C134     1.0000 0.29750  0.11170  0.79120  Biso   1.000  C
  H115     1.0000 0.25400  0.08450  0.76290  Biso   1.000  H
  C135     1.0000 0.15840  0.37150  0.87040  Biso   1.000  C
  C136     1.0000 0.39880  0.16110  0.78270  Biso   1.000  C
  H116     1.0000 0.42380  0.17160  0.74860  Biso   1.000  H
  C137     1.0000 0.68250  0.17430  0.06920  Biso   1.000  C
  C138     1.0000 0.75070  0.15340  0.03840  Biso   1.000  C
  C139     1.0000 0.79800  0.11090  0.95570  Biso   1.000  C
  H117     1.0000 0.79080  0.10470  0.91940  Biso   1.000  H
  C140     1.0000 0.00420  0.54470  0.15830  Biso   1.000  C
  H118     1.0000 0.04180  0.59930  0.13640  Biso   1.000  H
  C141     1.0000 0.86170  0.09220  0.97870  Biso   1.000  C
  C142     1.0000 0.82490  0.14190  0.06000  Biso   1.000  C
  H119     1.0000 0.83870  0.15570  0.09560  Biso   1.000  H
  C143     1.0000 0.93880  0.45270  0.13760  Biso   1.000  C
  C144     1.0000 0.15860  0.20970  0.85860  Biso   1.000  C
  H120     1.0000 0.21440  0.24270  0.83680  Biso   1.000  H
  C145     1.0000 0.89390  0.37660  0.17200  Biso   1.000  C
  H121     1.0000 0.85090  0.31270  0.15900  Biso   1.000  H
  C146     1.0000 0.73830  0.14070  0.98510  Biso   1.000  C
  H122     1.0000 0.69110  0.15160  0.96810  Biso   1.000  H
  Cd7      1.0000 0.77856  0.34980  0.80585  Biso   1.000  Cd
  Cd8      1.0000 0.99375  0.49186  0.33641  Biso   1.000  Cd
  N10      1.0000 0.96850  0.48050  0.24520  Biso   1.000  N
  O34      1.0000 0.68350  0.16780  0.11920  Biso   1.000  O
  C147     1.0000 0.46250  0.19440  0.82390  Biso   1.000  C
  O35      1.0000 0.22470  0.40990  0.83680  Biso   1.000  O
  C148     1.0000 0.31220  0.11620  0.87980  Biso   1.000  C
  H123     1.0000 0.28430  0.09670  0.91310  Biso   1.000  H
  O36      1.0000 0.12610  0.41800  0.89490  Biso   1.000  O
  C149     1.0000 0.57590  0.25060  0.81740  Biso   1.000  C
  C150     1.0000 0.41840  0.16470  0.87120  Biso   1.000  C
  H124     1.0000 0.45950  0.17620  0.90020  Biso   1.000  H
  O37      1.0000 0.15510  0.05420  0.84610  Biso   1.000  O
  O38      1.0000 0.61160  0.25560  0.77280  Biso   1.000  O
  O39      1.0000 0.62930  0.20120  0.04880  Biso   1.000  O
  O40      1.0000 0.90960  0.05120  0.95340  Biso   1.000  O
  O41      1.0000 0.63130  0.28910  0.85560  Biso   1.000  O
  O42      1.0000 0.98800  0.34220  0.33770  Biso   1.000  O
  H125     1.0000 0.04790  0.33390  0.32530  Biso   1.000  H
  H126     1.0000 0.92870  0.27430  0.33010  Biso   1.000  H
  O43      1.0000 0.83380  0.39710  0.34670  Biso   1.000  O
  H127     1.0000 0.81140  0.39190  0.37780  Biso   1.000  H
  H128     1.0000 0.79940  0.41030  0.32510  Biso   1.000  H
  C151     1.0000 0.88120  0.11070  0.03160  Biso   1.000  C
  H129     1.0000 0.93070  0.10240  0.04780  Biso   1.000  H
  C152     1.0000 0.90820  0.38850  0.22580  Biso   1.000  C
  H130     1.0000 0.87640  0.33350  0.24810  Biso   1.000  H
  O44      1.0000 0.96180  0.62590  0.33400  Biso   1.000  O
  C153     1.0000 0.96180  0.43920  0.07940  Biso   1.000  C
  H131     1.0000 0.03240  0.48100  0.07100  Biso   1.000  H
  H132     1.0000 0.94050  0.36980  0.07130  Biso   1.000  H
  C154     1.0000 0.90080  0.47270  0.05260  Biso   1.000  C
  H133     1.0000 0.92180  0.54120  0.06260  Biso   1.000  H
  H134     1.0000 0.83100  0.43060  0.06240  Biso   1.000  H
  C155     1.0000 0.91310  0.46650  0.99080  Biso   1.000  C
  C156     1.0000 0.96640  0.44130  0.95590  Biso   1.000  C
  H135     1.0000 0.02680  0.44640  0.96630  Biso   1.000  H
  C157     1.0000 0.92960  0.40840  0.90560  Biso   1.000  C
  H136     1.0000 0.96530  0.39150  0.88230  Biso   1.000  H
  N11      1.0000 0.83950  0.40070  0.89010  Biso   1.000  N
  C158     1.0000 0.78610  0.42590  0.92500  Biso   1.000  C
  H137     1.0000 0.72580  0.42080  0.91460  Biso   1.000  H
  C159     1.0000 0.82290  0.45880  0.97530  Biso   1.000  C
  H138     1.0000 0.78720  0.47570  0.99860  Biso   1.000  H
  C160     1.0000 0.90000  0.42150  0.08090  Biso   1.000  C
  H139     1.0000 0.90560  0.36380  0.07070  Biso   1.000  H
  H140     1.0000 0.82980  0.40280  0.07920  Biso   1.000  H
  C161     1.0000 0.95690  0.50260  0.04590  Biso   1.000  C
  H141     1.0000 0.02660  0.51970  0.04540  Biso   1.000  H
  H142     1.0000 0.95320  0.56150  0.05580  Biso   1.000  H
  C162     1.0000 0.32710  0.16470  0.87940  Biso   1.000  C
  H143     1.0000 0.30300  0.17650  0.91050  Biso   1.000  H
  C163     1.0000 0.43130  0.20910  0.87050  Biso   1.000  C
  H144     1.0000 0.47730  0.24760  0.89630  Biso   1.000  H
  C164     1.0000 0.90600  0.46140  0.99060  Biso   1.000  C
  C165     1.0000 0.92480  0.39200  0.96590  Biso   1.000  C
  H145     1.0000 0.95130  0.35910  0.98500  Biso   1.000  H
  C166     1.0000 0.90390  0.37170  0.91280  Biso   1.000  C
  H146     1.0000 0.91650  0.32520  0.89620  Biso   1.000  H
  N12      1.0000 0.86420  0.42080  0.88430  Biso   1.000  N
  C167     1.0000 0.84540  0.49020  0.90900  Biso   1.000  C
  H147     1.0000 0.81890  0.52310  0.89000  Biso   1.000  H
  C168     1.0000 0.86630  0.51050  0.96220  Biso   1.000  C
  H148     1.0000 0.85370  0.55700  0.97870  Biso   1.000  H
  C169     1.0000 0.54170  0.98670  0.54593  Biso   1.000  C
  H149     1.0000 0.56510  0.94630  0.55973  Biso   1.000  H
  C170     1.0000 0.99180  0.88050  0.20293  Biso   1.000  C
  C171     1.0000 0.14640  0.88590  0.21343  Biso   1.000  C
  C172     1.0000 0.17870  0.96730  0.24843  Biso   1.000  C
  H150     1.0000 0.24020  0.99390  0.26543  Biso   1.000  H
  C173     1.0000 0.11790  0.00520  0.25663  Biso   1.000  C
  C174     1.0000 0.02270  0.96450  0.23363  Biso   1.000  C
  H151     1.0000 0.98230  0.99280  0.23893  Biso   1.000  H
  C175     1.0000 0.84190  0.74010  0.17343  Biso   1.000  C
  C176     1.0000 0.81420  0.70250  0.12453  Biso   1.000  C
  H152     1.0000 0.83050  0.74600  0.09623  Biso   1.000  H
  C177     1.0000 0.21310  0.84160  0.20373  Biso   1.000  C
  C178     1.0000 0.76230  0.60120  0.11603  Biso   1.000  C
  H153     1.0000 0.74780  0.57620  0.08193  Biso   1.000  H
  C179     1.0000 0.49180  0.31750  0.40253  Biso   1.000  C
  C180     1.0000 0.40270  0.24930  0.37173  Biso   1.000  C
  C181     1.0000 0.31290  0.20200  0.28903  Biso   1.000  C
  H154     1.0000 0.31390  0.20920  0.25273  Biso   1.000  H
  C182     1.0000 0.54050  0.99580  0.49163  Biso   1.000  C
  H155     1.0000 0.55750  0.95820  0.46973  Biso   1.000  H
  C183     1.0000 0.23050  0.13830  0.31203  Biso   1.000  C
  C184     1.0000 0.31700  0.17510  0.39333  Biso   1.000  C
  H156     1.0000 0.31700  0.16130  0.42893  Biso   1.000  H
  C185     1.0000 0.51390  0.06120  0.47093  Biso   1.000  C
  C186     1.0000 0.05110  0.84140  0.19193  Biso   1.000  C
  H157     1.0000 0.02830  0.78560  0.17013  Biso   1.000  H
  C187     1.0000 0.48270  0.10610  0.50533  Biso   1.000  C
  H158     1.0000 0.46180  0.14910  0.49233  Biso   1.000  H
  C188     1.0000 0.40240  0.26170  0.31843  Biso   1.000  C
  H159     1.0000 0.46050  0.30890  0.30143  Biso   1.000  H
  Cd9      1.0000 0.57124  0.22144  0.13918  Biso   1.000  Cd
  Cd10     1.0000 0.49811  0.00625  0.66974  Biso   1.000  Cd
  N13      1.0000 0.51200  0.03150  0.57853  Biso   1.000  N
  O45      1.0000 0.48430  0.31650  0.45253  Biso   1.000  O
  C189     1.0000 0.73190  0.53750  0.15723  Biso   1.000  C
  O46      1.0000 0.18520  0.77530  0.17013  Biso   1.000  O
  C190     1.0000 0.80400  0.68780  0.21313  Biso   1.000  C
  H160     1.0000 0.81240  0.71570  0.24643  Biso   1.000  H
  O47      1.0000 0.29190  0.87390  0.22823  Biso   1.000  O
  C191     1.0000 0.67470  0.42410  0.15073  Biso   1.000  C
  C192     1.0000 0.74630  0.58160  0.20453  Biso   1.000  C
  H161     1.0000 0.71670  0.54050  0.23353  Biso   1.000  H
  O48      1.0000 0.89910  0.84490  0.17943  Biso   1.000  O
  O49      1.0000 0.64400  0.38840  0.10613  Biso   1.000  O
  O50      1.0000 0.57190  0.37070  0.38213  Biso   1.000  O
  O51      1.0000 0.14160  0.09040  0.28673  Biso   1.000  O
  O52      1.0000 0.65780  0.36870  0.18893  Biso   1.000  O
  O53      1.0000 0.35420  0.01200  0.67103  Biso   1.000  O
  H162     1.0000 0.28600  0.95210  0.65863  Biso   1.000  H
  H163     1.0000 0.34560  0.07130  0.66343  Biso   1.000  H
  O54      1.0000 0.56330  0.16620  0.68003  Biso   1.000  O
  H164     1.0000 0.58050  0.18860  0.71113  Biso   1.000  H
  H165     1.0000 0.61090  0.20060  0.65843  Biso   1.000  H
  C193     1.0000 0.22950  0.11880  0.36493  Biso   1.000  C
  H166     1.0000 0.17170  0.06930  0.38113  Biso   1.000  H
  C194     1.0000 0.48030  0.09180  0.55913  Biso   1.000  C
  H167     1.0000 0.45710  0.12360  0.58143  Biso   1.000  H
  O55      1.0000 0.66410  0.03820  0.66733  Biso   1.000  O
  C195     1.0000 0.47740  0.03820  0.41273  Biso   1.000  C
  H168     1.0000 0.44860  0.96760  0.40433  Biso   1.000  H
  H169     1.0000 0.42930  0.05950  0.40463  Biso   1.000  H
  C196     1.0000 0.57190  0.09920  0.38593  Biso   1.000  C
  H170     1.0000 0.61940  0.07820  0.39593  Biso   1.000  H
  H171     1.0000 0.59960  0.16900  0.39573  Biso   1.000  H
  C197     1.0000 0.55340  0.08690  0.32413  Biso   1.000  C
  C198     1.0000 0.47490  0.03360  0.28923  Biso   1.000  C
  H172     1.0000 0.41960  0.97320  0.29963  Biso   1.000  H
  C199     1.0000 0.47880  0.07040  0.23893  Biso   1.000  C
  H173     1.0000 0.42620  0.03470  0.21563  Biso   1.000  H
  N14      1.0000 0.56120  0.16050  0.22343  Biso   1.000  N
  C200     1.0000 0.63980  0.21390  0.25833  Biso   1.000  C
  H174     1.0000 0.69500  0.27420  0.24793  Biso   1.000  H
  C201     1.0000 0.63590  0.17710  0.30863  Biso   1.000  C
  H175     1.0000 0.68850  0.21280  0.33193  Biso   1.000  H
  C202     1.0000 0.52150  0.10000  0.41423  Biso   1.000  C
  H176     1.0000 0.45820  0.09440  0.40403  Biso   1.000  H
  H177     1.0000 0.57300  0.17020  0.41253  Biso   1.000  H
  C203     1.0000 0.54570  0.04310  0.37923  Biso   1.000  C
  H178     1.0000 0.49310  0.97340  0.37873  Biso   1.000  H
  H179     1.0000 0.60830  0.04680  0.38913  Biso   1.000  H
  C204     1.0000 0.83760  0.67290  0.21273  Biso   1.000  C
  H180     1.0000 0.87350  0.69700  0.24383  Biso   1.000  H
  C205     1.0000 0.77780  0.56870  0.20383  Biso   1.000  C
  H181     1.0000 0.77030  0.52270  0.22963  Biso   1.000  H
  C206     1.0000 0.55540  0.09400  0.32393  Biso   1.000  C
  C207     1.0000 0.46720  0.07520  0.29923  Biso   1.000  C
  H182     1.0000 0.40780  0.04870  0.31833  Biso   1.000  H
  C208     1.0000 0.46780  0.09610  0.24613  Biso   1.000  C
  H183     1.0000 0.40870  0.08350  0.22953  Biso   1.000  H
  N15      1.0000 0.55660  0.13580  0.21763  Biso   1.000  N
  C209     1.0000 0.64480  0.15460  0.24233  Biso   1.000  C
  H184     1.0000 0.70420  0.18110  0.22333  Biso   1.000  H
  C210     1.0000 0.64420  0.13370  0.29553  Biso   1.000  C
  H185     1.0000 0.70330  0.14630  0.31203  Biso   1.000  H
  C211     1.0000 0.44500  0.45830  0.87927  Biso   1.000  C
  H186     1.0000 0.38120  0.43490  0.89307  Biso   1.000  H
  C212     1.0000 0.88870  0.00820  0.53627  Biso   1.000  C
  C213     1.0000 0.73950  0.85360  0.54677  Biso   1.000  C
  C214     1.0000 0.78860  0.82130  0.58177  Biso   1.000  C
  H187     1.0000 0.75370  0.75980  0.59877  Biso   1.000  H
  C215     1.0000 0.88730  0.88210  0.58997  Biso   1.000  C
  C216     1.0000 0.94180  0.97730  0.56697  Biso   1.000  C
  H188     1.0000 0.01050  0.01770  0.57227  Biso   1.000  H
  C217     1.0000 0.89820  0.15810  0.50677  Biso   1.000  C
  C218     1.0000 0.88830  0.18580  0.45787  Biso   1.000  C
  H189     1.0000 0.91550  0.16950  0.42957  Biso   1.000  H
  C219     1.0000 0.62850  0.78690  0.53707  Biso   1.000  C
  C220     1.0000 0.83890  0.23770  0.44937  Biso   1.000  C
  H190     1.0000 0.82840  0.25220  0.41527  Biso   1.000  H
  C221     1.0000 0.82570  0.50820  0.73587  Biso   1.000  C
  C222     1.0000 0.84660  0.59730  0.70507  Biso   1.000  C
  C223     1.0000 0.88910  0.68710  0.62237  Biso   1.000  C
  H191     1.0000 0.89530  0.68610  0.58607  Biso   1.000  H
  C224     1.0000 0.45530  0.45950  0.82497  Biso   1.000  C
  H192     1.0000 0.40070  0.44250  0.80307  Biso   1.000  H
  C225     1.0000 0.90780  0.76950  0.64537  Biso   1.000  C
  C226     1.0000 0.85810  0.68300  0.72667  Biso   1.000  C
  H193     1.0000 0.84430  0.68300  0.76227  Biso   1.000  H
  C227     1.0000 0.54730  0.48610  0.80427  Biso   1.000  C
  C228     1.0000 0.79030  0.94890  0.52527  Biso   1.000  C
  H194     1.0000 0.75730  0.97170  0.50347  Biso   1.000  H
  C229     1.0000 0.62340  0.51730  0.83867  Biso   1.000  C
  H195     1.0000 0.68730  0.53820  0.82567  Biso   1.000  H
  C230     1.0000 0.85930  0.59760  0.65177  Biso   1.000  C
  H196     1.0000 0.84840  0.53950  0.63477  Biso   1.000  H
  Cd11     1.0000 0.65020  0.42876  0.47252  Biso   1.000  Cd
  Cd12     1.0000 0.50814  0.50189  0.00308  Biso   1.000  Cd
  N16      1.0000 0.51950  0.48800  0.91187  Biso   1.000  N
  O56      1.0000 0.83220  0.51570  0.78587  Biso   1.000  O
  C231     1.0000 0.80560  0.26810  0.49057  Biso   1.000  C
  O57      1.0000 0.59010  0.81480  0.50347  Biso   1.000  O
  C232     1.0000 0.88380  0.19600  0.54647  Biso   1.000  C
  H197     1.0000 0.90330  0.18760  0.57977  Biso   1.000  H
  O58      1.0000 0.58200  0.70810  0.56157  Biso   1.000  O
  C233     1.0000 0.74940  0.32530  0.48407  Biso   1.000  C
  C234     1.0000 0.83530  0.25370  0.53787  Biso   1.000  C
  H198     1.0000 0.82380  0.28330  0.56687  Biso   1.000  H
  O59      1.0000 0.94580  0.10090  0.51277  Biso   1.000  O
  O60      1.0000 0.74440  0.35600  0.43947  Biso   1.000  O
  O61      1.0000 0.79880  0.42810  0.71547  Biso   1.000  O
  O62      1.0000 0.94880  0.85840  0.62007  Biso   1.000  O
  O63      1.0000 0.71090  0.34220  0.52227  Biso   1.000  O
  O64      1.0000 0.65780  0.64580  0.00437  Biso   1.000  O
  H199     1.0000 0.66610  0.71400  0.99197  Biso   1.000  H
  H200     1.0000 0.72570  0.65440  0.99677  Biso   1.000  H
  O65      1.0000 0.60290  0.43670  0.01337  Biso   1.000  O
  H201     1.0000 0.60810  0.41950  0.04447  Biso   1.000  H
  H202     1.0000 0.58970  0.38910  0.99177  Biso   1.000  H
  C235     1.0000 0.88930  0.77050  0.69827  Biso   1.000  C
  H203     1.0000 0.89760  0.82830  0.71447  Biso   1.000  H
  C236     1.0000 0.61150  0.51970  0.89247  Biso   1.000  C
  H204     1.0000 0.66650  0.54290  0.91477  Biso   1.000  H
  O66      1.0000 0.37410  0.33590  0.00067  Biso   1.000  O
  C237     1.0000 0.56080  0.52260  0.74607  Biso   1.000  C
  H205     1.0000 0.51900  0.55140  0.73767  Biso   1.000  H
  H206     1.0000 0.63020  0.57070  0.73797  Biso   1.000  H
  C238     1.0000 0.52730  0.42810  0.71927  Biso   1.000  C
  H207     1.0000 0.45880  0.38060  0.72927  Biso   1.000  H
  H208     1.0000 0.56940  0.40040  0.72907  Biso   1.000  H
  C239     1.0000 0.53350  0.44660  0.65747  Biso   1.000  C
  C240     1.0000 0.55870  0.52510  0.62257  Biso   1.000  C
  H209     1.0000 0.55360  0.58040  0.63297  Biso   1.000  H
  C241     1.0000 0.59160  0.52120  0.57227  Biso   1.000  C
  H210     1.0000 0.60850  0.57380  0.54897  Biso   1.000  H
  N17      1.0000 0.59930  0.43880  0.55677  Biso   1.000  N
  C242     1.0000 0.57410  0.36020  0.59167  Biso   1.000  C
  H211     1.0000 0.57920  0.30500  0.58127  Biso   1.000  H
  C243     1.0000 0.54120  0.36410  0.64197  Biso   1.000  C
  H212     1.0000 0.52430  0.31150  0.66527  Biso   1.000  H
  C244     1.0000 0.57850  0.47850  0.74757  Biso   1.000  C
  H213     1.0000 0.63620  0.54180  0.73737  Biso   1.000  H
  H214     1.0000 0.59720  0.42700  0.74587  Biso   1.000  H
  C245     1.0000 0.49740  0.45430  0.71257  Biso   1.000  C
  H215     1.0000 0.48030  0.50690  0.71207  Biso   1.000  H
  H216     1.0000 0.43850  0.39170  0.72247  Biso   1.000  H
  C246     1.0000 0.83530  0.16240  0.54607  Biso   1.000  C
  H217     1.0000 0.82350  0.12650  0.57717  Biso   1.000  H
  C247     1.0000 0.79090  0.22220  0.53717  Biso   1.000  C
  H218     1.0000 0.75240  0.22970  0.56297  Biso   1.000  H
  C248     1.0000 0.53860  0.44460  0.65727  Biso   1.000  C
  C249     1.0000 0.60800  0.53280  0.63257  Biso   1.000  C
  H219     1.0000 0.64090  0.59220  0.65167  Biso   1.000  H
  C250     1.0000 0.62830  0.53220  0.57947  Biso   1.000  C
  H220     1.0000 0.67480  0.59130  0.56287  Biso   1.000  H
  N18      1.0000 0.57920  0.44340  0.55097  Biso   1.000  N
  C251     1.0000 0.50980  0.35520  0.57567  Biso   1.000  C
  H221     1.0000 0.47690  0.29580  0.55667  Biso   1.000  H
  C252     1.0000 0.48950  0.35580  0.62887  Biso   1.000  C
  H222     1.0000 0.44300  0.29670  0.64537  Biso   1.000  H
