data_image0
_cell_length_a       10.7998
_cell_length_b       14.5731
_cell_length_c       17.059
_cell_angle_alpha    78.401
_cell_angle_beta     89.438
_cell_angle_gamma    83.039

_symmetry_space_group_name_H-M    "P 1"
_symmetry_int_tables_number       1

loop_
  _symmetry_equiv_pos_as_xyz
  'x, y, z'

loop_
  _atom_site_label
  _atom_site_occupancy
  _atom_site_fract_x
  _atom_site_fract_y
  _atom_site_fract_z
  _atom_site_thermal_displace_type
  _atom_site_B_iso_or_equiv
  _atom_site_type_symbol
  Co1      1.0000 0.26760  0.88879  0.50835  Biso   1.000  Co
  Co2      1.0000 0.49278  0.01918  0.40603  Biso   1.000  Co
  Co3      1.0000 0.73662  0.58668  0.97474  Biso   1.000  Co
  Co4      1.0000 0.50062  0.46401  0.91805  Biso   1.000  Co
  O1       1.0000 0.81833  0.02926  0.59125  Biso   1.000  O
  O2       1.0000 0.69689  0.91278  0.60136  Biso   1.000  O
  O3       1.0000 0.74138  0.66037  0.84629  Biso   1.000  O
  O4       1.0000 0.90253  0.64625  0.92704  Biso   1.000  O
  O5       1.0000 0.27805  0.78332  0.61797  Biso   1.000  O
  O6       1.0000 0.09534  0.82027  0.55816  Biso   1.000  O
  O7       1.0000 0.44705  0.91660  0.50221  Biso   1.000  O
  O8       1.0000 0.17881  0.46035  0.91528  Biso   1.000  O
  O9       1.0000 0.33210  0.54811  0.87347  Biso   1.000  O
  O10      1.0000 0.55527  0.57346  0.96156  Biso   1.000  O
  O11      1.0000 0.44853  0.96934  0.30671  Biso   1.000  O
  O12      1.0000 0.44850  0.81433  0.32163  Biso   1.000  O
  O13      1.0000 0.68210  0.71824  0.00652  Biso   1.000  O
  O14      1.0000 0.55708  0.65648  0.10483  Biso   1.000  O
  O15      1.0000 0.59110  0.13931  0.04347  Biso   1.000  O
  O16      1.0000 0.70540  0.06330  0.97240  Biso   1.000  O
  O17      1.0000 0.81980  0.48280  0.74740  Biso   1.000  O
  O18      1.0000 0.78890  0.58680  0.63720  Biso   1.000  O
  O19      1.0000 0.18290  0.98500  0.76609  Biso   1.000  O
  O20      1.0000 0.16190  0.90660  0.88600  Biso   1.000  O
  N1       1.0000 0.22430  0.00475  0.56611  Biso   1.000  N
  N2       1.0000 0.31755  0.04502  0.59512  Biso   1.000  N
  N3       1.0000 0.14350  0.13843  0.59435  Biso   1.000  N
  N4       1.0000 0.86670  0.30750  0.94586  Biso   1.000  N
  N5       1.0000 0.78147  0.44966  0.94911  Biso   1.000  N
  N6       1.0000 0.68797  0.39557  0.94044  Biso   1.000  N
  N7       1.0000 0.64190  0.06441  0.03067  Biso   1.000  N
  N8       1.0000 0.14400  0.91900  0.80920  Biso   1.000  N
  N9       1.0000 0.85200  0.54790  0.69620  Biso   1.000  N
  C1       1.0000 0.12090  0.06250  0.56567  Biso   1.000  C
  H1       1.0000 0.04260  0.05220  0.54790  Biso   1.000  H
  C2       1.0000 0.26650  0.12470  0.61210  Biso   1.000  C
  H2       1.0000 0.30960  0.16650  0.63360  Biso   1.000  H
  C3       1.0000 0.05150  0.21990  0.60429  Biso   1.000  C
  H3       1.0000 0.97260  0.21600  0.57790  Biso   1.000  H
  H4       1.0000 0.08260  0.27870  0.57830  Biso   1.000  H
  C4       1.0000 0.02840  0.22150  0.69151  Biso   1.000  C
  C5       1.0000 0.10360  0.26590  0.73336  Biso   1.000  C
  H5       1.0000 0.16930  0.29580  0.70710  Biso   1.000  H
  C6       1.0000 0.08330  0.26670  0.81349  Biso   1.000  C
  H6       1.0000 0.13500  0.29740  0.84110  Biso   1.000  H
  C7       1.0000 0.98750  0.22257  0.85319  Biso   1.000  C
  C8       1.0000 0.91180  0.17870  0.81120  Biso   1.000  C
  H7       1.0000 0.84600  0.14890  0.83750  Biso   1.000  H
  C9       1.0000 0.93140  0.17800  0.73150  Biso   1.000  C
  H8       1.0000 0.87900  0.14800  0.70390  Biso   1.000  H
  C10      1.0000 0.96200  0.22730  0.93992  Biso   1.000  C
  H9       1.0000 0.93280  0.16830  0.96750  Biso   1.000  H
  H10      1.0000 0.03940  0.23450  0.96630  Biso   1.000  H
  C11      1.0000 0.88710  0.39533  0.95213  Biso   1.000  C
  H11      1.0000 0.96590  0.41450  0.95780  Biso   1.000  H
  C12      1.0000 0.74210  0.31121  0.93802  Biso   1.000  C
  H12      1.0000 0.70010  0.26020  0.93170  Biso   1.000  H
  C13      1.0000 0.78590  0.94954  0.62342  Biso   1.000  C
  C14      1.0000 0.86230  0.89660  0.69512  Biso   1.000  C
  C15      1.0000 0.82400  0.81557  0.74192  Biso   1.000  C
  H13      1.0000 0.75220  0.79230  0.72700  Biso   1.000  H
  C16      1.0000 0.89110  0.76849  0.81071  Biso   1.000  C
  C17      1.0000 0.99680  0.80130  0.83281  Biso   1.000  C
  H14      1.0000 0.04270  0.77020  0.87910  Biso   1.000  H
  C18      1.0000 0.03380  0.88160  0.78498  Biso   1.000  C
  C19      1.0000 0.96840  0.93020  0.71780  Biso   1.000  C
  H15      1.0000 0.99510  0.98550  0.68760  Biso   1.000  H
  C20      1.0000 0.84320  0.68574  0.86402  Biso   1.000  C
  C21      1.0000 0.22670  0.52368  0.86620  Biso   1.000  C
  C22      1.0000 0.14980  0.57093  0.79319  Biso   1.000  C
  C23      1.0000 0.18950  0.64703  0.73920  Biso   1.000  C
  H16      1.0000 0.26540  0.66870  0.74880  Biso   1.000  H
  C24      1.0000 0.11800  0.69121  0.67124  Biso   1.000  C
  C25      1.0000 0.00630  0.65908  0.65629  Biso   1.000  C
  H17      1.0000 0.95690  0.68810  0.61090  Biso   1.000  H
  C26      1.0000 0.96990  0.58290  0.71039  Biso   1.000  C
  C27      1.0000 0.03920  0.53850  0.77785  Biso   1.000  C
  H18      1.0000 0.01150  0.48690  0.81300  Biso   1.000  H
  C28      1.0000 0.16440  0.77052  0.61216  Biso   1.000  C
  C29      1.0000 0.61490  0.72155  0.06690  Biso   1.000  C
  C30      1.0000 0.59920  0.81178  0.09785  Biso   1.000  C
  C31      1.0000 0.63660  0.89410  0.05314  Biso   1.000  C
  H19      1.0000 0.67870  0.89370  0.00470  Biso   1.000  H
  C32      1.0000 0.61050  0.97652  0.08152  Biso   1.000  C
  C33      1.0000 0.55500  0.97936  0.15450  Biso   1.000  C
  H20      1.0000 0.53980  0.03640  0.17270  Biso   1.000  H
  C34      1.0000 0.52190  0.89583  0.20048  Biso   1.000  C
  C35      1.0000 0.54300  0.81325  0.17069  Biso   1.000  C
  H21      1.0000 0.51830  0.75720  0.20080  Biso   1.000  H
  C36      1.0000 0.46700  0.89330  0.28253  Biso   1.000  C
  H22      1.0000 0.50680  0.86690  0.50750  Biso   1.000  H
  H23      1.0000 0.50500  0.62660  0.94100  Biso   1.000  H
  O21      1.0000 0.74700  0.04800  0.99190  Biso   1.000  O
  O22      1.0000 0.84100  0.46320  0.72350  Biso   1.000  O
  O23      1.0000 0.21890  0.85950  0.85720  Biso   1.000  O
  O24      1.0000 0.81900  0.56300  0.61530  Biso   1.000  O
  O25      1.0000 0.76570  0.61350  0.66250  Biso   1.000  O
  Co5      1.0000 0.73240  0.11121  0.49165  Biso   1.000  Co
  Co6      1.0000 0.50722  0.98082  0.59397  Biso   1.000  Co
  Co7      1.0000 0.26338  0.41332  0.02526  Biso   1.000  Co
  Co8      1.0000 0.49938  0.53599  0.08195  Biso   1.000  Co
  O26      1.0000 0.18167  0.97074  0.40875  Biso   1.000  O
  O27      1.0000 0.30311  0.08722  0.39864  Biso   1.000  O
  O28      1.0000 0.25862  0.33963  0.15371  Biso   1.000  O
  O29      1.0000 0.09747  0.35375  0.07296  Biso   1.000  O
  O30      1.0000 0.72195  0.21668  0.38203  Biso   1.000  O
  O31      1.0000 0.90466  0.17973  0.44184  Biso   1.000  O
  O32      1.0000 0.55295  0.08340  0.49779  Biso   1.000  O
  O33      1.0000 0.82119  0.53965  0.08472  Biso   1.000  O
  O34      1.0000 0.66790  0.45189  0.12653  Biso   1.000  O
  O35      1.0000 0.44473  0.42654  0.03844  Biso   1.000  O
  O36      1.0000 0.55147  0.03066  0.69329  Biso   1.000  O
  O37      1.0000 0.55150  0.18567  0.67837  Biso   1.000  O
  O38      1.0000 0.31790  0.28176  0.99348  Biso   1.000  O
  O39      1.0000 0.44292  0.34352  0.89517  Biso   1.000  O
  O40      1.0000 0.40890  0.86069  0.95653  Biso   1.000  O
  O41      1.0000 0.29460  0.93670  0.02760  Biso   1.000  O
  O42      1.0000 0.18020  0.51720  0.25260  Biso   1.000  O
  O43      1.0000 0.21110  0.41320  0.36280  Biso   1.000  O
  O44      1.0000 0.81710  0.01500  0.23391  Biso   1.000  O
  O45      1.0000 0.83810  0.09340  0.11400  Biso   1.000  O
  N10      1.0000 0.77570  0.99525  0.43389  Biso   1.000  N
  N11      1.0000 0.68245  0.95498  0.40488  Biso   1.000  N
  N12      1.0000 0.85650  0.86157  0.40565  Biso   1.000  N
  N13      1.0000 0.13330  0.69250  0.05414  Biso   1.000  N
  N14      1.0000 0.21853  0.55034  0.05089  Biso   1.000  N
  N15      1.0000 0.31203  0.60443  0.05956  Biso   1.000  N
  N16      1.0000 0.35810  0.93559  0.96933  Biso   1.000  N
  N17      1.0000 0.85600  0.08100  0.19080  Biso   1.000  N
  N18      1.0000 0.14800  0.45210  0.30380  Biso   1.000  N
  C37      1.0000 0.87910  0.93750  0.43433  Biso   1.000  C
  H24      1.0000 0.95740  0.94780  0.45210  Biso   1.000  H
  C38      1.0000 0.73350  0.87530  0.38790  Biso   1.000  C
  H25      1.0000 0.69040  0.83350  0.36640  Biso   1.000  H
  C39      1.0000 0.94850  0.78010  0.39571  Biso   1.000  C
  H26      1.0000 0.02740  0.78400  0.42210  Biso   1.000  H
  H27      1.0000 0.91740  0.72130  0.42170  Biso   1.000  H
  C40      1.0000 0.97160  0.77850  0.30849  Biso   1.000  C
  C41      1.0000 0.89640  0.73410  0.26664  Biso   1.000  C
  H28      1.0000 0.83070  0.70420  0.29290  Biso   1.000  H
  C42      1.0000 0.91670  0.73330  0.18651  Biso   1.000  C
  H29      1.0000 0.86500  0.70260  0.15890  Biso   1.000  H
  C43      1.0000 0.01250  0.77743  0.14681  Biso   1.000  C
  C44      1.0000 0.08820  0.82130  0.18880  Biso   1.000  C
  H30      1.0000 0.15400  0.85110  0.16250  Biso   1.000  H
  C45      1.0000 0.06860  0.82200  0.26850  Biso   1.000  C
  H31      1.0000 0.12100  0.85200  0.29610  Biso   1.000  H
  C46      1.0000 0.03800  0.77270  0.06008  Biso   1.000  C
  H32      1.0000 0.06720  0.83170  0.03250  Biso   1.000  H
  H33      1.0000 0.96060  0.76550  0.03370  Biso   1.000  H
  C47      1.0000 0.11290  0.60467  0.04787  Biso   1.000  C
  H34      1.0000 0.03410  0.58550  0.04220  Biso   1.000  H
  C48      1.0000 0.25790  0.68879  0.06198  Biso   1.000  C
  H35      1.0000 0.29990  0.73980  0.06830  Biso   1.000  H
  C49      1.0000 0.21410  0.05046  0.37658  Biso   1.000  C
  C50      1.0000 0.13770  0.10340  0.30488  Biso   1.000  C
  C51      1.0000 0.17600  0.18443  0.25808  Biso   1.000  C
  H36      1.0000 0.24780  0.20770  0.27300  Biso   1.000  H
  C52      1.0000 0.10890  0.23151  0.18929  Biso   1.000  C
  C53      1.0000 0.00320  0.19870  0.16719  Biso   1.000  C
  H37      1.0000 0.95730  0.22980  0.12090  Biso   1.000  H
  C54      1.0000 0.96620  0.11840  0.21502  Biso   1.000  C
  C55      1.0000 0.03160  0.06980  0.28220  Biso   1.000  C
  H38      1.0000 0.00490  0.01450  0.31240  Biso   1.000  H
  C56      1.0000 0.15680  0.31426  0.13598  Biso   1.000  C
  C57      1.0000 0.77330  0.47632  0.13380  Biso   1.000  C
  C58      1.0000 0.85020  0.42907  0.20681  Biso   1.000  C
  C59      1.0000 0.81050  0.35297  0.26080  Biso   1.000  C
  H39      1.0000 0.73460  0.33130  0.25120  Biso   1.000  H
  C60      1.0000 0.88200  0.30879  0.32876  Biso   1.000  C
  C61      1.0000 0.99370  0.34092  0.34371  Biso   1.000  C
  H40      1.0000 0.04310  0.31190  0.38910  Biso   1.000  H
  C62      1.0000 0.03010  0.41710  0.28961  Biso   1.000  C
  C63      1.0000 0.96080  0.46150  0.22215  Biso   1.000  C
  H41      1.0000 0.98850  0.51310  0.18700  Biso   1.000  H
  C64      1.0000 0.83560  0.22948  0.38784  Biso   1.000  C
  C65      1.0000 0.38510  0.27845  0.93310  Biso   1.000  C
  C66      1.0000 0.40080  0.18822  0.90215  Biso   1.000  C
  C67      1.0000 0.36340  0.10590  0.94686  Biso   1.000  C
  H42      1.0000 0.32130  0.10630  0.99530  Biso   1.000  H
  C68      1.0000 0.38950  0.02348  0.91848  Biso   1.000  C
  C69      1.0000 0.44500  0.02064  0.84550  Biso   1.000  C
  H43      1.0000 0.46020  0.96360  0.82730  Biso   1.000  H
  C70      1.0000 0.47810  0.10417  0.79952  Biso   1.000  C
  C71      1.0000 0.45700  0.18675  0.82931  Biso   1.000  C
  H44      1.0000 0.48170  0.24280  0.79920  Biso   1.000  H
  C72      1.0000 0.53300  0.10670  0.71747  Biso   1.000  C
  H45      1.0000 0.49320  0.13310  0.49250  Biso   1.000  H
  H46      1.0000 0.49500  0.37340  0.05900  Biso   1.000  H
  O46      1.0000 0.25300  0.95200  0.00810  Biso   1.000  O
  O47      1.0000 0.15900  0.53680  0.27650  Biso   1.000  O
  O48      1.0000 0.78110  0.14050  0.14280  Biso   1.000  O
  O49      1.0000 0.18100  0.43700  0.38470  Biso   1.000  O
  O50      1.0000 0.23430  0.38650  0.33750  Biso   1.000  O
