data_image0
_cell_length_a       14.099
_cell_length_b       10.997
_cell_length_c       21.865
_cell_angle_alpha    90
_cell_angle_beta     93.971
_cell_angle_gamma    90

_symmetry_space_group_name_H-M    "P 1"
_symmetry_int_tables_number       1

loop_
  _symmetry_equiv_pos_as_xyz
  'x, y, z'

loop_
  _atom_site_label
  _atom_site_occupancy
  _atom_site_fract_x
  _atom_site_fract_y
  _atom_site_fract_z
  _atom_site_thermal_displace_type
  _atom_site_B_iso_or_equiv
  _atom_site_type_symbol
  Zn1      1.0000 0.82008  0.29753  0.08706  Biso   1.000  Zn
  O1       1.0000 0.63450  0.47890  0.07440  Biso   1.000  O
  N1       1.0000 0.96620  0.29660  0.08920  Biso   1.000  N
  C1       1.0000 0.71430  0.53290  0.07990  Biso   1.000  C
  Zn2      1.0000 0.61069  0.29709  0.07720  Biso   1.000  Zn
  O2       1.0000 0.79170  0.48080  0.08730  Biso   1.000  O
  N2       1.0000 0.46650  0.29670  0.08140  Biso   1.000  N
  C2       1.0000 0.71170  0.66970  0.08020  Biso   1.000  C
  O3       1.0000 0.63250  0.11380  0.07780  Biso   1.000  O
  C3       1.0000 0.79490  0.73730  0.08790  Biso   1.000  C
  H1       1.0000 0.85250  0.69620  0.09340  Biso   1.000  H
  O4       1.0000 0.78980  0.11470  0.08370  Biso   1.000  O
  C4       1.0000 0.62740  0.73420  0.07320  Biso   1.000  C
  H2       1.0000 0.57020  0.69210  0.06800  Biso   1.000  H
  O5       1.0000 0.64810  0.29900  0.16940  Biso   1.000  O
  C5       1.0000 0.71200  0.92610  0.07930  Biso   1.000  C
  O6       1.0000 0.80800  0.28880  0.17890  Biso   1.000  O
  C6       1.0000 0.62640  0.85920  0.07360  Biso   1.000  C
  H3       1.0000 0.56860  0.90020  0.07010  Biso   1.000  H
  O7       1.0000 0.63300  0.21060  0.48450  Biso   1.000  O
  C7       1.0000 0.79570  0.86160  0.08760  Biso   1.000  C
  H4       1.0000 0.85320  0.90290  0.09300  Biso   1.000  H
  O8       1.0000 0.79420  0.19690  0.49230  Biso   1.000  O
  C8       1.0000 0.71160  0.06220  0.07930  Biso   1.000  C
  C9       1.0000 0.72490  0.28660  0.20180  Biso   1.000  C
  C10      1.0000 0.72470  0.26760  0.26730  Biso   1.000  C
  C11      1.0000 0.80520  0.23510  0.30340  Biso   1.000  C
  H5       1.0000 0.86230  0.22400  0.28530  Biso   1.000  H
  C12      1.0000 0.80240  0.21880  0.36510  Biso   1.000  C
  H6       1.0000 0.85810  0.19880  0.38810  Biso   1.000  H
  C13      1.0000 0.71690  0.23160  0.39530  Biso   1.000  C
  C14      1.0000 0.63680  0.26280  0.35820  Biso   1.000  C
  H7       1.0000 0.57970  0.27370  0.37630  Biso   1.000  H
  C15      1.0000 0.63810  0.27830  0.29590  Biso   1.000  C
  H8       1.0000 0.58210  0.29570  0.27250  Biso   1.000  H
  C16      1.0000 0.71560  0.21140  0.46250  Biso   1.000  C
  C17      1.0000 0.41420  0.39790  0.07460  Biso   1.000  C
  H9       1.0000 0.44570  0.47200  0.07350  Biso   1.000  H
  C18      1.0000 0.31330  0.39870  0.06900  Biso   1.000  C
  H10      1.0000 0.27930  0.46560  0.05340  Biso   1.000  H
  C19      1.0000 0.26900  0.29720  0.08750  Biso   1.000  C
  C20      1.0000 0.32740  0.19750  0.10760  Biso   1.000  C
  H11      1.0000 0.30040  0.13130  0.12630  Biso   1.000  H
  C21      1.0000 0.42160  0.19800  0.10000  Biso   1.000  C
  H12      1.0000 0.45630  0.12710  0.10800  Biso   1.000  H
  C22      1.0000 0.00850  0.37250  0.05660  Biso   1.000  C
  H13      1.0000 0.97310  0.43550  0.03800  Biso   1.000  H
  C23      1.0000 0.11090  0.36560  0.04680  Biso   1.000  C
  H14      1.0000 0.13670  0.40440  0.01400  Biso   1.000  H
  C24      1.0000 0.16590  0.29890  0.08860  Biso   1.000  C
  C25      1.0000 0.11890  0.22870  0.13410  Biso   1.000  C
  H15      1.0000 0.15150  0.19120  0.16740  Biso   1.000  H
  C26      1.0000 0.01930  0.22290  0.12310  Biso   1.000  C
  H16      1.0000 0.98850  0.15990  0.14200  Biso   1.000  H
  C27      1.0000 0.32080  0.40600  0.09040  Biso   1.000  C
  H17      1.0000 0.29430  0.47920  0.10220  Biso   1.000  H
  C28      1.0000 0.31820  0.18670  0.08630  Biso   1.000  C
  H18      1.0000 0.28760  0.11230  0.08950  Biso   1.000  H
  C29      1.0000 0.41650  0.19450  0.08010  Biso   1.000  C
  H19      1.0000 0.44900  0.12230  0.07460  Biso   1.000  H
  C30      1.0000 0.10940  0.39800  0.06490  Biso   1.000  C
  H20      1.0000 0.13520  0.47330  0.05550  Biso   1.000  H
  C31      1.0000 0.11280  0.20700  0.11610  Biso   1.000  C
  H21      1.0000 0.14250  0.13490  0.12940  Biso   1.000  H
  Zn3      1.0000 0.82008  0.20247  0.58706  Biso   1.000  Zn
  O9       1.0000 0.63450  0.02110  0.57440  Biso   1.000  O
  N3       1.0000 0.96620  0.20340  0.58920  Biso   1.000  N
  C32      1.0000 0.71430  0.96710  0.57990  Biso   1.000  C
  Zn4      1.0000 0.61069  0.20291  0.57720  Biso   1.000  Zn
  O10      1.0000 0.79170  0.01920  0.58730  Biso   1.000  O
  N4       1.0000 0.46650  0.20330  0.58140  Biso   1.000  N
  C33      1.0000 0.71170  0.83030  0.58020  Biso   1.000  C
  O11      1.0000 0.63250  0.38620  0.57780  Biso   1.000  O
  C34      1.0000 0.79490  0.76270  0.58790  Biso   1.000  C
  H22      1.0000 0.85250  0.80380  0.59340  Biso   1.000  H
  O12      1.0000 0.78980  0.38530  0.58370  Biso   1.000  O
  C35      1.0000 0.62740  0.76580  0.57320  Biso   1.000  C
  H23      1.0000 0.57020  0.80790  0.56800  Biso   1.000  H
  O13      1.0000 0.64810  0.20100  0.66940  Biso   1.000  O
  C36      1.0000 0.71200  0.57390  0.57930  Biso   1.000  C
  O14      1.0000 0.80800  0.21120  0.67890  Biso   1.000  O
  C37      1.0000 0.62640  0.64080  0.57360  Biso   1.000  C
  H24      1.0000 0.56860  0.59980  0.57010  Biso   1.000  H
  O15      1.0000 0.63300  0.28940  0.98450  Biso   1.000  O
  C38      1.0000 0.79570  0.63840  0.58760  Biso   1.000  C
  H25      1.0000 0.85320  0.59710  0.59300  Biso   1.000  H
  O16      1.0000 0.79420  0.30310  0.99230  Biso   1.000  O
  C39      1.0000 0.71160  0.43780  0.57930  Biso   1.000  C
  C40      1.0000 0.72490  0.21340  0.70180  Biso   1.000  C
  C41      1.0000 0.72470  0.23240  0.76730  Biso   1.000  C
  C42      1.0000 0.80520  0.26490  0.80340  Biso   1.000  C
  H26      1.0000 0.86230  0.27600  0.78530  Biso   1.000  H
  C43      1.0000 0.80240  0.28120  0.86510  Biso   1.000  C
  H27      1.0000 0.85810  0.30120  0.88810  Biso   1.000  H
  C44      1.0000 0.71690  0.26840  0.89530  Biso   1.000  C
  C45      1.0000 0.63680  0.23720  0.85820  Biso   1.000  C
  H28      1.0000 0.57970  0.22630  0.87630  Biso   1.000  H
  C46      1.0000 0.63810  0.22170  0.79590  Biso   1.000  C
  H29      1.0000 0.58210  0.20430  0.77250  Biso   1.000  H
  C47      1.0000 0.71560  0.28860  0.96250  Biso   1.000  C
  C48      1.0000 0.41420  0.10210  0.57460  Biso   1.000  C
  H30      1.0000 0.44570  0.02800  0.57350  Biso   1.000  H
  C49      1.0000 0.31330  0.10130  0.56900  Biso   1.000  C
  H31      1.0000 0.27930  0.03440  0.55340  Biso   1.000  H
  C50      1.0000 0.26900  0.20280  0.58750  Biso   1.000  C
  C51      1.0000 0.32740  0.30250  0.60760  Biso   1.000  C
  H32      1.0000 0.30040  0.36870  0.62630  Biso   1.000  H
  C52      1.0000 0.42160  0.30200  0.60000  Biso   1.000  C
  H33      1.0000 0.45630  0.37290  0.60800  Biso   1.000  H
  C53      1.0000 0.00850  0.12750  0.55660  Biso   1.000  C
  H34      1.0000 0.97310  0.06450  0.53800  Biso   1.000  H
  C54      1.0000 0.11090  0.13440  0.54680  Biso   1.000  C
  H35      1.0000 0.13670  0.09560  0.51400  Biso   1.000  H
  C55      1.0000 0.16590  0.20110  0.58860  Biso   1.000  C
  C56      1.0000 0.11890  0.27130  0.63410  Biso   1.000  C
  H36      1.0000 0.15150  0.30880  0.66740  Biso   1.000  H
  C57      1.0000 0.01930  0.27710  0.62310  Biso   1.000  C
  H37      1.0000 0.98850  0.34010  0.64200  Biso   1.000  H
  C58      1.0000 0.32080  0.09400  0.59040  Biso   1.000  C
  H38      1.0000 0.29430  0.02080  0.60220  Biso   1.000  H
  C59      1.0000 0.31820  0.31330  0.58630  Biso   1.000  C
  H39      1.0000 0.28760  0.38770  0.58950  Biso   1.000  H
  C60      1.0000 0.41650  0.30550  0.58010  Biso   1.000  C
  H40      1.0000 0.44900  0.37770  0.57460  Biso   1.000  H
  C61      1.0000 0.10940  0.10200  0.56490  Biso   1.000  C
  H41      1.0000 0.13520  0.02670  0.55550  Biso   1.000  H
  C62      1.0000 0.11280  0.29300  0.61610  Biso   1.000  C
  H42      1.0000 0.14250  0.36510  0.62940  Biso   1.000  H
  Zn5      1.0000 0.17992  0.79753  0.41294  Biso   1.000  Zn
  O17      1.0000 0.36550  0.97890  0.42560  Biso   1.000  O
  N5       1.0000 0.03380  0.79660  0.41080  Biso   1.000  N
  C63      1.0000 0.28570  0.03290  0.42010  Biso   1.000  C
  Zn6      1.0000 0.38931  0.79709  0.42280  Biso   1.000  Zn
  O18      1.0000 0.20830  0.98080  0.41270  Biso   1.000  O
  N6       1.0000 0.53350  0.79670  0.41860  Biso   1.000  N
  C64      1.0000 0.28830  0.16970  0.41980  Biso   1.000  C
  O19      1.0000 0.36750  0.61380  0.42220  Biso   1.000  O
  C65      1.0000 0.20510  0.23730  0.41210  Biso   1.000  C
  H43      1.0000 0.14750  0.19620  0.40660  Biso   1.000  H
  O20      1.0000 0.21020  0.61470  0.41630  Biso   1.000  O
  C66      1.0000 0.37260  0.23420  0.42680  Biso   1.000  C
  H44      1.0000 0.42980  0.19210  0.43200  Biso   1.000  H
  O21      1.0000 0.35190  0.79900  0.33060  Biso   1.000  O
  C67      1.0000 0.28800  0.42610  0.42070  Biso   1.000  C
  O22      1.0000 0.19200  0.78880  0.32110  Biso   1.000  O
  C68      1.0000 0.37360  0.35920  0.42640  Biso   1.000  C
  H45      1.0000 0.43140  0.40020  0.42990  Biso   1.000  H
  O23      1.0000 0.36700  0.71060  0.01550  Biso   1.000  O
  C69      1.0000 0.20430  0.36160  0.41240  Biso   1.000  C
  H46      1.0000 0.14680  0.40290  0.40700  Biso   1.000  H
  O24      1.0000 0.20580  0.69690  0.00770  Biso   1.000  O
  C70      1.0000 0.28840  0.56220  0.42070  Biso   1.000  C
  C71      1.0000 0.27510  0.78660  0.29820  Biso   1.000  C
  C72      1.0000 0.27530  0.76760  0.23270  Biso   1.000  C
  C73      1.0000 0.19480  0.73510  0.19660  Biso   1.000  C
  H47      1.0000 0.13770  0.72400  0.21470  Biso   1.000  H
  C74      1.0000 0.19760  0.71880  0.13490  Biso   1.000  C
  H48      1.0000 0.14190  0.69880  0.11190  Biso   1.000  H
  C75      1.0000 0.28310  0.73160  0.10470  Biso   1.000  C
  C76      1.0000 0.36320  0.76280  0.14180  Biso   1.000  C
  H49      1.0000 0.42030  0.77370  0.12370  Biso   1.000  H
  C77      1.0000 0.36190  0.77830  0.20410  Biso   1.000  C
  H50      1.0000 0.41790  0.79570  0.22750  Biso   1.000  H
  C78      1.0000 0.28440  0.71140  0.03750  Biso   1.000  C
  C79      1.0000 0.58580  0.89790  0.42540  Biso   1.000  C
  H51      1.0000 0.55430  0.97200  0.42650  Biso   1.000  H
  C80      1.0000 0.68670  0.89870  0.43100  Biso   1.000  C
  H52      1.0000 0.72070  0.96560  0.44660  Biso   1.000  H
  C81      1.0000 0.73100  0.79720  0.41250  Biso   1.000  C
  C82      1.0000 0.67260  0.69750  0.39240  Biso   1.000  C
  H53      1.0000 0.69960  0.63130  0.37370  Biso   1.000  H
  C83      1.0000 0.57840  0.69800  0.40000  Biso   1.000  C
  H54      1.0000 0.54370  0.62710  0.39200  Biso   1.000  H
  C84      1.0000 0.99150  0.87250  0.44340  Biso   1.000  C
  H55      1.0000 0.02690  0.93550  0.46200  Biso   1.000  H
  C85      1.0000 0.88910  0.86560  0.45320  Biso   1.000  C
  H56      1.0000 0.86330  0.90440  0.48600  Biso   1.000  H
  C86      1.0000 0.83410  0.79890  0.41140  Biso   1.000  C
  C87      1.0000 0.88110  0.72870  0.36590  Biso   1.000  C
  H57      1.0000 0.84850  0.69120  0.33260  Biso   1.000  H
  C88      1.0000 0.98070  0.72290  0.37690  Biso   1.000  C
  H58      1.0000 0.01150  0.65990  0.35800  Biso   1.000  H
  C89      1.0000 0.67920  0.90600  0.40960  Biso   1.000  C
  H59      1.0000 0.70570  0.97920  0.39780  Biso   1.000  H
  C90      1.0000 0.68180  0.68670  0.41370  Biso   1.000  C
  H60      1.0000 0.71240  0.61230  0.41050  Biso   1.000  H
  C91      1.0000 0.58350  0.69450  0.41990  Biso   1.000  C
  H61      1.0000 0.55100  0.62230  0.42540  Biso   1.000  H
  C92      1.0000 0.89060  0.89800  0.43510  Biso   1.000  C
  H62      1.0000 0.86480  0.97330  0.44450  Biso   1.000  H
  C93      1.0000 0.88720  0.70700  0.38390  Biso   1.000  C
  H63      1.0000 0.85750  0.63490  0.37060  Biso   1.000  H
  Zn7      1.0000 0.17992  0.70247  0.91294  Biso   1.000  Zn
  O25      1.0000 0.36550  0.52110  0.92560  Biso   1.000  O
  N7       1.0000 0.03380  0.70340  0.91080  Biso   1.000  N
  C94      1.0000 0.28570  0.46710  0.92010  Biso   1.000  C
  Zn8      1.0000 0.38931  0.70291  0.92280  Biso   1.000  Zn
  O26      1.0000 0.20830  0.51920  0.91270  Biso   1.000  O
  N8       1.0000 0.53350  0.70330  0.91860  Biso   1.000  N
  C95      1.0000 0.28830  0.33030  0.91980  Biso   1.000  C
  O27      1.0000 0.36750  0.88620  0.92220  Biso   1.000  O
  C96      1.0000 0.20510  0.26270  0.91210  Biso   1.000  C
  H64      1.0000 0.14750  0.30380  0.90660  Biso   1.000  H
  O28      1.0000 0.21020  0.88530  0.91630  Biso   1.000  O
  C97      1.0000 0.37260  0.26580  0.92680  Biso   1.000  C
  H65      1.0000 0.42980  0.30790  0.93200  Biso   1.000  H
  O29      1.0000 0.35190  0.70100  0.83060  Biso   1.000  O
  C98      1.0000 0.28800  0.07390  0.92070  Biso   1.000  C
  O30      1.0000 0.19200  0.71120  0.82110  Biso   1.000  O
  C99      1.0000 0.37360  0.14080  0.92640  Biso   1.000  C
  H66      1.0000 0.43140  0.09980  0.92990  Biso   1.000  H
  O31      1.0000 0.36700  0.78940  0.51550  Biso   1.000  O
  C100     1.0000 0.20430  0.13840  0.91240  Biso   1.000  C
  H67      1.0000 0.14680  0.09710  0.90700  Biso   1.000  H
  O32      1.0000 0.20580  0.80310  0.50770  Biso   1.000  O
  C101     1.0000 0.28840  0.93780  0.92070  Biso   1.000  C
  C102     1.0000 0.27510  0.71340  0.79820  Biso   1.000  C
  C103     1.0000 0.27530  0.73240  0.73270  Biso   1.000  C
  C104     1.0000 0.19480  0.76490  0.69660  Biso   1.000  C
  H68      1.0000 0.13770  0.77600  0.71470  Biso   1.000  H
  C105     1.0000 0.19760  0.78120  0.63490  Biso   1.000  C
  H69      1.0000 0.14190  0.80120  0.61190  Biso   1.000  H
  C106     1.0000 0.28310  0.76840  0.60470  Biso   1.000  C
  C107     1.0000 0.36320  0.73720  0.64180  Biso   1.000  C
  H70      1.0000 0.42030  0.72630  0.62370  Biso   1.000  H
  C108     1.0000 0.36190  0.72170  0.70410  Biso   1.000  C
  H71      1.0000 0.41790  0.70430  0.72750  Biso   1.000  H
  C109     1.0000 0.28440  0.78860  0.53750  Biso   1.000  C
  C110     1.0000 0.58580  0.60210  0.92540  Biso   1.000  C
  H72      1.0000 0.55430  0.52800  0.92650  Biso   1.000  H
  C111     1.0000 0.68670  0.60130  0.93100  Biso   1.000  C
  H73      1.0000 0.72070  0.53440  0.94660  Biso   1.000  H
  C112     1.0000 0.73100  0.70280  0.91250  Biso   1.000  C
  C113     1.0000 0.67260  0.80250  0.89240  Biso   1.000  C
  H74      1.0000 0.69960  0.86870  0.87370  Biso   1.000  H
  C114     1.0000 0.57840  0.80200  0.90000  Biso   1.000  C
  H75      1.0000 0.54370  0.87290  0.89200  Biso   1.000  H
  C115     1.0000 0.99150  0.62750  0.94340  Biso   1.000  C
  H76      1.0000 0.02690  0.56450  0.96200  Biso   1.000  H
  C116     1.0000 0.88910  0.63440  0.95320  Biso   1.000  C
  H77      1.0000 0.86330  0.59560  0.98600  Biso   1.000  H
  C117     1.0000 0.83410  0.70110  0.91140  Biso   1.000  C
  C118     1.0000 0.88110  0.77130  0.86590  Biso   1.000  C
  H78      1.0000 0.84850  0.80880  0.83260  Biso   1.000  H
  C119     1.0000 0.98070  0.77710  0.87690  Biso   1.000  C
  H79      1.0000 0.01150  0.84010  0.85800  Biso   1.000  H
  C120     1.0000 0.67920  0.59400  0.90960  Biso   1.000  C
  H80      1.0000 0.70570  0.52080  0.89780  Biso   1.000  H
  C121     1.0000 0.68180  0.81330  0.91370  Biso   1.000  C
  H81      1.0000 0.71240  0.88770  0.91050  Biso   1.000  H
  C122     1.0000 0.58350  0.80550  0.91990  Biso   1.000  C
  H82      1.0000 0.55100  0.87770  0.92540  Biso   1.000  H
  C123     1.0000 0.89060  0.60200  0.93510  Biso   1.000  C
  H83      1.0000 0.86480  0.52670  0.94450  Biso   1.000  H
  C124     1.0000 0.88720  0.79300  0.88390  Biso   1.000  C
  H84      1.0000 0.85750  0.86510  0.87060  Biso   1.000  H
