data_image0
_cell_length_a       13.798
_cell_length_b       16.605
_cell_length_c       24.133
_cell_angle_alpha    106.906
_cell_angle_beta     99.469
_cell_angle_gamma    90.184

_symmetry_space_group_name_H-M    "P 1"
_symmetry_int_tables_number       1

loop_
  _symmetry_equiv_pos_as_xyz
  'x, y, z'

loop_
  _atom_site_label
  _atom_site_occupancy
  _atom_site_fract_x
  _atom_site_fract_y
  _atom_site_fract_z
  _atom_site_thermal_displace_type
  _atom_site_B_iso_or_equiv
  _atom_site_type_symbol
  Zn1      1.0000 0.66300  0.44539  0.43435  Biso   1.000  Zn
  Zn2      1.0000 0.63571  0.40278  0.30556  Biso   1.000  Zn
  Zn3      1.0000 0.16525  0.95509  0.43131  Biso   1.000  Zn
  Zn4      1.0000 0.13232  0.88977  0.30129  Biso   1.000  Zn
  O1       1.0000 0.74287  0.34211  0.40893  Biso   1.000  O
  O2       1.0000 0.72299  0.30756  0.31092  Biso   1.000  O
  O3       1.0000 0.54268  0.36385  0.41584  Biso   1.000  O
  O4       1.0000 0.52318  0.33383  0.31831  Biso   1.000  O
  O5       1.0000 0.56067  0.50769  0.33146  Biso   1.000  O
  O6       1.0000 0.57230  0.53995  0.42898  Biso   1.000  O
  O7       1.0000 0.77031  0.51685  0.41944  Biso   1.000  O
  O8       1.0000 0.75694  0.48025  0.32161  Biso   1.000  O
  O9       1.0000 0.27308  0.87387  0.41859  Biso   1.000  O
  O10      1.0000 0.25567  0.83098  0.32006  Biso   1.000  O
  O11      1.0000 0.03949  0.01028  0.40986  Biso   1.000  O
  O12      1.0000 0.02070  0.97037  0.31120  Biso   1.000  O
  O13      1.0000 0.22886  0.02681  0.38843  Biso   1.000  O
  O14      1.0000 0.21315  0.98628  0.29055  Biso   1.000  O
  O15      1.0000 0.08036  0.86196  0.44360  Biso   1.000  O
  O16      1.0000 0.06538  0.82092  0.34562  Biso   1.000  O
  N1       1.0000 0.21188  0.03491  0.51285  Biso   1.000  N
  N2       1.0000 0.59348  0.37308  0.21739  Biso   1.000  N
  N3       1.0000 0.07530  0.81208  0.21996  Biso   1.000  N
  N4       1.0000 0.70187  0.46668  0.52269  Biso   1.000  N
  C1       1.0000 0.75680  0.29693  0.35978  Biso   1.000  C
  C2       1.0000 0.81860  0.22255  0.35914  Biso   1.000  C
  C3       1.0000 0.85170  0.20342  0.41107  Biso   1.000  C
  H1       1.0000 0.83420  0.23710  0.44680  Biso   1.000  H
  C4       1.0000 0.90990  0.13568  0.41124  Biso   1.000  C
  H2       1.0000 0.93220  0.12290  0.44690  Biso   1.000  H
  C5       1.0000 0.93550  0.08638  0.35884  Biso   1.000  C
  C6       1.0000 0.90130  0.10450  0.30659  Biso   1.000  C
  H3       1.0000 0.91800  0.07040  0.27080  Biso   1.000  H
  C7       1.0000 0.84280  0.17230  0.30649  Biso   1.000  C
  H4       1.0000 0.81940  0.18450  0.27070  Biso   1.000  H
  C8       1.0000 0.00360  0.01661  0.35996  Biso   1.000  C
  C9       1.0000 0.50430  0.32247  0.36440  Biso   1.000  C
  C10      1.0000 0.42960  0.25256  0.35761  Biso   1.000  C
  C11      1.0000 0.39460  0.19680  0.30240  Biso   1.000  C
  H5       1.0000 0.41340  0.20620  0.26850  Biso   1.000  H
  C12      1.0000 0.33260  0.12790  0.29622  Biso   1.000  C
  H6       1.0000 0.30940  0.09000  0.25830  Biso   1.000  H
  C13      1.0000 0.30450  0.11439  0.34552  Biso   1.000  C
  C14      1.0000 0.33560  0.17240  0.40043  Biso   1.000  C
  H7       1.0000 0.31370  0.16490  0.43410  Biso   1.000  H
  C15      1.0000 0.39790  0.24050  0.40631  Biso   1.000  C
  H8       1.0000 0.41920  0.27950  0.44400  Biso   1.000  H
  C16      1.0000 0.24420  0.03674  0.34100  Biso   1.000  C
  C17      1.0000 0.54440  0.55289  0.38015  Biso   1.000  C
  C18      1.0000 0.48440  0.62800  0.37925  Biso   1.000  C
  C19      1.0000 0.44560  0.67175  0.42840  Biso   1.000  C
  H9       1.0000 0.46060  0.65660  0.46380  Biso   1.000  H
  C20      1.0000 0.38520  0.73715  0.42579  Biso   1.000  C
  H10      1.0000 0.35830  0.76660  0.45930  Biso   1.000  H
  C21      1.0000 0.36340  0.76029  0.37407  Biso   1.000  C
  C22      1.0000 0.40390  0.71761  0.32531  Biso   1.000  C
  H11      1.0000 0.39010  0.73350  0.29020  Biso   1.000  H
  C23      1.0000 0.46420  0.65196  0.32794  Biso   1.000  C
  H12      1.0000 0.49200  0.62310  0.29460  Biso   1.000  H
  C24      1.0000 0.79090  0.52590  0.37273  Biso   1.000  C
  C25      1.0000 0.86110  0.59821  0.37853  Biso   1.000  C
  C26      1.0000 0.89190  0.60880  0.32956  Biso   1.000  C
  H13      1.0000 0.87080  0.56890  0.29220  Biso   1.000  H
  C27      1.0000 0.95370  0.67750  0.33455  Biso   1.000  C
  H14      1.0000 0.97500  0.68420  0.30060  Biso   1.000  H
  C28      1.0000 0.98450  0.73642  0.38871  Biso   1.000  C
  C29      1.0000 0.95470  0.72510  0.43788  Biso   1.000  C
  H15      1.0000 0.97630  0.76460  0.47530  Biso   1.000  H
  C30      1.0000 0.89320  0.65610  0.43283  Biso   1.000  C
  H16      1.0000 0.87300  0.64860  0.46690  Biso   1.000  H
  C31      1.0000 0.04850  0.81195  0.39297  Biso   1.000  C
  C32      1.0000 0.29230  0.82774  0.37082  Biso   1.000  C
  C33      1.0000 0.11080  0.74160  0.19368  Biso   1.000  C
  H17      1.0000 0.16880  0.72480  0.21360  Biso   1.000  H
  C34      1.0000 0.07020  0.68940  0.13896  Biso   1.000  C
  H18      1.0000 0.10100  0.63930  0.12190  Biso   1.000  H
  C35      1.0000 0.98620  0.70990  0.10961  Biso   1.000  C
  C36      1.0000 0.93290  0.76860  0.14200  Biso   1.000  C
  H19      1.0000 0.86590  0.77500  0.12780  Biso   1.000  H
  C37      1.0000 0.98010  0.81880  0.19660  Biso   1.000  C
  H20      1.0000 0.94350  0.86050  0.21910  Biso   1.000  H
  C38      1.0000 0.94270  0.66320  0.05045  Biso   1.000  C
  C39      1.0000 0.90820  0.63180  0.00004  Biso   1.000  C
  C40      1.0000 0.87520  0.60200  0.93629  Biso   1.000  C
  C41      1.0000 0.95920  0.56870  0.90331  Biso   1.000  C
  C42      1.0000 0.93120  0.54280  0.84232  Biso   1.000  C
  C43      1.0000 0.82220  0.55210  0.82184  Biso   1.000  C
  C44      1.0000 0.80240  0.64450  0.85012  Biso   1.000  C
  C45      1.0000 0.75880  0.69950  0.82120  Biso   1.000  C
  H21      1.0000 0.74060  0.68220  0.77960  Biso   1.000  H
  C46      1.0000 0.74220  0.78020  0.85402  Biso   1.000  C
  H22      1.0000 0.71280  0.81850  0.83460  Biso   1.000  H
  C47      1.0000 0.76790  0.80590  0.91482  Biso   1.000  C
  H23      1.0000 0.75440  0.86100  0.93670  Biso   1.000  H
  C48      1.0000 0.81320  0.75140  0.94373  Biso   1.000  C
  H24      1.0000 0.83240  0.76930  0.98530  Biso   1.000  H
  C49      1.0000 0.82990  0.67100  0.91134  Biso   1.000  C
  C50      1.0000 0.79580  0.52980  0.91468  Biso   1.000  C
  C51      1.0000 0.76790  0.50290  0.85344  Biso   1.000  C
  C52      1.0000 0.69620  0.43860  0.82691  Biso   1.000  C
  H25      1.0000 0.67740  0.42020  0.78530  Biso   1.000  H
  C53      1.0000 0.65220  0.40160  0.86160  Biso   1.000  C
  H26      1.0000 0.60340  0.35700  0.84370  Biso   1.000  H
  C54      1.0000 0.67870  0.42880  0.92208  Biso   1.000  C
  H27      1.0000 0.64720  0.40340  0.94540  Biso   1.000  H
  C55      1.0000 0.75120  0.49310  0.94920  Biso   1.000  C
  H28      1.0000 0.76960  0.51140  0.99080  Biso   1.000  H
  C56      1.0000 0.79360  0.52550  0.75786  Biso   1.000  C
  C57      1.0000 0.77460  0.50780  0.70584  Biso   1.000  C
  C58      1.0000 0.75070  0.49280  0.64331  Biso   1.000  C
  C59      1.0000 0.67350  0.53290  0.62007  Biso   1.000  C
  H29      1.0000 0.63630  0.57010  0.64530  Biso   1.000  H
  C60      1.0000 0.65100  0.51830  0.55980  Biso   1.000  C
  H30      1.0000 0.59770  0.54590  0.54430  Biso   1.000  H
  C61      1.0000 0.77710  0.42760  0.54509  Biso   1.000  C
  H31      1.0000 0.81330  0.39090  0.51890  Biso   1.000  H
  C62      1.0000 0.80360  0.43890  0.60474  Biso   1.000  C
  H32      1.0000 0.85710  0.41040  0.61920  Biso   1.000  H
  C63      1.0000 0.30470  0.06920  0.52913  Biso   1.000  C
  H33      1.0000 0.34630  0.05960  0.50040  Biso   1.000  H
  C64      1.0000 0.34180  0.11760  0.58593  Biso   1.000  C
  H34      1.0000 0.40710  0.14210  0.59580  Biso   1.000  H
  C65      1.0000 0.28140  0.12990  0.62839  Biso   1.000  C
  C66      1.0000 0.18440  0.09840  0.61082  Biso   1.000  C
  H35      1.0000 0.14030  0.10860  0.63820  Biso   1.000  H
  C67      1.0000 0.15290  0.05187  0.55288  Biso   1.000  C
  H36      1.0000 0.08620  0.03110  0.54100  Biso   1.000  H
  C68      1.0000 0.31950  0.16870  0.68973  Biso   1.000  C
  C69      1.0000 0.35010  0.19090  0.74111  Biso   1.000  C
  C70      1.0000 0.38480  0.21470  0.80480  Biso   1.000  C
  C71      1.0000 0.49290  0.19810  0.82140  Biso   1.000  C
  C72      1.0000 0.55750  0.16430  0.78354  Biso   1.000  C
  H37      1.0000 0.53600  0.14930  0.74220  Biso   1.000  H
  C73      1.0000 0.65400  0.15260  0.80625  Biso   1.000  C
  H38      1.0000 0.69810  0.12880  0.78030  Biso   1.000  H
  C74      1.0000 0.68620  0.17530  0.86668  Biso   1.000  C
  H39      1.0000 0.75230  0.16760  0.88190  Biso   1.000  H
  C75      1.0000 0.62160  0.20940  0.90497  Biso   1.000  C
  H40      1.0000 0.64360  0.22500  0.94630  Biso   1.000  H
  C76      1.0000 0.52570  0.22060  0.88271  Biso   1.000  C
  C77      1.0000 0.44500  0.25620  0.91823  Biso   1.000  C
  C78      1.0000 0.36150  0.18720  0.89638  Biso   1.000  C
  C79      1.0000 0.32940  0.16460  0.83552  Biso   1.000  C
  C80      1.0000 0.25840  0.09960  0.80887  Biso   1.000  C
  H41      1.0000 0.23610  0.08400  0.76760  Biso   1.000  H
  C81      1.0000 0.22010  0.05750  0.84302  Biso   1.000  C
  H42      1.0000 0.17180  0.01260  0.82480  Biso   1.000  H
  C82      1.0000 0.25140  0.08000  0.90327  Biso   1.000  C
  H43      1.0000 0.22420  0.05100  0.92620  Biso   1.000  H
  C83      1.0000 0.32250  0.14510  0.93020  Biso   1.000  C
  H44      1.0000 0.34430  0.16070  0.97150  Biso   1.000  H
  C84      1.0000 0.40820  0.33040  0.89659  Biso   1.000  C
  C85      1.0000 0.37660  0.30870  0.83585  Biso   1.000  C
  C86      1.0000 0.34640  0.36940  0.80911  Biso   1.000  C
  H45      1.0000 0.32510  0.35440  0.76780  Biso   1.000  H
  C87      1.0000 0.34750  0.45280  0.84348  Biso   1.000  C
  H46      1.0000 0.32760  0.49530  0.82550  Biso   1.000  H
  C88      1.0000 0.37770  0.47420  0.90411  Biso   1.000  C
  H47      1.0000 0.37750  0.53120  0.92730  Biso   1.000  H
  C89      1.0000 0.40790  0.41320  0.93095  Biso   1.000  C
  H48      1.0000 0.42810  0.42790  0.97240  Biso   1.000  H
  C90      1.0000 0.47700  0.27970  0.98189  Biso   1.000  C
  C91      1.0000 0.50180  0.29980  0.03376  Biso   1.000  C
  C92      1.0000 0.53240  0.32470  0.09657  Biso   1.000  C
  C93      1.0000 0.62490  0.30590  0.12074  Biso   1.000  C
  H49      1.0000 0.66840  0.27620  0.09620  Biso   1.000  H
  C94      1.0000 0.65240  0.33100  0.18112  Biso   1.000  C
  H50      1.0000 0.71550  0.31800  0.19760  Biso   1.000  H
  C95      1.0000 0.50460  0.39120  0.19382  Biso   1.000  C
  H51      1.0000 0.46260  0.42110  0.21930  Biso   1.000  H
  C96      1.0000 0.47150  0.36810  0.13395  Biso   1.000  C
  H52      1.0000 0.40790  0.38170  0.11860  Biso   1.000  H
  C97      1.0000 0.04970  0.54660  0.92870  Biso   1.000  C
  H53      1.0000 0.06630  0.55880  0.97010  Biso   1.000  H
  C98      1.0000 0.11570  0.50650  0.89280  Biso   1.000  C
  H54      1.0000 0.17970  0.49630  0.91000  Biso   1.000  H
  C99      1.0000 0.08770  0.48150  0.83180  Biso   1.000  C
  H55      1.0000 0.13320  0.45490  0.80750  Biso   1.000  H
  C100     1.0000 0.99370  0.49510  0.80630  Biso   1.000  C
  H56      1.0000 0.97500  0.47700  0.76000  Biso   1.000  H
  C101     1.0000 0.97450  0.80310  0.12850  Biso   1.000  C
  H57      1.0000 0.93520  0.82930  0.10320  Biso   1.000  H
  C102     1.0000 0.02220  0.85050  0.18370  Biso   1.000  C
  H58      1.0000 0.01760  0.90990  0.19590  Biso   1.000  H
  C103     1.0000 0.06270  0.59160  0.92800  Biso   1.000  C
  H59      1.0000 0.08240  0.62110  0.96850  Biso   1.000  H
  C104     1.0000 0.13160  0.56950  0.89140  Biso   1.000  C
  H60      1.0000 0.19930  0.57250  0.90810  Biso   1.000  H
  C105     1.0000 0.10430  0.54350  0.83160  Biso   1.000  C
  H61      1.0000 0.15310  0.53110  0.80720  Biso   1.000  H
  C106     1.0000 0.00430  0.53520  0.80610  Biso   1.000  C
  H62      1.0000 0.98550  0.52460  0.76490  Biso   1.000  H
  Zn5      1.0000 0.33700  0.55461  0.56565  Biso   1.000  Zn
  Zn6      1.0000 0.36429  0.59722  0.69444  Biso   1.000  Zn
  Zn7      1.0000 0.83475  0.04491  0.56869  Biso   1.000  Zn
  Zn8      1.0000 0.86768  0.11023  0.69871  Biso   1.000  Zn
  O17      1.0000 0.25713  0.65789  0.59107  Biso   1.000  O
  O18      1.0000 0.27701  0.69244  0.68908  Biso   1.000  O
  O19      1.0000 0.45732  0.63615  0.58416  Biso   1.000  O
  O20      1.0000 0.47682  0.66617  0.68169  Biso   1.000  O
  O21      1.0000 0.43933  0.49231  0.66854  Biso   1.000  O
  O22      1.0000 0.42770  0.46005  0.57102  Biso   1.000  O
  O23      1.0000 0.22969  0.48315  0.58056  Biso   1.000  O
  O24      1.0000 0.24306  0.51975  0.67839  Biso   1.000  O
  O25      1.0000 0.72692  0.12613  0.58141  Biso   1.000  O
  O26      1.0000 0.74433  0.16902  0.67994  Biso   1.000  O
  O27      1.0000 0.96051  0.98972  0.59014  Biso   1.000  O
  O28      1.0000 0.97930  0.02963  0.68880  Biso   1.000  O
  O29      1.0000 0.77114  0.97319  0.61157  Biso   1.000  O
  O30      1.0000 0.78685  0.01372  0.70945  Biso   1.000  O
  O31      1.0000 0.91964  0.13804  0.55640  Biso   1.000  O
  O32      1.0000 0.93462  0.17908  0.65438  Biso   1.000  O
  N5       1.0000 0.78812  0.96509  0.48715  Biso   1.000  N
  N6       1.0000 0.40652  0.62692  0.78261  Biso   1.000  N
  N7       1.0000 0.92470  0.18792  0.78004  Biso   1.000  N
  N8       1.0000 0.29813  0.53332  0.47731  Biso   1.000  N
  C107     1.0000 0.24320  0.70307  0.64022  Biso   1.000  C
  C108     1.0000 0.18140  0.77745  0.64086  Biso   1.000  C
  C109     1.0000 0.14830  0.79658  0.58893  Biso   1.000  C
  H63      1.0000 0.16580  0.76290  0.55320  Biso   1.000  H
  C110     1.0000 0.09010  0.86432  0.58876  Biso   1.000  C
  H64      1.0000 0.06780  0.87710  0.55310  Biso   1.000  H
  C111     1.0000 0.06450  0.91362  0.64116  Biso   1.000  C
  C112     1.0000 0.09870  0.89550  0.69341  Biso   1.000  C
  H65      1.0000 0.08200  0.92960  0.72920  Biso   1.000  H
  C113     1.0000 0.15720  0.82770  0.69351  Biso   1.000  C
  H66      1.0000 0.18060  0.81550  0.72930  Biso   1.000  H
  C114     1.0000 0.99640  0.98339  0.64004  Biso   1.000  C
  C115     1.0000 0.49570  0.67753  0.63560  Biso   1.000  C
  C116     1.0000 0.57040  0.74744  0.64239  Biso   1.000  C
  C117     1.0000 0.60540  0.80320  0.69760  Biso   1.000  C
  H67      1.0000 0.58660  0.79380  0.73150  Biso   1.000  H
  C118     1.0000 0.66740  0.87210  0.70378  Biso   1.000  C
  H68      1.0000 0.69060  0.91000  0.74170  Biso   1.000  H
  C119     1.0000 0.69550  0.88561  0.65448  Biso   1.000  C
  C120     1.0000 0.66440  0.82760  0.59957  Biso   1.000  C
  H69      1.0000 0.68630  0.83510  0.56590  Biso   1.000  H
  C121     1.0000 0.60210  0.75950  0.59369  Biso   1.000  C
  H70      1.0000 0.58080  0.72050  0.55600  Biso   1.000  H
  C122     1.0000 0.75580  0.96326  0.65900  Biso   1.000  C
  C123     1.0000 0.45560  0.44711  0.61985  Biso   1.000  C
  C124     1.0000 0.51560  0.37200  0.62075  Biso   1.000  C
  C125     1.0000 0.55440  0.32825  0.57160  Biso   1.000  C
  H71      1.0000 0.53940  0.34340  0.53620  Biso   1.000  H
  C126     1.0000 0.61480  0.26285  0.57421  Biso   1.000  C
  H72      1.0000 0.64170  0.23340  0.54070  Biso   1.000  H
  C127     1.0000 0.63660  0.23971  0.62593  Biso   1.000  C
  C128     1.0000 0.59610  0.28239  0.67469  Biso   1.000  C
  H73      1.0000 0.60990  0.26650  0.70980  Biso   1.000  H
  C129     1.0000 0.53580  0.34804  0.67206  Biso   1.000  C
  H74      1.0000 0.50800  0.37690  0.70540  Biso   1.000  H
  C130     1.0000 0.20910  0.47410  0.62727  Biso   1.000  C
  C131     1.0000 0.13890  0.40179  0.62147  Biso   1.000  C
  C132     1.0000 0.10810  0.39120  0.67044  Biso   1.000  C
  H75      1.0000 0.12920  0.43110  0.70780  Biso   1.000  H
  C133     1.0000 0.04630  0.32250  0.66545  Biso   1.000  C
  H76      1.0000 0.02500  0.31580  0.69940  Biso   1.000  H
  C134     1.0000 0.01550  0.26358  0.61129  Biso   1.000  C
  C135     1.0000 0.04530  0.27490  0.56212  Biso   1.000  C
  H77      1.0000 0.02370  0.23540  0.52470  Biso   1.000  H
  C136     1.0000 0.10680  0.34390  0.56717  Biso   1.000  C
  H78      1.0000 0.12700  0.35140  0.53310  Biso   1.000  H
  C137     1.0000 0.95150  0.18805  0.60703  Biso   1.000  C
  C138     1.0000 0.70770  0.17226  0.62918  Biso   1.000  C
  C139     1.0000 0.88920  0.25840  0.80632  Biso   1.000  C
  H79      1.0000 0.83120  0.27520  0.78640  Biso   1.000  H
  C140     1.0000 0.92980  0.31060  0.86104  Biso   1.000  C
  H80      1.0000 0.89900  0.36070  0.87810  Biso   1.000  H
  C141     1.0000 0.01380  0.29010  0.89039  Biso   1.000  C
  C142     1.0000 0.06710  0.23140  0.85800  Biso   1.000  C
  H81      1.0000 0.13410  0.22500  0.87220  Biso   1.000  H
  C143     1.0000 0.01990  0.18120  0.80340  Biso   1.000  C
  H82      1.0000 0.05650  0.13950  0.78090  Biso   1.000  H
  C144     1.0000 0.05730  0.33680  0.94955  Biso   1.000  C
  C145     1.0000 0.09180  0.36820  0.99996  Biso   1.000  C
  C146     1.0000 0.12480  0.39800  0.06371  Biso   1.000  C
  C147     1.0000 0.04080  0.43130  0.09669  Biso   1.000  C
  C148     1.0000 0.06880  0.45720  0.15768  Biso   1.000  C
  C149     1.0000 0.17780  0.44790  0.17816  Biso   1.000  C
  C150     1.0000 0.19760  0.35550  0.14988  Biso   1.000  C
  C151     1.0000 0.24120  0.30050  0.17880  Biso   1.000  C
  H83      1.0000 0.25940  0.31780  0.22040  Biso   1.000  H
  C152     1.0000 0.25780  0.21980  0.14598  Biso   1.000  C
  H84      1.0000 0.28720  0.18150  0.16540  Biso   1.000  H
  C153     1.0000 0.23210  0.19410  0.08518  Biso   1.000  C
  H85      1.0000 0.24560  0.13900  0.06330  Biso   1.000  H
  C154     1.0000 0.18680  0.24860  0.05627  Biso   1.000  C
  H86      1.0000 0.16760  0.23070  0.01470  Biso   1.000  H
  C155     1.0000 0.17010  0.32900  0.08866  Biso   1.000  C
  C156     1.0000 0.20420  0.47020  0.08532  Biso   1.000  C
  C157     1.0000 0.23210  0.49710  0.14656  Biso   1.000  C
  C158     1.0000 0.30380  0.56140  0.17309  Biso   1.000  C
  H87      1.0000 0.32260  0.57980  0.21470  Biso   1.000  H
  C159     1.0000 0.34780  0.59840  0.13840  Biso   1.000  C
  H88      1.0000 0.39660  0.64300  0.15630  Biso   1.000  H
  C160     1.0000 0.32130  0.57120  0.07792  Biso   1.000  C
  H89      1.0000 0.35280  0.59660  0.05460  Biso   1.000  H
  C161     1.0000 0.24880  0.50690  0.05080  Biso   1.000  C
  H90      1.0000 0.23040  0.48860  0.00920  Biso   1.000  H
  C162     1.0000 0.20640  0.47450  0.24214  Biso   1.000  C
  C163     1.0000 0.22540  0.49220  0.29416  Biso   1.000  C
  C164     1.0000 0.24930  0.50720  0.35669  Biso   1.000  C
  C165     1.0000 0.32650  0.46710  0.37993  Biso   1.000  C
  H91      1.0000 0.36370  0.42990  0.35470  Biso   1.000  H
  C166     1.0000 0.34900  0.48170  0.44020  Biso   1.000  C
  H92      1.0000 0.40230  0.45410  0.45570  Biso   1.000  H
  C167     1.0000 0.22290  0.57240  0.45491  Biso   1.000  C
  H93      1.0000 0.18670  0.60910  0.48110  Biso   1.000  H
  C168     1.0000 0.19640  0.56110  0.39526  Biso   1.000  C
  H94      1.0000 0.14290  0.58960  0.38080  Biso   1.000  H
  C169     1.0000 0.69530  0.93080  0.47087  Biso   1.000  C
  H95      1.0000 0.65370  0.94040  0.49960  Biso   1.000  H
  C170     1.0000 0.65820  0.88240  0.41407  Biso   1.000  C
  H96      1.0000 0.59290  0.85790  0.40420  Biso   1.000  H
  C171     1.0000 0.71860  0.87010  0.37161  Biso   1.000  C
  C172     1.0000 0.81560  0.90160  0.38918  Biso   1.000  C
  H97      1.0000 0.85970  0.89140  0.36180  Biso   1.000  H
  C173     1.0000 0.84710  0.94813  0.44712  Biso   1.000  C
  H98      1.0000 0.91380  0.96890  0.45900  Biso   1.000  H
  C174     1.0000 0.68050  0.83130  0.31027  Biso   1.000  C
  C175     1.0000 0.64990  0.80910  0.25889  Biso   1.000  C
  C176     1.0000 0.61520  0.78530  0.19520  Biso   1.000  C
  C177     1.0000 0.50710  0.80190  0.17860  Biso   1.000  C
  C178     1.0000 0.44250  0.83570  0.21646  Biso   1.000  C
  H99      1.0000 0.46400  0.85070  0.25780  Biso   1.000  H
  C179     1.0000 0.34600  0.84740  0.19375  Biso   1.000  C
  H100     1.0000 0.30190  0.87120  0.21970  Biso   1.000  H
  C180     1.0000 0.31380  0.82470  0.13332  Biso   1.000  C
  H101     1.0000 0.24770  0.83240  0.11810  Biso   1.000  H
  C181     1.0000 0.37840  0.79060  0.09503  Biso   1.000  C
  H102     1.0000 0.35640  0.77500  0.05370  Biso   1.000  H
  C182     1.0000 0.47430  0.77940  0.11729  Biso   1.000  C
  C183     1.0000 0.55500  0.74380  0.08177  Biso   1.000  C
  C184     1.0000 0.63850  0.81280  0.10362  Biso   1.000  C
  C185     1.0000 0.67060  0.83540  0.16448  Biso   1.000  C
  C186     1.0000 0.74160  0.90040  0.19113  Biso   1.000  C
  H103     1.0000 0.76390  0.91600  0.23240  Biso   1.000  H
  C187     1.0000 0.77990  0.94250  0.15698  Biso   1.000  C
  H104     1.0000 0.82820  0.98740  0.17520  Biso   1.000  H
  C188     1.0000 0.74860  0.92000  0.09673  Biso   1.000  C
  H105     1.0000 0.77580  0.94900  0.07380  Biso   1.000  H
  C189     1.0000 0.67750  0.85490  0.06980  Biso   1.000  C
  H106     1.0000 0.65570  0.83930  0.02850  Biso   1.000  H
  C190     1.0000 0.59180  0.66960  0.10341  Biso   1.000  C
  C191     1.0000 0.62340  0.69130  0.16415  Biso   1.000  C
  C192     1.0000 0.65360  0.63060  0.19089  Biso   1.000  C
  H107     1.0000 0.67490  0.64560  0.23220  Biso   1.000  H
  C193     1.0000 0.65250  0.54720  0.15652  Biso   1.000  C
  H108     1.0000 0.67240  0.50470  0.17450  Biso   1.000  H
  C194     1.0000 0.62230  0.52580  0.09589  Biso   1.000  C
  H109     1.0000 0.62250  0.46880  0.07270  Biso   1.000  H
  C195     1.0000 0.59210  0.58680  0.06905  Biso   1.000  C
  H110     1.0000 0.57190  0.57210  0.02760  Biso   1.000  H
  C196     1.0000 0.52300  0.72030  0.01811  Biso   1.000  C
  C197     1.0000 0.49820  0.70020  0.96624  Biso   1.000  C
  C198     1.0000 0.46760  0.67530  0.90343  Biso   1.000  C
  C199     1.0000 0.37510  0.69410  0.87926  Biso   1.000  C
  H111     1.0000 0.33160  0.72380  0.90380  Biso   1.000  H
  C200     1.0000 0.34760  0.66900  0.81888  Biso   1.000  C
  H112     1.0000 0.28450  0.68200  0.80240  Biso   1.000  H
  C201     1.0000 0.49540  0.60880  0.80618  Biso   1.000  C
  H113     1.0000 0.53740  0.57890  0.78070  Biso   1.000  H
  C202     1.0000 0.52850  0.63190  0.86605  Biso   1.000  C
  H114     1.0000 0.59210  0.61830  0.88140  Biso   1.000  H
  C203     1.0000 0.95030  0.45340  0.07130  Biso   1.000  C
  H115     1.0000 0.93370  0.44120  0.02990  Biso   1.000  H
  C204     1.0000 0.88430  0.49350  0.10720  Biso   1.000  C
  H116     1.0000 0.82030  0.50370  0.09000  Biso   1.000  H
  C205     1.0000 0.91230  0.51850  0.16820  Biso   1.000  C
  H117     1.0000 0.86680  0.54510  0.19250  Biso   1.000  H
  C206     1.0000 0.00630  0.50490  0.19370  Biso   1.000  C
  H118     1.0000 0.02500  0.52300  0.24000  Biso   1.000  H
  C207     1.0000 0.02550  0.19690  0.87150  Biso   1.000  C
  H119     1.0000 0.06480  0.17070  0.89680  Biso   1.000  H
  C208     1.0000 0.97780  0.14950  0.81630  Biso   1.000  C
  H120     1.0000 0.98240  0.09010  0.80410  Biso   1.000  H
  C209     1.0000 0.93730  0.40840  0.07200  Biso   1.000  C
  H121     1.0000 0.91760  0.37890  0.03150  Biso   1.000  H
  C210     1.0000 0.86840  0.43050  0.10860  Biso   1.000  C
  H122     1.0000 0.80070  0.42750  0.09190  Biso   1.000  H
  C211     1.0000 0.89570  0.45650  0.16840  Biso   1.000  C
  H123     1.0000 0.84690  0.46890  0.19280  Biso   1.000  H
  C212     1.0000 0.99570  0.46480  0.19390  Biso   1.000  C
  H124     1.0000 0.01450  0.47540  0.23510  Biso   1.000  H
