data_image0
_cell_length_a       12.3341
_cell_length_b       10.8263
_cell_length_c       18.2036
_cell_angle_alpha    90
_cell_angle_beta     93.488
_cell_angle_gamma    90

_symmetry_space_group_name_H-M    "P 1"
_symmetry_int_tables_number       1

loop_
  _symmetry_equiv_pos_as_xyz
  'x, y, z'

loop_
  _atom_site_label
  _atom_site_occupancy
  _atom_site_fract_x
  _atom_site_fract_y
  _atom_site_fract_z
  _atom_site_thermal_displace_type
  _atom_site_B_iso_or_equiv
  _atom_site_type_symbol
  Zn1      1.0000 0.80114  0.22506  0.28207  Biso   1.000  Zn
  Zn2      1.0000 0.11281  0.09754  0.71765  Biso   1.000  Zn
  O1       1.0000 0.56530  0.38390  0.31630  Biso   1.000  O
  C1       1.0000 0.13200  0.03970  0.46920  Biso   1.000  C
  H1       1.0000 0.13120  0.95880  0.44910  Biso   1.000  H
  O2       1.0000 0.67490  0.22860  0.35296  Biso   1.000  O
  C2       1.0000 0.06230  0.12840  0.43919  Biso   1.000  C
  O3       1.0000 0.42354  0.29020  0.69445  Biso   1.000  O
  H2       1.0000 0.48050  0.33240  0.69280  Biso   1.000  H
  C3       1.0000 0.20430  0.18170  0.56053  Biso   1.000  C
  O4       1.0000 0.21486  0.22137  0.69040  Biso   1.000  O
  C4       1.0000 0.20380  0.06830  0.52900  Biso   1.000  C
  H3       1.0000 0.25320  0.00710  0.54800  Biso   1.000  H
  O5       1.0000 0.98954  0.99470  0.34646  Biso   1.000  O
  O6       1.0000 0.91120  0.17940  0.36196  Biso   1.000  O
  O7       1.0000 0.85340  0.40970  0.30188  Biso   1.000  O
  C5       1.0000 0.13080  0.26740  0.53380  Biso   1.000  C
  H4       1.0000 0.12750  0.34560  0.55730  Biso   1.000  H
  C6       1.0000 0.06040  0.24210  0.47270  Biso   1.000  C
  H5       1.0000 0.01100  0.30360  0.45420  Biso   1.000  H
  O8       1.0000 0.73433  0.53522  0.24058  Biso   1.000  O
  C7       1.0000 0.35880  0.30310  0.62510  Biso   1.000  C
  H6       1.0000 0.31760  0.38260  0.62560  Biso   1.000  H
  C8       1.0000 0.27870  0.19510  0.62970  Biso   1.000  C
  H7       1.0000 0.31990  0.11650  0.63920  Biso   1.000  H
  C9       1.0000 0.42350  0.29900  0.55760  Biso   1.000  C
  C10      1.0000 0.39420  0.37710  0.49950  Biso   1.000  C
  H8       1.0000 0.33480  0.43210  0.50350  Biso   1.000  H
  C11      1.0000 0.44960  0.37640  0.43610  Biso   1.000  C
  H9       1.0000 0.42810  0.43070  0.39690  Biso   1.000  H
  C12      1.0000 0.53590  0.29740  0.42920  Biso   1.000  C
  C13      1.0000 0.56600  0.21840  0.48560  Biso   1.000  C
  H10      1.0000 0.62520  0.16330  0.48100  Biso   1.000  H
  C14      1.0000 0.50950  0.21880  0.55030  Biso   1.000  C
  H11      1.0000 0.53050  0.16370  0.58920  Biso   1.000  H
  C15      1.0000 0.82480  0.50990  0.27503  Biso   1.000  C
  H12      1.0000 0.87570  0.57560  0.28060  Biso   1.000  H
  C16      1.0000 0.59770  0.30060  0.36079  Biso   1.000  C
  C17      1.0000 0.98130  0.09920  0.37723  Biso   1.000  C
  C18      1.0000 0.38110  0.21190  0.63300  Biso   1.000  C
  H13      1.0000 0.38560  0.12250  0.64650  Biso   1.000  H
  C19      1.0000 0.26250  0.25590  0.62650  Biso   1.000  C
  H14      1.0000 0.25760  0.34710  0.61830  Biso   1.000  H
  C20      1.0000 0.44030  0.23780  0.56310  Biso   1.000  C
  C21      1.0000 0.43590  0.35290  0.52920  Biso   1.000  C
  H15      1.0000 0.39840  0.41910  0.55070  Biso   1.000  H
  C22      1.0000 0.48620  0.37110  0.46380  Biso   1.000  C
  H16      1.0000 0.48320  0.44970  0.44060  Biso   1.000  H
  C23      1.0000 0.54110  0.27420  0.43240  Biso   1.000  C
  C24      1.0000 0.54560  0.15920  0.46630  Biso   1.000  C
  H17      1.0000 0.58310  0.09300  0.44480  Biso   1.000  H
  C25      1.0000 0.49520  0.14100  0.53170  Biso   1.000  C
  H18      1.0000 0.49830  0.06240  0.55490  Biso   1.000  H
  Zn3      1.0000 0.69886  0.72506  0.21793  Biso   1.000  Zn
  Zn4      1.0000 0.38719  0.59754  0.78235  Biso   1.000  Zn
  O9       1.0000 0.93470  0.88390  0.18370  Biso   1.000  O
  C26      1.0000 0.36800  0.53970  0.03080  Biso   1.000  C
  H19      1.0000 0.36880  0.45880  0.05090  Biso   1.000  H
  O10      1.0000 0.82510  0.72860  0.14704  Biso   1.000  O
  C27      1.0000 0.43770  0.62840  0.06081  Biso   1.000  C
  O11      1.0000 0.07646  0.79020  0.80555  Biso   1.000  O
  H20      1.0000 0.01950  0.83240  0.80720  Biso   1.000  H
  C28      1.0000 0.29570  0.68170  0.93947  Biso   1.000  C
  O12      1.0000 0.28514  0.72137  0.80960  Biso   1.000  O
  C29      1.0000 0.29620  0.56830  0.97100  Biso   1.000  C
  H21      1.0000 0.24680  0.50710  0.95200  Biso   1.000  H
  O13      1.0000 0.51046  0.49470  0.15354  Biso   1.000  O
  O14      1.0000 0.58880  0.67940  0.13804  Biso   1.000  O
  O15      1.0000 0.64660  0.90970  0.19812  Biso   1.000  O
  C30      1.0000 0.36920  0.76740  0.96620  Biso   1.000  C
  H22      1.0000 0.37250  0.84560  0.94270  Biso   1.000  H
  C31      1.0000 0.43960  0.74210  0.02730  Biso   1.000  C
  H23      1.0000 0.48900  0.80360  0.04580  Biso   1.000  H
  O16      1.0000 0.76567  0.03522  0.25942  Biso   1.000  O
  C32      1.0000 0.14120  0.80310  0.87490  Biso   1.000  C
  H24      1.0000 0.18240  0.88260  0.87440  Biso   1.000  H
  C33      1.0000 0.22130  0.69510  0.87030  Biso   1.000  C
  H25      1.0000 0.18010  0.61650  0.86080  Biso   1.000  H
  C34      1.0000 0.07650  0.79900  0.94240  Biso   1.000  C
  C35      1.0000 0.10580  0.87710  0.00050  Biso   1.000  C
  H26      1.0000 0.16520  0.93210  0.99650  Biso   1.000  H
  C36      1.0000 0.05040  0.87640  0.06390  Biso   1.000  C
  H27      1.0000 0.07190  0.93070  0.10310  Biso   1.000  H
  C37      1.0000 0.96410  0.79740  0.07080  Biso   1.000  C
  C38      1.0000 0.93400  0.71840  0.01440  Biso   1.000  C
  H28      1.0000 0.87480  0.66330  0.01900  Biso   1.000  H
  C39      1.0000 0.99050  0.71880  0.94970  Biso   1.000  C
  H29      1.0000 0.96950  0.66370  0.91080  Biso   1.000  H
  C40      1.0000 0.67520  0.00990  0.22497  Biso   1.000  C
  H30      1.0000 0.62430  0.07560  0.21940  Biso   1.000  H
  C41      1.0000 0.90230  0.80060  0.13921  Biso   1.000  C
  C42      1.0000 0.51870  0.59920  0.12277  Biso   1.000  C
  C43      1.0000 0.11890  0.71190  0.86700  Biso   1.000  C
  H31      1.0000 0.11440  0.62250  0.85350  Biso   1.000  H
  C44      1.0000 0.23750  0.75590  0.87350  Biso   1.000  C
  H32      1.0000 0.24240  0.84710  0.88170  Biso   1.000  H
  C45      1.0000 0.05970  0.73780  0.93690  Biso   1.000  C
  C46      1.0000 0.06410  0.85290  0.97080  Biso   1.000  C
  H33      1.0000 0.10160  0.91910  0.94930  Biso   1.000  H
  C47      1.0000 0.01380  0.87110  0.03620  Biso   1.000  C
  H34      1.0000 0.01680  0.94970  0.05940  Biso   1.000  H
  C48      1.0000 0.95890  0.77420  0.06760  Biso   1.000  C
  C49      1.0000 0.95440  0.65920  0.03370  Biso   1.000  C
  H35      1.0000 0.91690  0.59300  0.05520  Biso   1.000  H
  C50      1.0000 0.00480  0.64100  0.96830  Biso   1.000  C
  H36      1.0000 0.00170  0.56240  0.94510  Biso   1.000  H
  Zn5      1.0000 0.19886  0.77494  0.71793  Biso   1.000  Zn
  Zn6      1.0000 0.88719  0.90246  0.28235  Biso   1.000  Zn
  O17      1.0000 0.43470  0.61610  0.68370  Biso   1.000  O
  C51      1.0000 0.86800  0.96030  0.53080  Biso   1.000  C
  H37      1.0000 0.86880  0.04120  0.55090  Biso   1.000  H
  O18      1.0000 0.32510  0.77140  0.64704  Biso   1.000  O
  C52      1.0000 0.93770  0.87160  0.56081  Biso   1.000  C
  O19      1.0000 0.57646  0.70980  0.30555  Biso   1.000  O
  H38      1.0000 0.51950  0.66760  0.30720  Biso   1.000  H
  C53      1.0000 0.79570  0.81830  0.43947  Biso   1.000  C
  O20      1.0000 0.78514  0.77863  0.30960  Biso   1.000  O
  C54      1.0000 0.79620  0.93170  0.47100  Biso   1.000  C
  H39      1.0000 0.74680  0.99290  0.45200  Biso   1.000  H
  O21      1.0000 0.01046  0.00530  0.65354  Biso   1.000  O
  O22      1.0000 0.08880  0.82060  0.63804  Biso   1.000  O
  O23      1.0000 0.14660  0.59030  0.69812  Biso   1.000  O
  C55      1.0000 0.86920  0.73260  0.46620  Biso   1.000  C
  H40      1.0000 0.87250  0.65440  0.44270  Biso   1.000  H
  C56      1.0000 0.93960  0.75790  0.52730  Biso   1.000  C
  H41      1.0000 0.98900  0.69640  0.54580  Biso   1.000  H
  O24      1.0000 0.26567  0.46478  0.75942  Biso   1.000  O
  C57      1.0000 0.64120  0.69690  0.37490  Biso   1.000  C
  H42      1.0000 0.68240  0.61740  0.37440  Biso   1.000  H
  C58      1.0000 0.72130  0.80490  0.37030  Biso   1.000  C
  H43      1.0000 0.68010  0.88350  0.36080  Biso   1.000  H
  C59      1.0000 0.57650  0.70100  0.44240  Biso   1.000  C
  C60      1.0000 0.60580  0.62290  0.50050  Biso   1.000  C
  H44      1.0000 0.66520  0.56790  0.49650  Biso   1.000  H
  C61      1.0000 0.55040  0.62360  0.56390  Biso   1.000  C
  H45      1.0000 0.57190  0.56930  0.60310  Biso   1.000  H
  C62      1.0000 0.46410  0.70260  0.57080  Biso   1.000  C
  C63      1.0000 0.43400  0.78160  0.51440  Biso   1.000  C
  H46      1.0000 0.37480  0.83670  0.51900  Biso   1.000  H
  C64      1.0000 0.49050  0.78120  0.44970  Biso   1.000  C
  H47      1.0000 0.46950  0.83630  0.41080  Biso   1.000  H
  C65      1.0000 0.17520  0.49010  0.72497  Biso   1.000  C
  H48      1.0000 0.12430  0.42440  0.71940  Biso   1.000  H
  C66      1.0000 0.40230  0.69940  0.63921  Biso   1.000  C
  C67      1.0000 0.01870  0.90080  0.62277  Biso   1.000  C
  C68      1.0000 0.61890  0.78810  0.36700  Biso   1.000  C
  H49      1.0000 0.61440  0.87750  0.35350  Biso   1.000  H
  C69      1.0000 0.73750  0.74410  0.37350  Biso   1.000  C
  H50      1.0000 0.74240  0.65290  0.38170  Biso   1.000  H
  C70      1.0000 0.55970  0.76220  0.43690  Biso   1.000  C
  C71      1.0000 0.56410  0.64710  0.47080  Biso   1.000  C
  H51      1.0000 0.60160  0.58090  0.44930  Biso   1.000  H
  C72      1.0000 0.51380  0.62890  0.53620  Biso   1.000  C
  H52      1.0000 0.51680  0.55030  0.55940  Biso   1.000  H
  C73      1.0000 0.45890  0.72580  0.56760  Biso   1.000  C
  C74      1.0000 0.45440  0.84080  0.53370  Biso   1.000  C
  H53      1.0000 0.41690  0.90700  0.55520  Biso   1.000  H
  C75      1.0000 0.50480  0.85900  0.46830  Biso   1.000  C
  H54      1.0000 0.50170  0.93760  0.44510  Biso   1.000  H
  Zn7      1.0000 0.30114  0.27494  0.78207  Biso   1.000  Zn
  Zn8      1.0000 0.61281  0.40246  0.21765  Biso   1.000  Zn
  O25      1.0000 0.06530  0.11610  0.81630  Biso   1.000  O
  C76      1.0000 0.63200  0.46030  0.96920  Biso   1.000  C
  H55      1.0000 0.63120  0.54120  0.94910  Biso   1.000  H
  O26      1.0000 0.17490  0.27140  0.85296  Biso   1.000  O
  C77      1.0000 0.56230  0.37160  0.93919  Biso   1.000  C
  O27      1.0000 0.92354  0.20980  0.19445  Biso   1.000  O
  H56      1.0000 0.98050  0.16760  0.19280  Biso   1.000  H
  C78      1.0000 0.70430  0.31830  0.06053  Biso   1.000  C
  O28      1.0000 0.71486  0.27863  0.19040  Biso   1.000  O
  C79      1.0000 0.70380  0.43170  0.02900  Biso   1.000  C
  H57      1.0000 0.75320  0.49290  0.04800  Biso   1.000  H
  O29      1.0000 0.48954  0.50530  0.84646  Biso   1.000  O
  O30      1.0000 0.41120  0.32060  0.86196  Biso   1.000  O
  O31      1.0000 0.35340  0.09030  0.80188  Biso   1.000  O
  C80      1.0000 0.63080  0.23260  0.03380  Biso   1.000  C
  H58      1.0000 0.62750  0.15440  0.05730  Biso   1.000  H
  C81      1.0000 0.56040  0.25790  0.97270  Biso   1.000  C
  H59      1.0000 0.51100  0.19640  0.95420  Biso   1.000  H
  O32      1.0000 0.23433  0.96478  0.74058  Biso   1.000  O
  C82      1.0000 0.85880  0.19690  0.12510  Biso   1.000  C
  H60      1.0000 0.81760  0.11740  0.12560  Biso   1.000  H
  C83      1.0000 0.77870  0.30490  0.12970  Biso   1.000  C
  H61      1.0000 0.81990  0.38350  0.13920  Biso   1.000  H
  C84      1.0000 0.92350  0.20100  0.05760  Biso   1.000  C
  C85      1.0000 0.89420  0.12290  0.99950  Biso   1.000  C
  H62      1.0000 0.83480  0.06790  0.00350  Biso   1.000  H
  C86      1.0000 0.94960  0.12360  0.93610  Biso   1.000  C
  H63      1.0000 0.92810  0.06930  0.89690  Biso   1.000  H
  C87      1.0000 0.03590  0.20260  0.92920  Biso   1.000  C
  C88      1.0000 0.06600  0.28160  0.98560  Biso   1.000  C
  H64      1.0000 0.12520  0.33670  0.98100  Biso   1.000  H
  C89      1.0000 0.00950  0.28120  0.05030  Biso   1.000  C
  H65      1.0000 0.03050  0.33630  0.08920  Biso   1.000  H
  C90      1.0000 0.32480  0.99010  0.77503  Biso   1.000  C
  H66      1.0000 0.37570  0.92440  0.78060  Biso   1.000  H
  C91      1.0000 0.09770  0.19940  0.86079  Biso   1.000  C
  C92      1.0000 0.48130  0.40080  0.87723  Biso   1.000  C
  C93      1.0000 0.88110  0.28810  0.13300  Biso   1.000  C
  H67      1.0000 0.88560  0.37750  0.14650  Biso   1.000  H
  C94      1.0000 0.76250  0.24410  0.12650  Biso   1.000  C
  H68      1.0000 0.75760  0.15290  0.11830  Biso   1.000  H
  C95      1.0000 0.94030  0.26220  0.06310  Biso   1.000  C
  C96      1.0000 0.93590  0.14710  0.02920  Biso   1.000  C
  H69      1.0000 0.89840  0.08090  0.05070  Biso   1.000  H
  C97      1.0000 0.98620  0.12890  0.96380  Biso   1.000  C
  H70      1.0000 0.98320  0.05030  0.94060  Biso   1.000  H
  C98      1.0000 0.04110  0.22580  0.93240  Biso   1.000  C
  C99      1.0000 0.04560  0.34080  0.96630  Biso   1.000  C
  H71      1.0000 0.08310  0.40700  0.94480  Biso   1.000  H
  C100     1.0000 0.99520  0.35900  0.03170  Biso   1.000  C
  H72      1.0000 0.99830  0.43760  0.05490  Biso   1.000  H
