data_image0
_cell_length_a       12.1117
_cell_length_b       11.1419
_cell_length_c       18.742
_cell_angle_alpha    90
_cell_angle_beta     93.472
_cell_angle_gamma    90

_symmetry_space_group_name_H-M    "P 1"
_symmetry_int_tables_number       1

loop_
  _symmetry_equiv_pos_as_xyz
  'x, y, z'

loop_
  _atom_site_label
  _atom_site_occupancy
  _atom_site_fract_x
  _atom_site_fract_y
  _atom_site_fract_z
  _atom_site_thermal_displace_type
  _atom_site_B_iso_or_equiv
  _atom_site_type_symbol
  Mn1      1.0000 0.09829  0.11129  0.71531  Biso   1.000  Mn
  O1       1.0000 0.22170  0.22422  0.68924  Biso   1.000  O
  Mn2      1.0000 0.81143  0.22075  0.28293  Biso   1.000  Mn
  O2       1.0000 0.43734  0.28780  0.69294  Biso   1.000  O
  H1       1.0000 0.48540  0.34230  0.69620  Biso   1.000  H
  O3       1.0000 0.93890  0.17540  0.35671  Biso   1.000  O
  C1       1.0000 0.21500  0.18090  0.56359  Biso   1.000  C
  O4       1.0000 0.00156  0.98810  0.35605  Biso   1.000  O
  C2       1.0000 0.21010  0.06730  0.53820  Biso   1.000  C
  H2       1.0000 0.25470  0.00710  0.56130  Biso   1.000  H
  O5       1.0000 0.56950  0.36000  0.32126  Biso   1.000  O
  C3       1.0000 0.14100  0.03650  0.47880  Biso   1.000  C
  H3       1.0000 0.13810  0.95570  0.46260  Biso   1.000  H
  O6       1.0000 0.68310  0.21190  0.35734  Biso   1.000  O
  C4       1.0000 0.07690  0.12290  0.44348  Biso   1.000  C
  O7       1.0000 0.72365  0.52766  0.24323  Biso   1.000  O
  C5       1.0000 0.07800  0.23690  0.47180  Biso   1.000  C
  H4       1.0000 0.03230  0.29740  0.44980  Biso   1.000  H
  O8       1.0000 0.84775  0.41019  0.30432  Biso   1.000  O
  C6       1.0000 0.14540  0.26430  0.53220  Biso   1.000  C
  H5       1.0000 0.14290  0.34260  0.55210  Biso   1.000  H
  C7       1.0000 0.99960  0.09290  0.38030  Biso   1.000  C
  C8       1.0000 0.60460  0.28340  0.36540  Biso   1.000  C
  C9       1.0000 0.81600  0.50670  0.27746  Biso   1.000  C
  H6       1.0000 0.86580  0.57240  0.28290  Biso   1.000  H
  C10      1.0000 0.28900  0.19690  0.63182  Biso   1.000  C
  H7       1.0000 0.33080  0.12100  0.64260  Biso   1.000  H
  C11      1.0000 0.37090  0.30110  0.62587  Biso   1.000  C
  H8       1.0000 0.33000  0.37900  0.62600  Biso   1.000  H
  C12      1.0000 0.43760  0.29470  0.56046  Biso   1.000  C
  C13      1.0000 0.40760  0.36850  0.50330  Biso   1.000  C
  H9       1.0000 0.34840  0.42370  0.50700  Biso   1.000  H
  C14      1.0000 0.46290  0.36310  0.44080  Biso   1.000  C
  H10      1.0000 0.44080  0.41430  0.40200  Biso   1.000  H
  C15      1.0000 0.54960  0.28420  0.43400  Biso   1.000  C
  C16      1.0000 0.57960  0.20970  0.49090  Biso   1.000  C
  H11      1.0000 0.63890  0.15480  0.48700  Biso   1.000  H
  C17      1.0000 0.52360  0.21410  0.55420  Biso   1.000  C
  H12      1.0000 0.54470  0.16190  0.59280  Biso   1.000  H
  C18      1.0000 0.27060  0.25250  0.62710  Biso   1.000  C
  H13      1.0000 0.26710  0.34080  0.61770  Biso   1.000  H
  C19      1.0000 0.45090  0.23160  0.56570  Biso   1.000  C
  C20      1.0000 0.44750  0.34450  0.53420  Biso   1.000  C
  H14      1.0000 0.41350  0.40960  0.55720  Biso   1.000  H
  C21      1.0000 0.49390  0.36240  0.46890  Biso   1.000  C
  H15      1.0000 0.49150  0.43960  0.44740  Biso   1.000  H
  C22      1.0000 0.54360  0.26720  0.43520  Biso   1.000  C
  C23      1.0000 0.54700  0.15420  0.46680  Biso   1.000  C
  H16      1.0000 0.58100  0.08920  0.44370  Biso   1.000  H
  C24      1.0000 0.50070  0.13640  0.53200  Biso   1.000  C
  H17      1.0000 0.50300  0.05920  0.55350  Biso   1.000  H
  C25      1.0000 0.39050  0.20840  0.63350  Biso   1.000  C
  H18      1.0000 0.39460  0.12180  0.64750  Biso   1.000  H
  Mn3      1.0000 0.40171  0.61129  0.78469  Biso   1.000  Mn
  O9       1.0000 0.27830  0.72422  0.81076  Biso   1.000  O
  Mn4      1.0000 0.68857  0.72075  0.21707  Biso   1.000  Mn
  O10      1.0000 0.06266  0.78780  0.80706  Biso   1.000  O
  H19      1.0000 0.01460  0.84230  0.80380  Biso   1.000  H
  O11      1.0000 0.56110  0.67540  0.14329  Biso   1.000  O
  C26      1.0000 0.28500  0.68090  0.93641  Biso   1.000  C
  O12      1.0000 0.49844  0.48810  0.14395  Biso   1.000  O
  C27      1.0000 0.28990  0.56730  0.96180  Biso   1.000  C
  H20      1.0000 0.24530  0.50710  0.93870  Biso   1.000  H
  O13      1.0000 0.93050  0.86000  0.17874  Biso   1.000  O
  C28      1.0000 0.35900  0.53650  0.02120  Biso   1.000  C
  H21      1.0000 0.36190  0.45570  0.03740  Biso   1.000  H
  O14      1.0000 0.81690  0.71190  0.14266  Biso   1.000  O
  C29      1.0000 0.42310  0.62290  0.05652  Biso   1.000  C
  O15      1.0000 0.77635  0.02766  0.25677  Biso   1.000  O
  C30      1.0000 0.42200  0.73690  0.02820  Biso   1.000  C
  H22      1.0000 0.46770  0.79740  0.05020  Biso   1.000  H
  O16      1.0000 0.65225  0.91019  0.19568  Biso   1.000  O
  C31      1.0000 0.35460  0.76430  0.96780  Biso   1.000  C
  H23      1.0000 0.35710  0.84260  0.94790  Biso   1.000  H
  C32      1.0000 0.50040  0.59290  0.11970  Biso   1.000  C
  C33      1.0000 0.89540  0.78340  0.13460  Biso   1.000  C
  C34      1.0000 0.68400  0.00670  0.22254  Biso   1.000  C
  H24      1.0000 0.63420  0.07240  0.21710  Biso   1.000  H
  C35      1.0000 0.21100  0.69690  0.86818  Biso   1.000  C
  H25      1.0000 0.16920  0.62100  0.85740  Biso   1.000  H
  C36      1.0000 0.12910  0.80110  0.87413  Biso   1.000  C
  H26      1.0000 0.17000  0.87900  0.87400  Biso   1.000  H
  C37      1.0000 0.06240  0.79470  0.93954  Biso   1.000  C
  C38      1.0000 0.09240  0.86850  0.99670  Biso   1.000  C
  H27      1.0000 0.15160  0.92370  0.99300  Biso   1.000  H
  C39      1.0000 0.03710  0.86310  0.05920  Biso   1.000  C
  H28      1.0000 0.05920  0.91430  0.09800  Biso   1.000  H
  C40      1.0000 0.95040  0.78420  0.06600  Biso   1.000  C
  C41      1.0000 0.92040  0.70970  0.00910  Biso   1.000  C
  H29      1.0000 0.86110  0.65480  0.01300  Biso   1.000  H
  C42      1.0000 0.97640  0.71410  0.94580  Biso   1.000  C
  H30      1.0000 0.95530  0.66190  0.90720  Biso   1.000  H
  C43      1.0000 0.22940  0.75250  0.87290  Biso   1.000  C
  H31      1.0000 0.23290  0.84080  0.88230  Biso   1.000  H
  C44      1.0000 0.04910  0.73160  0.93430  Biso   1.000  C
  C45      1.0000 0.05250  0.84450  0.96580  Biso   1.000  C
  H32      1.0000 0.08650  0.90960  0.94280  Biso   1.000  H
  C46      1.0000 0.00610  0.86240  0.03110  Biso   1.000  C
  H33      1.0000 0.00850  0.93960  0.05260  Biso   1.000  H
  C47      1.0000 0.95640  0.76720  0.06480  Biso   1.000  C
  C48      1.0000 0.95300  0.65420  0.03320  Biso   1.000  C
  H34      1.0000 0.91900  0.58920  0.05630  Biso   1.000  H
  C49      1.0000 0.99930  0.63640  0.96800  Biso   1.000  C
  H35      1.0000 0.99700  0.55920  0.94650  Biso   1.000  H
  C50      1.0000 0.10950  0.70840  0.86650  Biso   1.000  C
  H36      1.0000 0.10540  0.62180  0.85250  Biso   1.000  H
  Mn5      1.0000 0.90171  0.88871  0.28469  Biso   1.000  Mn
  O17      1.0000 0.77830  0.77578  0.31076  Biso   1.000  O
  Mn6      1.0000 0.18857  0.77925  0.71707  Biso   1.000  Mn
  O18      1.0000 0.56266  0.71220  0.30706  Biso   1.000  O
  H37      1.0000 0.51460  0.65770  0.30380  Biso   1.000  H
  O19      1.0000 0.06110  0.82460  0.64329  Biso   1.000  O
  C51      1.0000 0.78500  0.81910  0.43641  Biso   1.000  C
  O20      1.0000 0.99844  0.01190  0.64395  Biso   1.000  O
  C52      1.0000 0.78990  0.93270  0.46180  Biso   1.000  C
  H38      1.0000 0.74530  0.99290  0.43870  Biso   1.000  H
  O21      1.0000 0.43050  0.64000  0.67874  Biso   1.000  O
  C53      1.0000 0.85900  0.96350  0.52120  Biso   1.000  C
  H39      1.0000 0.86190  0.04430  0.53740  Biso   1.000  H
  O22      1.0000 0.31690  0.78810  0.64266  Biso   1.000  O
  C54      1.0000 0.92310  0.87710  0.55652  Biso   1.000  C
  O23      1.0000 0.27635  0.47234  0.75677  Biso   1.000  O
  C55      1.0000 0.92200  0.76310  0.52820  Biso   1.000  C
  H40      1.0000 0.96770  0.70260  0.55020  Biso   1.000  H
  O24      1.0000 0.15225  0.58981  0.69568  Biso   1.000  O
  C56      1.0000 0.85460  0.73570  0.46780  Biso   1.000  C
  H41      1.0000 0.85710  0.65740  0.44790  Biso   1.000  H
  C57      1.0000 0.00040  0.90710  0.61970  Biso   1.000  C
  C58      1.0000 0.39540  0.71660  0.63460  Biso   1.000  C
  C59      1.0000 0.18400  0.49330  0.72254  Biso   1.000  C
  H42      1.0000 0.13420  0.42760  0.71710  Biso   1.000  H
  C60      1.0000 0.71100  0.80310  0.36818  Biso   1.000  C
  H43      1.0000 0.66920  0.87900  0.35740  Biso   1.000  H
  C61      1.0000 0.62910  0.69890  0.37413  Biso   1.000  C
  H44      1.0000 0.67000  0.62100  0.37400  Biso   1.000  H
  C62      1.0000 0.56240  0.70530  0.43954  Biso   1.000  C
  C63      1.0000 0.59240  0.63150  0.49670  Biso   1.000  C
  H45      1.0000 0.65160  0.57630  0.49300  Biso   1.000  H
  C64      1.0000 0.53710  0.63690  0.55920  Biso   1.000  C
  H46      1.0000 0.55920  0.58570  0.59800  Biso   1.000  H
  C65      1.0000 0.45040  0.71580  0.56600  Biso   1.000  C
  C66      1.0000 0.42040  0.79030  0.50910  Biso   1.000  C
  H47      1.0000 0.36110  0.84520  0.51300  Biso   1.000  H
  C67      1.0000 0.47640  0.78590  0.44580  Biso   1.000  C
  H48      1.0000 0.45530  0.83810  0.40720  Biso   1.000  H
  C68      1.0000 0.72940  0.74750  0.37290  Biso   1.000  C
  H49      1.0000 0.73290  0.65920  0.38230  Biso   1.000  H
  C69      1.0000 0.54910  0.76840  0.43430  Biso   1.000  C
  C70      1.0000 0.55250  0.65550  0.46580  Biso   1.000  C
  H50      1.0000 0.58650  0.59040  0.44280  Biso   1.000  H
  C71      1.0000 0.50610  0.63760  0.53110  Biso   1.000  C
  H51      1.0000 0.50850  0.56040  0.55260  Biso   1.000  H
  C72      1.0000 0.45640  0.73280  0.56480  Biso   1.000  C
  C73      1.0000 0.45300  0.84580  0.53320  Biso   1.000  C
  H52      1.0000 0.41900  0.91080  0.55630  Biso   1.000  H
  C74      1.0000 0.49930  0.86360  0.46800  Biso   1.000  C
  H53      1.0000 0.49700  0.94080  0.44650  Biso   1.000  H
  C75      1.0000 0.60950  0.79160  0.36650  Biso   1.000  C
  H54      1.0000 0.60540  0.87820  0.35250  Biso   1.000  H
  Mn7      1.0000 0.59829  0.38871  0.21531  Biso   1.000  Mn
  O25      1.0000 0.72170  0.27578  0.18924  Biso   1.000  O
  Mn8      1.0000 0.31143  0.27925  0.78293  Biso   1.000  Mn
  O26      1.0000 0.93734  0.21220  0.19294  Biso   1.000  O
  H55      1.0000 0.98540  0.15770  0.19620  Biso   1.000  H
  O27      1.0000 0.43890  0.32460  0.85671  Biso   1.000  O
  C76      1.0000 0.71500  0.31910  0.06359  Biso   1.000  C
  O28      1.0000 0.50156  0.51190  0.85605  Biso   1.000  O
  C77      1.0000 0.71010  0.43270  0.03820  Biso   1.000  C
  H56      1.0000 0.75470  0.49290  0.06130  Biso   1.000  H
  O29      1.0000 0.06950  0.14000  0.82126  Biso   1.000  O
  C78      1.0000 0.64100  0.46350  0.97880  Biso   1.000  C
  H57      1.0000 0.63810  0.54430  0.96260  Biso   1.000  H
  O30      1.0000 0.18310  0.28810  0.85734  Biso   1.000  O
  C79      1.0000 0.57690  0.37710  0.94348  Biso   1.000  C
  O31      1.0000 0.22365  0.97234  0.74323  Biso   1.000  O
  C80      1.0000 0.57800  0.26310  0.97180  Biso   1.000  C
  H58      1.0000 0.53230  0.20260  0.94980  Biso   1.000  H
  O32      1.0000 0.34775  0.08981  0.80432  Biso   1.000  O
  C81      1.0000 0.64540  0.23570  0.03220  Biso   1.000  C
  H59      1.0000 0.64290  0.15740  0.05210  Biso   1.000  H
  C82      1.0000 0.49960  0.40710  0.88030  Biso   1.000  C
  C83      1.0000 0.10460  0.21660  0.86540  Biso   1.000  C
  C84      1.0000 0.31600  0.99330  0.77746  Biso   1.000  C
  H60      1.0000 0.36580  0.92760  0.78290  Biso   1.000  H
  C85      1.0000 0.78900  0.30310  0.13182  Biso   1.000  C
  H61      1.0000 0.83080  0.37900  0.14260  Biso   1.000  H
  C86      1.0000 0.87090  0.19890  0.12587  Biso   1.000  C
  H62      1.0000 0.83000  0.12100  0.12600  Biso   1.000  H
  C87      1.0000 0.93760  0.20530  0.06046  Biso   1.000  C
  C88      1.0000 0.90760  0.13150  0.00330  Biso   1.000  C
  H63      1.0000 0.84840  0.07630  0.00700  Biso   1.000  H
  C89      1.0000 0.96290  0.13690  0.94080  Biso   1.000  C
  H64      1.0000 0.94080  0.08570  0.90200  Biso   1.000  H
  C90      1.0000 0.04960  0.21580  0.93400  Biso   1.000  C
  C91      1.0000 0.07960  0.29030  0.99090  Biso   1.000  C
  H65      1.0000 0.13890  0.34520  0.98700  Biso   1.000  H
  C92      1.0000 0.02360  0.28590  0.05420  Biso   1.000  C
  H66      1.0000 0.04470  0.33810  0.09280  Biso   1.000  H
  C93      1.0000 0.77060  0.24750  0.12710  Biso   1.000  C
  H67      1.0000 0.76710  0.15920  0.11770  Biso   1.000  H
  C94      1.0000 0.95090  0.26840  0.06570  Biso   1.000  C
  C95      1.0000 0.94750  0.15550  0.03420  Biso   1.000  C
  H68      1.0000 0.91350  0.09040  0.05720  Biso   1.000  H
  C96      1.0000 0.99390  0.13760  0.96890  Biso   1.000  C
  H69      1.0000 0.99150  0.06040  0.94740  Biso   1.000  H
  C97      1.0000 0.04360  0.23280  0.93520  Biso   1.000  C
  C98      1.0000 0.04700  0.34580  0.96680  Biso   1.000  C
  H70      1.0000 0.08100  0.41080  0.94370  Biso   1.000  H
  C99      1.0000 0.00070  0.36360  0.03200  Biso   1.000  C
  H71      1.0000 0.00300  0.44080  0.05350  Biso   1.000  H
  C100     1.0000 0.89050  0.29160  0.13350  Biso   1.000  C
  H72      1.0000 0.89460  0.37820  0.14750  Biso   1.000  H
