data_image0
_cell_length_a       9.003
_cell_length_b       12.118
_cell_length_c       12.865
_cell_angle_alpha    98.74
_cell_angle_beta     90.251
_cell_angle_gamma    93.325

_symmetry_space_group_name_H-M    "P 1"
_symmetry_int_tables_number       1

loop_
  _symmetry_equiv_pos_as_xyz
  'x, y, z'

loop_
  _atom_site_label
  _atom_site_occupancy
  _atom_site_fract_x
  _atom_site_fract_y
  _atom_site_fract_z
  _atom_site_thermal_displace_type
  _atom_site_B_iso_or_equiv
  _atom_site_type_symbol
  Zn1      1.0000 0.40462  0.57505  0.12693  Biso   1.000  Zn
  O1       1.0000 0.35060  0.73496  0.19922  Biso   1.000  O
  O2       1.0000 0.20010  0.60145  0.24513  Biso   1.000  O
  C1       1.0000 0.24230  0.70340  0.25090  Biso   1.000  C
  C2       1.0000 0.16440  0.79050  0.32230  Biso   1.000  C
  C3       1.0000 0.07610  0.76340  0.40240  Biso   1.000  C
  H1       1.0000 0.05820  0.68710  0.41010  Biso   1.000  H
  C4       1.0000 0.01260  0.84530  0.47240  Biso   1.000  C
  H2       1.0000 0.95380  0.82430  0.52810  Biso   1.000  H
  C5       1.0000 0.03310  0.95580  0.46230  Biso   1.000  C
  C6       1.0000 0.08090  0.97750  0.36170  Biso   1.000  C
  H3       1.0000 0.06440  0.04740  0.34000  Biso   1.000  H
  C7       1.0000 0.15150  0.89630  0.29540  Biso   1.000  C
  H4       1.0000 0.19140  0.91320  0.23100  Biso   1.000  H
  O3       1.0000 0.35480  0.40917  0.09940  Biso   1.000  O
  O4       1.0000 0.40770  0.35714  0.92975  Biso   1.000  O
  C8       1.0000 0.34530  0.34350  0.01370  Biso   1.000  C
  C9       1.0000 0.24380  0.24100  0.01150  Biso   1.000  C
  C10      1.0000 0.19610  0.20270  0.09980  Biso   1.000  C
  H5       1.0000 0.22820  0.24180  0.16650  Biso   1.000  H
  C11      1.0000 0.10090  0.10740  0.09470  Biso   1.000  C
  H6       1.0000 0.09010  0.06850  0.15330  Biso   1.000  H
  C12      1.0000 0.01800  0.06880  0.99710  Biso   1.000  C
  C13      1.0000 0.03710  0.12470  0.91150  Biso   1.000  C
  H7       1.0000 0.97820  0.10150  0.84970  Biso   1.000  H
  C14      1.0000 0.14160  0.21430  0.91500  Biso   1.000  C
  H8       1.0000 0.14910  0.25740  0.85920  Biso   1.000  H
  N1       1.0000 0.27010  0.60340  0.99360  Biso   1.000  N
  C15      1.0000 0.29720  0.69680  0.95170  Biso   1.000  C
  H9       1.0000 0.36970  0.75110  0.98470  Biso   1.000  H
  C16      1.0000 0.22450  0.71780  0.86290  Biso   1.000  C
  H10      1.0000 0.24760  0.78510  0.83520  Biso   1.000  H
  C17      1.0000 0.11720  0.63960  0.81410  Biso   1.000  C
  C18      1.0000 0.08650  0.54460  0.85870  Biso   1.000  C
  H11      1.0000 0.01230  0.48990  0.82870  Biso   1.000  H
  C19      1.0000 0.16530  0.52990  0.94790  Biso   1.000  C
  H12      1.0000 0.14330  0.46400  0.97780  Biso   1.000  H
  C20      1.0000 0.04270  0.66460  0.71590  Biso   1.000  C
  O5       1.0000 0.07520  0.75080  0.68210  Biso   1.000  O
  N2       1.0000 0.94090  0.58510  0.67000  Biso   1.000  N
  N3       1.0000 0.87090  0.60170  0.57930  Biso   1.000  N
  C21      1.0000 0.77750  0.52300  0.53890  Biso   1.000  C
  H13      1.0000 0.76060  0.45820  0.57150  Biso   1.000  H
  C22      1.0000 0.69650  0.53320  0.44180  Biso   1.000  C
  C23      1.0000 0.69870  0.63250  0.40080  Biso   1.000  C
  H14      1.0000 0.75510  0.69670  0.43460  Biso   1.000  H
  C24      1.0000 0.61820  0.63690  0.31070  Biso   1.000  C
  H15      1.0000 0.62240  0.70510  0.28260  Biso   1.000  H
  N4       1.0000 0.53380  0.54990  0.26040  Biso   1.000  N
  C25      1.0000 0.53110  0.45460  0.30080  Biso   1.000  C
  H16      1.0000 0.47190  0.39210  0.26630  Biso   1.000  H
  C26      1.0000 0.61080  0.44230  0.39070  Biso   1.000  C
  H17      1.0000 0.60650  0.37280  0.41660  Biso   1.000  H
  H18      1.0000 0.91000  0.52600  0.69800  Biso   1.000  H
  C27      1.0000 0.15900  0.98610  0.39860  Biso   1.000  C
  H19      1.0000 0.19850  0.06130  0.40590  Biso   1.000  H
  C28      1.0000 0.22000  0.90410  0.32770  Biso   1.000  C
  H20      1.0000 0.29800  0.92320  0.28310  Biso   1.000  H
  C29      1.0000 0.08560  0.03220  0.00790  Biso   1.000  C
  C30      1.0000 0.16330  0.05570  0.92000  Biso   1.000  C
  H21      1.0000 0.15480  0.00450  0.85630  Biso   1.000  H
  C31      1.0000 0.25260  0.15280  0.92460  Biso   1.000  C
  H22      1.0000 0.32050  0.16110  0.86960  Biso   1.000  H
  Zn2      1.0000 0.59538  0.42495  0.87307  Biso   1.000  Zn
  O6       1.0000 0.64940  0.26504  0.80078  Biso   1.000  O
  O7       1.0000 0.79990  0.39855  0.75487  Biso   1.000  O
  C32      1.0000 0.75770  0.29660  0.74910  Biso   1.000  C
  C33      1.0000 0.83560  0.20950  0.67770  Biso   1.000  C
  C34      1.0000 0.92390  0.23660  0.59760  Biso   1.000  C
  H23      1.0000 0.94180  0.31290  0.58990  Biso   1.000  H
  C35      1.0000 0.98740  0.15470  0.52760  Biso   1.000  C
  H24      1.0000 0.04620  0.17570  0.47190  Biso   1.000  H
  C36      1.0000 0.96690  0.04420  0.53770  Biso   1.000  C
  C37      1.0000 0.91910  0.02250  0.63830  Biso   1.000  C
  H25      1.0000 0.93560  0.95260  0.66000  Biso   1.000  H
  C38      1.0000 0.84850  0.10370  0.70460  Biso   1.000  C
  H26      1.0000 0.80860  0.08680  0.76900  Biso   1.000  H
  O8       1.0000 0.64520  0.59083  0.90060  Biso   1.000  O
  O9       1.0000 0.59230  0.64286  0.07025  Biso   1.000  O
  C39      1.0000 0.65470  0.65650  0.98630  Biso   1.000  C
  C40      1.0000 0.75620  0.75900  0.98850  Biso   1.000  C
  C41      1.0000 0.80390  0.79730  0.90020  Biso   1.000  C
  H27      1.0000 0.77180  0.75820  0.83350  Biso   1.000  H
  C42      1.0000 0.89910  0.89260  0.90530  Biso   1.000  C
  H28      1.0000 0.90990  0.93150  0.84670  Biso   1.000  H
  C43      1.0000 0.98200  0.93120  0.00290  Biso   1.000  C
  C44      1.0000 0.96290  0.87530  0.08850  Biso   1.000  C
  H29      1.0000 0.02180  0.89850  0.15030  Biso   1.000  H
  C45      1.0000 0.85840  0.78570  0.08500  Biso   1.000  C
  H30      1.0000 0.85090  0.74260  0.14080  Biso   1.000  H
  N5       1.0000 0.72990  0.39660  0.00640  Biso   1.000  N
  C46      1.0000 0.70280  0.30320  0.04830  Biso   1.000  C
  H31      1.0000 0.63030  0.24890  0.01530  Biso   1.000  H
  C47      1.0000 0.77550  0.28220  0.13710  Biso   1.000  C
  H32      1.0000 0.75240  0.21490  0.16480  Biso   1.000  H
  C48      1.0000 0.88280  0.36040  0.18590  Biso   1.000  C
  C49      1.0000 0.91350  0.45540  0.14130  Biso   1.000  C
  H33      1.0000 0.98770  0.51010  0.17130  Biso   1.000  H
  C50      1.0000 0.83470  0.47010  0.05210  Biso   1.000  C
  H34      1.0000 0.85670  0.53600  0.02220  Biso   1.000  H
  C51      1.0000 0.95730  0.33540  0.28410  Biso   1.000  C
  O10      1.0000 0.92480  0.24920  0.31790  Biso   1.000  O
  N6       1.0000 0.05910  0.41490  0.33000  Biso   1.000  N
  N7       1.0000 0.12910  0.39830  0.42070  Biso   1.000  N
  C52      1.0000 0.22250  0.47700  0.46110  Biso   1.000  C
  H35      1.0000 0.23940  0.54180  0.42850  Biso   1.000  H
  C53      1.0000 0.30350  0.46680  0.55820  Biso   1.000  C
  C54      1.0000 0.30130  0.36750  0.59920  Biso   1.000  C
  H36      1.0000 0.24490  0.30330  0.56540  Biso   1.000  H
  C55      1.0000 0.38180  0.36310  0.68930  Biso   1.000  C
  H37      1.0000 0.37760  0.29490  0.71740  Biso   1.000  H
  N8       1.0000 0.46620  0.45010  0.73960  Biso   1.000  N
  C56      1.0000 0.46890  0.54540  0.69920  Biso   1.000  C
  H38      1.0000 0.52810  0.60790  0.73370  Biso   1.000  H
  C57      1.0000 0.38920  0.55770  0.60930  Biso   1.000  C
  H39      1.0000 0.39350  0.62720  0.58340  Biso   1.000  H
  H40      1.0000 0.09000  0.47400  0.30200  Biso   1.000  H
  C58      1.0000 0.84100  0.01390  0.60140  Biso   1.000  C
  H41      1.0000 0.80150  0.93870  0.59410  Biso   1.000  H
  C59      1.0000 0.78000  0.09590  0.67230  Biso   1.000  C
  H42      1.0000 0.70200  0.07680  0.71690  Biso   1.000  H
  C60      1.0000 0.91440  0.96780  0.99210  Biso   1.000  C
  C61      1.0000 0.83670  0.94430  0.08000  Biso   1.000  C
  H43      1.0000 0.84520  0.99550  0.14370  Biso   1.000  H
  C62      1.0000 0.74740  0.84720  0.07540  Biso   1.000  C
  H44      1.0000 0.67950  0.83890  0.13040  Biso   1.000  H
