data_image0
_cell_length_a       10.4803
_cell_length_b       17.8855
_cell_length_c       17.8364
_cell_angle_alpha    90
_cell_angle_beta     105.744
_cell_angle_gamma    90

_symmetry_space_group_name_H-M    "P 1"
_symmetry_int_tables_number       1

loop_
  _symmetry_equiv_pos_as_xyz
  'x, y, z'

loop_
  _atom_site_label
  _atom_site_occupancy
  _atom_site_fract_x
  _atom_site_fract_y
  _atom_site_fract_z
  _atom_site_thermal_displace_type
  _atom_site_B_iso_or_equiv
  _atom_site_type_symbol
  C1       1.0000 0.71820  0.04130  0.47000  Biso   1.000  C
  C2       1.0000 0.85430  0.07230  0.47580  Biso   1.000  C
  C3       1.0000 0.89800  0.08110  0.40920  Biso   1.000  C
  H1       1.0000 0.84010  0.07210  0.36040  Biso   1.000  H
  C4       1.0000 0.02780  0.10320  0.41530  Biso   1.000  C
  C5       1.0000 0.11110  0.11960  0.48750  Biso   1.000  C
  H2       1.0000 0.19790  0.13490  0.49260  Biso   1.000  H
  C6       1.0000 0.06360  0.11300  0.55190  Biso   1.000  C
  C7       1.0000 0.93800  0.08860  0.54790  Biso   1.000  C
  H3       1.0000 0.91000  0.08310  0.59280  Biso   1.000  H
  C8       1.0000 0.08020  0.10530  0.34470  Biso   1.000  C
  C9       1.0000 0.36300  0.17160  0.26050  Biso   1.000  C
  C10      1.0000 0.43650  0.24210  0.29090  Biso   1.000  C
  C11      1.0000 0.37780  0.31090  0.26830  Biso   1.000  C
  H4       1.0000 0.29730  0.31300  0.23010  Biso   1.000  H
  C12      1.0000 0.43680  0.37630  0.30150  Biso   1.000  C
  C13      1.0000 0.55790  0.37300  0.35780  Biso   1.000  C
  H5       1.0000 0.59910  0.41650  0.38100  Biso   1.000  H
  C14      1.0000 0.61540  0.30440  0.37840  Biso   1.000  C
  C15      1.0000 0.55800  0.23850  0.34670  Biso   1.000  C
  H6       1.0000 0.59920  0.19280  0.36220  Biso   1.000  H
  C16      1.0000 0.37020  0.45100  0.27850  Biso   1.000  C
  C17      1.0000 0.47540  0.14270  0.52750  Biso   1.000  C
  C18      1.0000 0.44640  0.22570  0.53130  Biso   1.000  C
  C19      1.0000 0.50820  0.26640  0.59720  Biso   1.000  C
  H7       1.0000 0.56500  0.24130  0.63870  Biso   1.000  H
  C20      1.0000 0.40720  0.37520  0.54540  Biso   1.000  C
  H8       1.0000 0.39350  0.42620  0.54970  Biso   1.000  H
  C21      1.0000 0.33980  0.33830  0.47770  Biso   1.000  C
  H9       1.0000 0.28090  0.36430  0.43780  Biso   1.000  H
  C22      1.0000 0.36080  0.26320  0.47000  Biso   1.000  C
  H10      1.0000 0.31830  0.23810  0.42450  Biso   1.000  H
  Eu1      1.0000 0.40273  0.01465  0.37277  Biso   1.000  Eu
  N1       1.0000 0.15420  0.12910  0.62990  Biso   1.000  N
  N2       1.0000 0.72340  0.30050  0.45590  Biso   1.000  N
  O1       1.0000 0.75780  0.35700  0.49360  Biso   1.000  O
  O2       1.0000 0.76690  0.24190  0.48140  Biso   1.000  O
  N3       1.0000 0.49090  0.33980  0.60440  Biso   1.000  N
  O3       1.0000 0.63860  0.03420  0.40360  Biso   1.000  O
  O4       1.0000 0.69400  0.02340  0.53220  Biso   1.000  O
  O5       1.0000 0.99860  0.11620  0.27950  Biso   1.000  O
  O6       1.0000 0.20070  0.09720  0.35270  Biso   1.000  O
  O7       1.0000 0.24800  0.18010  0.62910  Biso   1.000  O
  O8       1.0000 0.10980  0.13490  0.68460  Biso   1.000  O
  O9       1.0000 0.41520  0.10980  0.28330  Biso   1.000  O
  O10      1.0000 0.24760  0.17990  0.21480  Biso   1.000  O
  O11      1.0000 0.28240  0.45490  0.21660  Biso   1.000  O
  O12      1.0000 0.41000  0.50420  0.32580  Biso   1.000  O
  O13      1.0000 0.44980  0.11540  0.46110  Biso   1.000  O
  O14      1.0000 0.52150  0.11010  0.59100  Biso   1.000  O
  Zn1      1.0000 0.10342  0.10878  0.20214  Biso   1.000  Zn
  N4       1.0000 0.75510  0.30130  0.42330  Biso   1.000  N
  O15      1.0000 0.81310  0.35840  0.44910  Biso   1.000  O
  O16      1.0000 0.81310  0.24490  0.43910  Biso   1.000  O
  O17      1.0000 0.26840  0.14310  0.63580  Biso   1.000  O
  O18      1.0000 0.12880  0.08960  0.68630  Biso   1.000  O
  C23      1.0000 0.78180  0.54130  0.03000  Biso   1.000  C
  C24      1.0000 0.64570  0.57230  0.02420  Biso   1.000  C
  C25      1.0000 0.60200  0.58110  0.09080  Biso   1.000  C
  H11      1.0000 0.65990  0.57210  0.13960  Biso   1.000  H
  C26      1.0000 0.47220  0.60320  0.08470  Biso   1.000  C
  C27      1.0000 0.38890  0.61960  0.01250  Biso   1.000  C
  H12      1.0000 0.30210  0.63490  0.00740  Biso   1.000  H
  C28      1.0000 0.43640  0.61300  0.94810  Biso   1.000  C
  C29      1.0000 0.56200  0.58860  0.95210  Biso   1.000  C
  H13      1.0000 0.59000  0.58310  0.90720  Biso   1.000  H
  C30      1.0000 0.41980  0.60530  0.15530  Biso   1.000  C
  C31      1.0000 0.13700  0.67160  0.23950  Biso   1.000  C
  C32      1.0000 0.06350  0.74210  0.20910  Biso   1.000  C
  C33      1.0000 0.12220  0.81090  0.23170  Biso   1.000  C
  H14      1.0000 0.20270  0.81300  0.26990  Biso   1.000  H
  C34      1.0000 0.06320  0.87630  0.19850  Biso   1.000  C
  C35      1.0000 0.94210  0.87300  0.14220  Biso   1.000  C
  H15      1.0000 0.90090  0.91650  0.11900  Biso   1.000  H
  C36      1.0000 0.88460  0.80440  0.12160  Biso   1.000  C
  C37      1.0000 0.94200  0.73850  0.15330  Biso   1.000  C
  H16      1.0000 0.90080  0.69280  0.13780  Biso   1.000  H
  C38      1.0000 0.12980  0.95100  0.22150  Biso   1.000  C
  C39      1.0000 0.02460  0.64270  0.97250  Biso   1.000  C
  C40      1.0000 0.05360  0.72570  0.96870  Biso   1.000  C
  C41      1.0000 0.99180  0.76640  0.90280  Biso   1.000  C
  H17      1.0000 0.93500  0.74130  0.86130  Biso   1.000  H
  C42      1.0000 0.09280  0.87520  0.95460  Biso   1.000  C
  H18      1.0000 0.10650  0.92620  0.95030  Biso   1.000  H
  C43      1.0000 0.16020  0.83830  0.02230  Biso   1.000  C
  H19      1.0000 0.21910  0.86430  0.06220  Biso   1.000  H
  C44      1.0000 0.13920  0.76320  0.03000  Biso   1.000  C
  H20      1.0000 0.18170  0.73810  0.07550  Biso   1.000  H
  Eu2      1.0000 0.09727  0.51465  0.12723  Biso   1.000  Eu
  N5       1.0000 0.34580  0.62910  0.87010  Biso   1.000  N
  N6       1.0000 0.77660  0.80050  0.04410  Biso   1.000  N
  O19      1.0000 0.74220  0.85700  0.00640  Biso   1.000  O
  O20      1.0000 0.73310  0.74190  0.01860  Biso   1.000  O
  N7       1.0000 0.00910  0.83980  0.89560  Biso   1.000  N
  O21      1.0000 0.86140  0.53420  0.09640  Biso   1.000  O
  O22      1.0000 0.80600  0.52340  0.96780  Biso   1.000  O
  O23      1.0000 0.50140  0.61620  0.22050  Biso   1.000  O
  O24      1.0000 0.29930  0.59720  0.14730  Biso   1.000  O
  O25      1.0000 0.25200  0.68010  0.87090  Biso   1.000  O
  O26      1.0000 0.39020  0.63490  0.81540  Biso   1.000  O
  O27      1.0000 0.08480  0.60980  0.21670  Biso   1.000  O
  O28      1.0000 0.25240  0.67990  0.28520  Biso   1.000  O
  O29      1.0000 0.21760  0.95490  0.28340  Biso   1.000  O
  O30      1.0000 0.09000  0.00420  0.17420  Biso   1.000  O
  O31      1.0000 0.05020  0.61540  0.03890  Biso   1.000  O
  O32      1.0000 0.97850  0.61010  0.90900  Biso   1.000  O
  Zn2      1.0000 0.39658  0.60878  0.29786  Biso   1.000  Zn
  N8       1.0000 0.74490  0.80130  0.07670  Biso   1.000  N
  O33      1.0000 0.68690  0.85840  0.05090  Biso   1.000  O
  O34      1.0000 0.68690  0.74490  0.06090  Biso   1.000  O
  O35      1.0000 0.23160  0.64310  0.86420  Biso   1.000  O
  O36      1.0000 0.37120  0.58960  0.81370  Biso   1.000  O
  C45      1.0000 0.28180  0.95870  0.53000  Biso   1.000  C
  C46      1.0000 0.14570  0.92770  0.52420  Biso   1.000  C
  C47      1.0000 0.10200  0.91890  0.59080  Biso   1.000  C
  H21      1.0000 0.15990  0.92790  0.63960  Biso   1.000  H
  C48      1.0000 0.97220  0.89680  0.58470  Biso   1.000  C
  C49      1.0000 0.88890  0.88040  0.51250  Biso   1.000  C
  H22      1.0000 0.80210  0.86510  0.50740  Biso   1.000  H
  C50      1.0000 0.93640  0.88700  0.44810  Biso   1.000  C
  C51      1.0000 0.06200  0.91140  0.45210  Biso   1.000  C
  H23      1.0000 0.09000  0.91690  0.40720  Biso   1.000  H
  C52      1.0000 0.91980  0.89470  0.65530  Biso   1.000  C
  C53      1.0000 0.63700  0.82840  0.73950  Biso   1.000  C
  C54      1.0000 0.56350  0.75790  0.70910  Biso   1.000  C
  C55      1.0000 0.62220  0.68910  0.73170  Biso   1.000  C
  H24      1.0000 0.70270  0.68700  0.76990  Biso   1.000  H
  C56      1.0000 0.56320  0.62370  0.69850  Biso   1.000  C
  C57      1.0000 0.44210  0.62700  0.64220  Biso   1.000  C
  H25      1.0000 0.40090  0.58350  0.61900  Biso   1.000  H
  C58      1.0000 0.38460  0.69560  0.62160  Biso   1.000  C
  C59      1.0000 0.44200  0.76150  0.65330  Biso   1.000  C
  H26      1.0000 0.40080  0.80720  0.63780  Biso   1.000  H
  C60      1.0000 0.62980  0.54900  0.72150  Biso   1.000  C
  C61      1.0000 0.52460  0.85730  0.47250  Biso   1.000  C
  C62      1.0000 0.55360  0.77430  0.46870  Biso   1.000  C
  C63      1.0000 0.49180  0.73360  0.40280  Biso   1.000  C
  H27      1.0000 0.43500  0.75870  0.36130  Biso   1.000  H
  C64      1.0000 0.59280  0.62480  0.45460  Biso   1.000  C
  H28      1.0000 0.60650  0.57380  0.45030  Biso   1.000  H
  C65      1.0000 0.66020  0.66170  0.52230  Biso   1.000  C
  H29      1.0000 0.71910  0.63570  0.56220  Biso   1.000  H
  C66      1.0000 0.63920  0.73680  0.53000  Biso   1.000  C
  H30      1.0000 0.68170  0.76190  0.57550  Biso   1.000  H
  Eu3      1.0000 0.59727  0.98535  0.62723  Biso   1.000  Eu
  N9       1.0000 0.84580  0.87090  0.37010  Biso   1.000  N
  N10      1.0000 0.27660  0.69950  0.54410  Biso   1.000  N
  O37      1.0000 0.24220  0.64300  0.50640  Biso   1.000  O
  O38      1.0000 0.23310  0.75810  0.51860  Biso   1.000  O
  N11      1.0000 0.50910  0.66020  0.39560  Biso   1.000  N
  O39      1.0000 0.36140  0.96580  0.59640  Biso   1.000  O
  O40      1.0000 0.30600  0.97660  0.46780  Biso   1.000  O
  O41      1.0000 0.00140  0.88380  0.72050  Biso   1.000  O
  O42      1.0000 0.79930  0.90280  0.64730  Biso   1.000  O
  O43      1.0000 0.75200  0.81990  0.37090  Biso   1.000  O
  O44      1.0000 0.89020  0.86510  0.31540  Biso   1.000  O
  O45      1.0000 0.58480  0.89020  0.71670  Biso   1.000  O
  O46      1.0000 0.75240  0.82010  0.78520  Biso   1.000  O
  O47      1.0000 0.71760  0.54510  0.78340  Biso   1.000  O
  O48      1.0000 0.59000  0.49580  0.67420  Biso   1.000  O
  O49      1.0000 0.55020  0.88460  0.53890  Biso   1.000  O
  O50      1.0000 0.47850  0.88990  0.40900  Biso   1.000  O
  Zn3      1.0000 0.89658  0.89122  0.79786  Biso   1.000  Zn
  N12      1.0000 0.24490  0.69870  0.57670  Biso   1.000  N
  O51      1.0000 0.18690  0.64160  0.55090  Biso   1.000  O
  O52      1.0000 0.18690  0.75510  0.56090  Biso   1.000  O
  O53      1.0000 0.73160  0.85690  0.36420  Biso   1.000  O
  O54      1.0000 0.87120  0.91040  0.31370  Biso   1.000  O
  C67      1.0000 0.21820  0.45870  0.97000  Biso   1.000  C
  C68      1.0000 0.35430  0.42770  0.97580  Biso   1.000  C
  C69      1.0000 0.39800  0.41890  0.90920  Biso   1.000  C
  H31      1.0000 0.34010  0.42790  0.86040  Biso   1.000  H
  C70      1.0000 0.52780  0.39680  0.91530  Biso   1.000  C
  C71      1.0000 0.61110  0.38040  0.98750  Biso   1.000  C
  H32      1.0000 0.69790  0.36510  0.99260  Biso   1.000  H
  C72      1.0000 0.56360  0.38700  0.05190  Biso   1.000  C
  C73      1.0000 0.43800  0.41140  0.04790  Biso   1.000  C
  H33      1.0000 0.41000  0.41690  0.09280  Biso   1.000  H
  C74      1.0000 0.58020  0.39470  0.84470  Biso   1.000  C
  C75      1.0000 0.86300  0.32840  0.76050  Biso   1.000  C
  C76      1.0000 0.93650  0.25790  0.79090  Biso   1.000  C
  C77      1.0000 0.87780  0.18910  0.76830  Biso   1.000  C
  H34      1.0000 0.79730  0.18700  0.73010  Biso   1.000  H
  C78      1.0000 0.93680  0.12370  0.80150  Biso   1.000  C
  C79      1.0000 0.05790  0.12700  0.85780  Biso   1.000  C
  H35      1.0000 0.09910  0.08350  0.88100  Biso   1.000  H
  C80      1.0000 0.11540  0.19560  0.87840  Biso   1.000  C
  C81      1.0000 0.05800  0.26150  0.84670  Biso   1.000  C
  H36      1.0000 0.09920  0.30720  0.86220  Biso   1.000  H
  C82      1.0000 0.87020  0.04900  0.77850  Biso   1.000  C
  C83      1.0000 0.97540  0.35730  0.02750  Biso   1.000  C
  C84      1.0000 0.94640  0.27430  0.03130  Biso   1.000  C
  C85      1.0000 0.00820  0.23360  0.09720  Biso   1.000  C
  H37      1.0000 0.06500  0.25870  0.13870  Biso   1.000  H
  C86      1.0000 0.90720  0.12480  0.04540  Biso   1.000  C
  H38      1.0000 0.89350  0.07380  0.04970  Biso   1.000  H
  C87      1.0000 0.83980  0.16170  0.97770  Biso   1.000  C
  H39      1.0000 0.78090  0.13570  0.93780  Biso   1.000  H
  C88      1.0000 0.86080  0.23680  0.97000  Biso   1.000  C
  H40      1.0000 0.81830  0.26190  0.92450  Biso   1.000  H
  Eu4      1.0000 0.90273  0.48535  0.87277  Biso   1.000  Eu
  N13      1.0000 0.65420  0.37090  0.12990  Biso   1.000  N
  N14      1.0000 0.22340  0.19950  0.95590  Biso   1.000  N
  O55      1.0000 0.25780  0.14300  0.99360  Biso   1.000  O
  O56      1.0000 0.26690  0.25810  0.98140  Biso   1.000  O
  N15      1.0000 0.99090  0.16020  0.10440  Biso   1.000  N
  O57      1.0000 0.13860  0.46580  0.90360  Biso   1.000  O
  O58      1.0000 0.19400  0.47660  0.03220  Biso   1.000  O
  O59      1.0000 0.49860  0.38380  0.77950  Biso   1.000  O
  O60      1.0000 0.70070  0.40280  0.85270  Biso   1.000  O
  O61      1.0000 0.74800  0.31990  0.12910  Biso   1.000  O
  O62      1.0000 0.60980  0.36510  0.18460  Biso   1.000  O
  O63      1.0000 0.91520  0.39020  0.78330  Biso   1.000  O
  O64      1.0000 0.74760  0.32010  0.71480  Biso   1.000  O
  O65      1.0000 0.78240  0.04510  0.71660  Biso   1.000  O
  O66      1.0000 0.91000  0.99580  0.82580  Biso   1.000  O
  O67      1.0000 0.94980  0.38460  0.96110  Biso   1.000  O
  O68      1.0000 0.02150  0.38990  0.09100  Biso   1.000  O
  Zn4      1.0000 0.60342  0.39122  0.70214  Biso   1.000  Zn
  N16      1.0000 0.25510  0.19870  0.92330  Biso   1.000  N
  O69      1.0000 0.31310  0.14160  0.94910  Biso   1.000  O
  O70      1.0000 0.31310  0.25510  0.93910  Biso   1.000  O
  O71      1.0000 0.76840  0.35690  0.13580  Biso   1.000  O
  O72      1.0000 0.62880  0.41040  0.18630  Biso   1.000  O
