data_image0
_cell_length_a       11.589
_cell_length_b       17.792
_cell_length_c       16.441
_cell_angle_alpha    90
_cell_angle_beta     109.73
_cell_angle_gamma    90

_symmetry_space_group_name_H-M    "P 1"
_symmetry_int_tables_number       1

loop_
  _symmetry_equiv_pos_as_xyz
  'x, y, z'

loop_
  _atom_site_label
  _atom_site_occupancy
  _atom_site_fract_x
  _atom_site_fract_y
  _atom_site_fract_z
  _atom_site_thermal_displace_type
  _atom_site_B_iso_or_equiv
  _atom_site_type_symbol
  Tb1      1.0000 0.91119  0.01015  0.86194  Biso   1.000  Tb
  Zn1      1.0000 0.58823  0.11520  0.69953  Biso   1.000  Zn
  C1       1.0000 0.80480  0.94120  0.01580  Biso   1.000  C
  C2       1.0000 0.67960  0.92330  0.01760  Biso   1.000  C
  C3       1.0000 0.66000  0.91850  0.09430  Biso   1.000  C
  H1       1.0000 0.72580  0.92460  0.14520  Biso   1.000  H
  C4       1.0000 0.54400  0.90460  0.09890  Biso   1.000  C
  C5       1.0000 0.45140  0.89430  0.02570  Biso   1.000  C
  H2       1.0000 0.37260  0.88650  0.02690  Biso   1.000  H
  C6       1.0000 0.47180  0.89510  0.94800  Biso   1.000  C
  C7       1.0000 0.58280  0.90980  0.94140  Biso   1.000  C
  H3       1.0000 0.59400  0.91080  0.88800  Biso   1.000  H
  C8       1.0000 0.52220  0.90110  0.18610  Biso   1.000  C
  C9       1.0000 0.63550  0.96160  0.69890  Biso   1.000  C
  C10      1.0000 0.58490  0.88370  0.68190  Biso   1.000  C
  C11      1.0000 0.64590  0.82000  0.71790  Biso   1.000  C
  H4       1.0000 0.72460  0.82490  0.75770  Biso   1.000  H
  C12      1.0000 0.59870  0.74970  0.69920  Biso   1.000  C
  C13      1.0000 0.48690  0.74100  0.63520  Biso   1.000  C
  H5       1.0000 0.45330  0.69330  0.62100  Biso   1.000  H
  C14      1.0000 0.42500  0.80320  0.59210  Biso   1.000  C
  C15      1.0000 0.47480  0.87430  0.61190  Biso   1.000  C
  H6       1.0000 0.43590  0.91550  0.57940  Biso   1.000  H
  C16      1.0000 0.67320  0.67920  0.73910  Biso   1.000  C
  C17      1.0000 0.36450  0.13600  0.54650  Biso   1.000  C
  H7       1.0000 0.35420  0.08480  0.55280  Biso   1.000  H
  C18      1.0000 0.27720  0.17430  0.47880  Biso   1.000  C
  H8       1.0000 0.20980  0.14950  0.44070  Biso   1.000  H
  C19      1.0000 0.29560  0.25000  0.47110  Biso   1.000  C
  H9       1.0000 0.24090  0.27730  0.42640  Biso   1.000  H
  C20      1.0000 0.39430  0.28530  0.52930  Biso   1.000  C
  C21      1.0000 0.47230  0.24380  0.59480  Biso   1.000  C
  H10      1.0000 0.53640  0.26830  0.63620  Biso   1.000  H
  C22      1.0000 0.42270  0.36840  0.52410  Biso   1.000  C
  N1       1.0000 0.36840  0.88270  0.86740  Biso   1.000  N
  N2       1.0000 0.46100  0.16980  0.60210  Biso   1.000  N
  O1       1.0000 0.81170  0.95220  0.94290  Biso   1.000  O
  O2       1.0000 0.89170  0.94470  0.08630  Biso   1.000  O
  O3       1.0000 0.59980  0.92230  0.24890  Biso   1.000  O
  O4       1.0000 0.41800  0.88450  0.18540  Biso   1.000  O
  O5       1.0000 0.26000  0.89650  0.86900  Biso   1.000  O
  O6       1.0000 0.38200  0.90700  0.79900  Biso   1.000  O
  O7       1.0000 0.58120  0.01240  0.65500  Biso   1.000  O
  O8       1.0000 0.72000  0.98630  0.78600  Biso   1.000  O
  O9       1.0000 0.78180  0.69010  0.78330  Biso   1.000  O
  O10      1.0000 0.62200  0.61730  0.72110  Biso   1.000  O
  N3       1.0000 0.30800  0.79400  0.53700  Biso   1.000  N
  O11      1.0000 0.25300  0.73940  0.52700  Biso   1.000  O
  O12      1.0000 0.25000  0.84600  0.49800  Biso   1.000  O
  O13      1.0000 0.38260  0.39680  0.45140  Biso   1.000  O
  O14      1.0000 0.48610  0.39920  0.59310  Biso   1.000  O
  O15      1.0000 0.27500  0.85300  0.87600  Biso   1.000  O
  O16      1.0000 0.39200  0.86300  0.80100  Biso   1.000  O
  N4       1.0000 0.32000  0.79600  0.50500  Biso   1.000  N
  O17      1.0000 0.28500  0.73190  0.48080  Biso   1.000  O
  O18      1.0000 0.27700  0.85000  0.46250  Biso   1.000  O
  O19      1.0000 0.73900  0.96650  0.75220  Biso   1.000  O
  Tb2      1.0000 0.58881  0.51015  0.63806  Biso   1.000  Tb
  Zn2      1.0000 0.91177  0.61520  0.80047  Biso   1.000  Zn
  C23      1.0000 0.69520  0.44120  0.48420  Biso   1.000  C
  C24      1.0000 0.82040  0.42330  0.48240  Biso   1.000  C
  C25      1.0000 0.84000  0.41850  0.40570  Biso   1.000  C
  H11      1.0000 0.77420  0.42460  0.35480  Biso   1.000  H
  C26      1.0000 0.95600  0.40460  0.40110  Biso   1.000  C
  C27      1.0000 0.04860  0.39430  0.47430  Biso   1.000  C
  H12      1.0000 0.12740  0.38650  0.47310  Biso   1.000  H
  C28      1.0000 0.02820  0.39510  0.55200  Biso   1.000  C
  C29      1.0000 0.91720  0.40980  0.55860  Biso   1.000  C
  H13      1.0000 0.90600  0.41080  0.61200  Biso   1.000  H
  C30      1.0000 0.97780  0.40110  0.31390  Biso   1.000  C
  C31      1.0000 0.86450  0.46160  0.80110  Biso   1.000  C
  C32      1.0000 0.91510  0.38370  0.81810  Biso   1.000  C
  C33      1.0000 0.85410  0.32000  0.78210  Biso   1.000  C
  H14      1.0000 0.77540  0.32490  0.74230  Biso   1.000  H
  C34      1.0000 0.90130  0.24970  0.80080  Biso   1.000  C
  C35      1.0000 0.01310  0.24100  0.86480  Biso   1.000  C
  H15      1.0000 0.04670  0.19330  0.87900  Biso   1.000  H
  C36      1.0000 0.07500  0.30320  0.90790  Biso   1.000  C
  C37      1.0000 0.02520  0.37430  0.88810  Biso   1.000  C
  H16      1.0000 0.06410  0.41550  0.92060  Biso   1.000  H
  C38      1.0000 0.82680  0.17920  0.76090  Biso   1.000  C
  C39      1.0000 0.13550  0.63600  0.95350  Biso   1.000  C
  H17      1.0000 0.14580  0.58480  0.94720  Biso   1.000  H
  C40      1.0000 0.22280  0.67430  0.02120  Biso   1.000  C
  H18      1.0000 0.29020  0.64950  0.05930  Biso   1.000  H
  C41      1.0000 0.20440  0.75000  0.02890  Biso   1.000  C
  H19      1.0000 0.25910  0.77730  0.07360  Biso   1.000  H
  C42      1.0000 0.10570  0.78530  0.97070  Biso   1.000  C
  C43      1.0000 0.02770  0.74380  0.90520  Biso   1.000  C
  H20      1.0000 0.96360  0.76830  0.86380  Biso   1.000  H
  C44      1.0000 0.07730  0.86840  0.97590  Biso   1.000  C
  N5       1.0000 0.13160  0.38270  0.63260  Biso   1.000  N
  N6       1.0000 0.03900  0.66980  0.89790  Biso   1.000  N
  O20      1.0000 0.68830  0.45220  0.55710  Biso   1.000  O
  O21      1.0000 0.60830  0.44470  0.41370  Biso   1.000  O
  O22      1.0000 0.90020  0.42230  0.25110  Biso   1.000  O
  O23      1.0000 0.08200  0.38450  0.31460  Biso   1.000  O
  O24      1.0000 0.24000  0.39650  0.63100  Biso   1.000  O
  O25      1.0000 0.11800  0.40700  0.70100  Biso   1.000  O
  O26      1.0000 0.91880  0.51240  0.84500  Biso   1.000  O
  O27      1.0000 0.78000  0.48630  0.71400  Biso   1.000  O
  O28      1.0000 0.71820  0.19010  0.71670  Biso   1.000  O
  O29      1.0000 0.87800  0.11730  0.77890  Biso   1.000  O
  N7       1.0000 0.19200  0.29400  0.96300  Biso   1.000  N
  O30      1.0000 0.24700  0.23940  0.97300  Biso   1.000  O
  O31      1.0000 0.25000  0.34600  0.00200  Biso   1.000  O
  O32      1.0000 0.11740  0.89680  0.04860  Biso   1.000  O
  O33      1.0000 0.01390  0.89920  0.90690  Biso   1.000  O
  O34      1.0000 0.22500  0.35300  0.62400  Biso   1.000  O
  O35      1.0000 0.10800  0.36300  0.69900  Biso   1.000  O
  N8       1.0000 0.18000  0.29600  0.99500  Biso   1.000  N
  O36      1.0000 0.21500  0.23190  0.01920  Biso   1.000  O
  O37      1.0000 0.22300  0.35000  0.03750  Biso   1.000  O
  O38      1.0000 0.76100  0.46650  0.74780  Biso   1.000  O
  Tb3      1.0000 0.08881  0.98985  0.13806  Biso   1.000  Tb
  Zn3      1.0000 0.41177  0.88480  0.30047  Biso   1.000  Zn
  C45      1.0000 0.19520  0.05880  0.98420  Biso   1.000  C
  C46      1.0000 0.32040  0.07670  0.98240  Biso   1.000  C
  C47      1.0000 0.34000  0.08150  0.90570  Biso   1.000  C
  H21      1.0000 0.27420  0.07540  0.85480  Biso   1.000  H
  C48      1.0000 0.45600  0.09540  0.90110  Biso   1.000  C
  C49      1.0000 0.54860  0.10570  0.97430  Biso   1.000  C
  H22      1.0000 0.62740  0.11350  0.97310  Biso   1.000  H
  C50      1.0000 0.52820  0.10490  0.05200  Biso   1.000  C
  C51      1.0000 0.41720  0.09020  0.05860  Biso   1.000  C
  H23      1.0000 0.40600  0.08920  0.11200  Biso   1.000  H
  C52      1.0000 0.47780  0.09890  0.81390  Biso   1.000  C
  C53      1.0000 0.36450  0.03840  0.30110  Biso   1.000  C
  C54      1.0000 0.41510  0.11630  0.31810  Biso   1.000  C
  C55      1.0000 0.35410  0.18000  0.28210  Biso   1.000  C
  H24      1.0000 0.27540  0.17510  0.24230  Biso   1.000  H
  C56      1.0000 0.40130  0.25030  0.30080  Biso   1.000  C
  C57      1.0000 0.51310  0.25900  0.36480  Biso   1.000  C
  H25      1.0000 0.54670  0.30670  0.37900  Biso   1.000  H
  C58      1.0000 0.57500  0.19680  0.40790  Biso   1.000  C
  C59      1.0000 0.52520  0.12570  0.38810  Biso   1.000  C
  H26      1.0000 0.56410  0.08450  0.42060  Biso   1.000  H
  C60      1.0000 0.32680  0.32080  0.26090  Biso   1.000  C
  C61      1.0000 0.63550  0.86400  0.45350  Biso   1.000  C
  H27      1.0000 0.64580  0.91520  0.44720  Biso   1.000  H
  C62      1.0000 0.72280  0.82570  0.52120  Biso   1.000  C
  H28      1.0000 0.79020  0.85050  0.55930  Biso   1.000  H
  C63      1.0000 0.70440  0.75000  0.52890  Biso   1.000  C
  H29      1.0000 0.75910  0.72270  0.57360  Biso   1.000  H
  C64      1.0000 0.60570  0.71470  0.47070  Biso   1.000  C
  C65      1.0000 0.52770  0.75620  0.40520  Biso   1.000  C
  H30      1.0000 0.46360  0.73170  0.36380  Biso   1.000  H
  C66      1.0000 0.57730  0.63160  0.47590  Biso   1.000  C
  N9       1.0000 0.63160  0.11730  0.13260  Biso   1.000  N
  N10      1.0000 0.53900  0.83020  0.39790  Biso   1.000  N
  O39      1.0000 0.18830  0.04780  0.05710  Biso   1.000  O
  O40      1.0000 0.10830  0.05530  0.91370  Biso   1.000  O
  O41      1.0000 0.40020  0.07770  0.75110  Biso   1.000  O
  O42      1.0000 0.58200  0.11550  0.81460  Biso   1.000  O
  O43      1.0000 0.74000  0.10350  0.13100  Biso   1.000  O
  O44      1.0000 0.61800  0.09300  0.20100  Biso   1.000  O
  O45      1.0000 0.41880  0.98760  0.34500  Biso   1.000  O
  O46      1.0000 0.28000  0.01370  0.21400  Biso   1.000  O
  O47      1.0000 0.21820  0.30990  0.21670  Biso   1.000  O
  O48      1.0000 0.37800  0.38270  0.27890  Biso   1.000  O
  N11      1.0000 0.69200  0.20600  0.46300  Biso   1.000  N
  O49      1.0000 0.74700  0.26060  0.47300  Biso   1.000  O
  O50      1.0000 0.75000  0.15400  0.50200  Biso   1.000  O
  O51      1.0000 0.61740  0.60320  0.54860  Biso   1.000  O
  O52      1.0000 0.51390  0.60080  0.40690  Biso   1.000  O
  O53      1.0000 0.72500  0.14700  0.12400  Biso   1.000  O
  O54      1.0000 0.60800  0.13700  0.19900  Biso   1.000  O
  N12      1.0000 0.68000  0.20400  0.49500  Biso   1.000  N
  O55      1.0000 0.71500  0.26810  0.51920  Biso   1.000  O
  O56      1.0000 0.72300  0.15000  0.53750  Biso   1.000  O
  O57      1.0000 0.26100  0.03350  0.24780  Biso   1.000  O
  Tb4      1.0000 0.41119  0.48985  0.36194  Biso   1.000  Tb
  Zn4      1.0000 0.08823  0.38480  0.19953  Biso   1.000  Zn
  C67      1.0000 0.30480  0.55880  0.51580  Biso   1.000  C
  C68      1.0000 0.17960  0.57670  0.51760  Biso   1.000  C
  C69      1.0000 0.16000  0.58150  0.59430  Biso   1.000  C
  H31      1.0000 0.22580  0.57540  0.64520  Biso   1.000  H
  C70      1.0000 0.04400  0.59540  0.59890  Biso   1.000  C
  C71      1.0000 0.95140  0.60570  0.52570  Biso   1.000  C
  H32      1.0000 0.87260  0.61350  0.52690  Biso   1.000  H
  C72      1.0000 0.97180  0.60490  0.44800  Biso   1.000  C
  C73      1.0000 0.08280  0.59020  0.44140  Biso   1.000  C
  H33      1.0000 0.09400  0.58920  0.38800  Biso   1.000  H
  C74      1.0000 0.02220  0.59890  0.68610  Biso   1.000  C
  C75      1.0000 0.13550  0.53840  0.19890  Biso   1.000  C
  C76      1.0000 0.08490  0.61630  0.18190  Biso   1.000  C
  C77      1.0000 0.14590  0.68000  0.21790  Biso   1.000  C
  H34      1.0000 0.22460  0.67510  0.25770  Biso   1.000  H
  C78      1.0000 0.09870  0.75030  0.19920  Biso   1.000  C
  C79      1.0000 0.98690  0.75900  0.13520  Biso   1.000  C
  H35      1.0000 0.95330  0.80670  0.12100  Biso   1.000  H
  C80      1.0000 0.92500  0.69680  0.09210  Biso   1.000  C
  C81      1.0000 0.97480  0.62570  0.11190  Biso   1.000  C
  H36      1.0000 0.93590  0.58450  0.07940  Biso   1.000  H
  C82      1.0000 0.17320  0.82080  0.23910  Biso   1.000  C
  C83      1.0000 0.86450  0.36400  0.04650  Biso   1.000  C
  H37      1.0000 0.85420  0.41520  0.05280  Biso   1.000  H
  C84      1.0000 0.77720  0.32570  0.97880  Biso   1.000  C
  H38      1.0000 0.70980  0.35050  0.94070  Biso   1.000  H
  C85      1.0000 0.79560  0.25000  0.97110  Biso   1.000  C
  H39      1.0000 0.74090  0.22270  0.92640  Biso   1.000  H
  C86      1.0000 0.89430  0.21470  0.02930  Biso   1.000  C
  C87      1.0000 0.97230  0.25620  0.09480  Biso   1.000  C
  H40      1.0000 0.03640  0.23170  0.13620  Biso   1.000  H
  C88      1.0000 0.92270  0.13160  0.02410  Biso   1.000  C
  N13      1.0000 0.86840  0.61730  0.36740  Biso   1.000  N
  N14      1.0000 0.96100  0.33020  0.10210  Biso   1.000  N
  O58      1.0000 0.31170  0.54780  0.44290  Biso   1.000  O
  O59      1.0000 0.39170  0.55530  0.58630  Biso   1.000  O
  O60      1.0000 0.09980  0.57770  0.74890  Biso   1.000  O
  O61      1.0000 0.91800  0.61550  0.68540  Biso   1.000  O
  O62      1.0000 0.76000  0.60350  0.36900  Biso   1.000  O
  O63      1.0000 0.88200  0.59300  0.29900  Biso   1.000  O
  O64      1.0000 0.08120  0.48760  0.15500  Biso   1.000  O
  O65      1.0000 0.22000  0.51370  0.28600  Biso   1.000  O
  O66      1.0000 0.28180  0.80990  0.28330  Biso   1.000  O
  O67      1.0000 0.12200  0.88270  0.22110  Biso   1.000  O
  N15      1.0000 0.80800  0.70600  0.03700  Biso   1.000  N
  O68      1.0000 0.75300  0.76060  0.02700  Biso   1.000  O
  O69      1.0000 0.75000  0.65400  0.99800  Biso   1.000  O
  O70      1.0000 0.88260  0.10320  0.95140  Biso   1.000  O
  O71      1.0000 0.98610  0.10080  0.09310  Biso   1.000  O
  O72      1.0000 0.77500  0.64700  0.37600  Biso   1.000  O
  O73      1.0000 0.89200  0.63700  0.30100  Biso   1.000  O
  N16      1.0000 0.82000  0.70400  0.00500  Biso   1.000  N
  O74      1.0000 0.78500  0.76810  0.98080  Biso   1.000  O
  O75      1.0000 0.77700  0.65000  0.96250  Biso   1.000  O
  O76      1.0000 0.23900  0.53350  0.25220  Biso   1.000  O
