data_image0
_cell_length_a       18.667
_cell_length_b       18.667
_cell_length_c       36.398
_cell_angle_alpha    90
_cell_angle_beta     90
_cell_angle_gamma    120

_symmetry_space_group_name_H-M    "P 1"
_symmetry_int_tables_number       1

loop_
  _symmetry_equiv_pos_as_xyz
  'x, y, z'

loop_
  _atom_site_label
  _atom_site_occupancy
  _atom_site_fract_x
  _atom_site_fract_y
  _atom_site_fract_z
  _atom_site_thermal_displace_type
  _atom_site_B_iso_or_equiv
  _atom_site_type_symbol
  O1       1.0000 0.48125  0.36993  0.00175  Biso   1.000  O
  O2       1.0000 0.40910  0.43900  0.04819  Biso   1.000  O
  N1       1.0000 0.54170  0.42090  0.07926  Biso   1.000  N
  C1       1.0000 0.54350  0.34960  0.07889  Biso   1.000  C
  H1       1.0000 0.54720  0.32740  0.05590  Biso   1.000  H
  C2       1.0000 0.54000  0.30660  0.11123  Biso   1.000  C
  C3       1.0000 0.53620  0.34100  0.14420  Biso   1.000  C
  H2       1.0000 0.53590  0.31460  0.16650  Biso   1.000  H
  C4       1.0000 0.53280  0.41300  0.14512  Biso   1.000  C
  C5       1.0000 0.41600  0.45560  0.25438  Biso   1.000  C
  H3       1.0000 0.37990  0.40370  0.24330  Biso   1.000  H
  C6       1.0000 0.39180  0.47960  0.28660  Biso   1.000  C
  C7       1.0000 0.44960  0.35810  0.97010  Biso   1.000  C
  O3       1.0000 0.14792  0.70326  0.33508  Biso   1.000  O
  O4       1.0000 0.07577  0.77233  0.38152  Biso   1.000  O
  N2       1.0000 0.20837  0.75423  0.41259  Biso   1.000  N
  C8       1.0000 0.21017  0.68293  0.41222  Biso   1.000  C
  H4       1.0000 0.21387  0.66073  0.38923  Biso   1.000  H
  C9       1.0000 0.20667  0.63993  0.44456  Biso   1.000  C
  C10      1.0000 0.20287  0.67433  0.47753  Biso   1.000  C
  H5       1.0000 0.20257  0.64793  0.49983  Biso   1.000  H
  C11      1.0000 0.19947  0.74633  0.47845  Biso   1.000  C
  C12      1.0000 0.08267  0.78893  0.58771  Biso   1.000  C
  H6       1.0000 0.04657  0.73703  0.57663  Biso   1.000  H
  C13      1.0000 0.05847  0.81293  0.61993  Biso   1.000  C
  C14      1.0000 0.11627  0.69143  0.30343  Biso   1.000  C
  O5       1.0000 0.81458  0.03660  0.66842  Biso   1.000  O
  O6       1.0000 0.74243  0.10567  0.71486  Biso   1.000  O
  N3       1.0000 0.87503  0.08757  0.74593  Biso   1.000  N
  C15      1.0000 0.87683  0.01627  0.74556  Biso   1.000  C
  H7       1.0000 0.88053  0.99407  0.72257  Biso   1.000  H
  C16      1.0000 0.87333  0.97327  0.77790  Biso   1.000  C
  C17      1.0000 0.86953  0.00767  0.81087  Biso   1.000  C
  H8       1.0000 0.86923  0.98127  0.83317  Biso   1.000  H
  C18      1.0000 0.86613  0.07967  0.81179  Biso   1.000  C
  C19      1.0000 0.74933  0.12227  0.92105  Biso   1.000  C
  H9       1.0000 0.71323  0.07037  0.90997  Biso   1.000  H
  C20      1.0000 0.72513  0.14627  0.95327  Biso   1.000  C
  C21      1.0000 0.78293  0.02477  0.63677  Biso   1.000  C
  O7       1.0000 0.63007  0.11132  0.00175  Biso   1.000  O
  O8       1.0000 0.56100  0.97010  0.04819  Biso   1.000  O
  N4       1.0000 0.57910  0.12080  0.07926  Biso   1.000  N
  C22      1.0000 0.65040  0.19390  0.07889  Biso   1.000  C
  H10      1.0000 0.67260  0.21980  0.05590  Biso   1.000  H
  C23      1.0000 0.69340  0.23340  0.11123  Biso   1.000  C
  C24      1.0000 0.65900  0.19520  0.14420  Biso   1.000  C
  H11      1.0000 0.68540  0.22130  0.16650  Biso   1.000  H
  C25      1.0000 0.58700  0.11980  0.14512  Biso   1.000  C
  C26      1.0000 0.54440  0.96040  0.25438  Biso   1.000  C
  H12      1.0000 0.59630  0.97620  0.24330  Biso   1.000  H
  C27      1.0000 0.52040  0.91220  0.28660  Biso   1.000  C
  C28      1.0000 0.64190  0.09150  0.97010  Biso   1.000  C
  O9       1.0000 0.29674  0.44465  0.33508  Biso   1.000  O
  O10      1.0000 0.22767  0.30343  0.38152  Biso   1.000  O
  N5       1.0000 0.24577  0.45413  0.41259  Biso   1.000  N
  C29      1.0000 0.31707  0.52723  0.41222  Biso   1.000  C
  H13      1.0000 0.33927  0.55313  0.38923  Biso   1.000  H
  C30      1.0000 0.36007  0.56673  0.44456  Biso   1.000  C
  C31      1.0000 0.32567  0.52853  0.47753  Biso   1.000  C
  H14      1.0000 0.35207  0.55463  0.49983  Biso   1.000  H
  C32      1.0000 0.25367  0.45313  0.47845  Biso   1.000  C
  C33      1.0000 0.21107  0.29373  0.58771  Biso   1.000  C
  H15      1.0000 0.26297  0.30953  0.57663  Biso   1.000  H
  C34      1.0000 0.18707  0.24553  0.61993  Biso   1.000  C
  C35      1.0000 0.30857  0.42483  0.30343  Biso   1.000  C
  O11      1.0000 0.96340  0.77799  0.66842  Biso   1.000  O
  O12      1.0000 0.89433  0.63677  0.71486  Biso   1.000  O
  N6       1.0000 0.91243  0.78747  0.74593  Biso   1.000  N
  C36      1.0000 0.98373  0.86057  0.74556  Biso   1.000  C
  H16      1.0000 0.00593  0.88647  0.72257  Biso   1.000  H
  C37      1.0000 0.02673  0.90007  0.77790  Biso   1.000  C
  C38      1.0000 0.99233  0.86187  0.81087  Biso   1.000  C
  H17      1.0000 0.01873  0.88797  0.83317  Biso   1.000  H
  C39      1.0000 0.92033  0.78647  0.81179  Biso   1.000  C
  C40      1.0000 0.87773  0.62707  0.92105  Biso   1.000  C
  H18      1.0000 0.92963  0.64287  0.90997  Biso   1.000  H
  C41      1.0000 0.85373  0.57887  0.95327  Biso   1.000  C
  C42      1.0000 0.97523  0.75817  0.63677  Biso   1.000  C
  O13      1.0000 0.88868  0.51875  0.00175  Biso   1.000  O
  O14      1.0000 0.02990  0.59090  0.04819  Biso   1.000  O
  N7       1.0000 0.87920  0.45830  0.07926  Biso   1.000  N
  C43      1.0000 0.80610  0.45650  0.07889  Biso   1.000  C
  H19      1.0000 0.78020  0.45280  0.05590  Biso   1.000  H
  C44      1.0000 0.76660  0.46000  0.11123  Biso   1.000  C
  C45      1.0000 0.80480  0.46380  0.14420  Biso   1.000  C
  H20      1.0000 0.77870  0.46410  0.16650  Biso   1.000  H
  C46      1.0000 0.88020  0.46720  0.14512  Biso   1.000  C
  C47      1.0000 0.03960  0.58400  0.25438  Biso   1.000  C
  H21      1.0000 0.02380  0.62010  0.24330  Biso   1.000  H
  C48      1.0000 0.08780  0.60820  0.28660  Biso   1.000  C
  C49      1.0000 0.90850  0.55040  0.97010  Biso   1.000  C
  O15      1.0000 0.55535  0.85208  0.33508  Biso   1.000  O
  O16      1.0000 0.69657  0.92423  0.38152  Biso   1.000  O
  N8       1.0000 0.54587  0.79163  0.41259  Biso   1.000  N
  C50      1.0000 0.47277  0.78983  0.41222  Biso   1.000  C
  H22      1.0000 0.44687  0.78613  0.38923  Biso   1.000  H
  C51      1.0000 0.43327  0.79333  0.44456  Biso   1.000  C
  C52      1.0000 0.47147  0.79713  0.47753  Biso   1.000  C
  H23      1.0000 0.44537  0.79743  0.49983  Biso   1.000  H
  C53      1.0000 0.54687  0.80053  0.47845  Biso   1.000  C
  C54      1.0000 0.70627  0.91733  0.58771  Biso   1.000  C
  H24      1.0000 0.69047  0.95343  0.57663  Biso   1.000  H
  C55      1.0000 0.75447  0.94153  0.61993  Biso   1.000  C
  C56      1.0000 0.57517  0.88373  0.30343  Biso   1.000  C
  O17      1.0000 0.22201  0.18542  0.66842  Biso   1.000  O
  O18      1.0000 0.36323  0.25757  0.71486  Biso   1.000  O
  N9       1.0000 0.21253  0.12497  0.74593  Biso   1.000  N
  C57      1.0000 0.13943  0.12317  0.74556  Biso   1.000  C
  H25      1.0000 0.11353  0.11947  0.72257  Biso   1.000  H
  C58      1.0000 0.09993  0.12667  0.77790  Biso   1.000  C
  C59      1.0000 0.13813  0.13047  0.81087  Biso   1.000  C
  H26      1.0000 0.11203  0.13077  0.83317  Biso   1.000  H
  C60      1.0000 0.21353  0.13387  0.81179  Biso   1.000  C
  C61      1.0000 0.37293  0.25067  0.92105  Biso   1.000  C
  H27      1.0000 0.35713  0.28677  0.90997  Biso   1.000  H
  C62      1.0000 0.42113  0.27487  0.95327  Biso   1.000  C
  C63      1.0000 0.24183  0.21707  0.63677  Biso   1.000  C
  O19      1.0000 0.36993  0.48125  0.99825  Biso   1.000  O
  O20      1.0000 0.43900  0.40910  0.95181  Biso   1.000  O
  N10      1.0000 0.42090  0.54170  0.92074  Biso   1.000  N
  C64      1.0000 0.34960  0.54350  0.92111  Biso   1.000  C
  H28      1.0000 0.32740  0.54720  0.94410  Biso   1.000  H
  C65      1.0000 0.30660  0.54000  0.88877  Biso   1.000  C
  C66      1.0000 0.34100  0.53620  0.85580  Biso   1.000  C
  H29      1.0000 0.31460  0.53590  0.83350  Biso   1.000  H
  C67      1.0000 0.41300  0.53280  0.85488  Biso   1.000  C
  C68      1.0000 0.45560  0.41600  0.74562  Biso   1.000  C
  H30      1.0000 0.40370  0.37990  0.75670  Biso   1.000  H
  C69      1.0000 0.47960  0.39180  0.71340  Biso   1.000  C
  C70      1.0000 0.35810  0.44960  0.02990  Biso   1.000  C
  O21      1.0000 0.03660  0.81458  0.33158  Biso   1.000  O
  O22      1.0000 0.10567  0.74243  0.28514  Biso   1.000  O
  N11      1.0000 0.08757  0.87503  0.25407  Biso   1.000  N
  C71      1.0000 0.01627  0.87683  0.25444  Biso   1.000  C
  H31      1.0000 0.99407  0.88053  0.27743  Biso   1.000  H
  C72      1.0000 0.97327  0.87333  0.22210  Biso   1.000  C
  C73      1.0000 0.00767  0.86953  0.18913  Biso   1.000  C
  H32      1.0000 0.98127  0.86923  0.16683  Biso   1.000  H
  C74      1.0000 0.07967  0.86613  0.18821  Biso   1.000  C
  C75      1.0000 0.12227  0.74933  0.07895  Biso   1.000  C
  H33      1.0000 0.07037  0.71323  0.09003  Biso   1.000  H
  C76      1.0000 0.14627  0.72513  0.04673  Biso   1.000  C
  C77      1.0000 0.02477  0.78293  0.36323  Biso   1.000  C
  O23      1.0000 0.70326  0.14792  0.66492  Biso   1.000  O
  O24      1.0000 0.77233  0.07577  0.61848  Biso   1.000  O
  N12      1.0000 0.75423  0.20837  0.58741  Biso   1.000  N
  C78      1.0000 0.68293  0.21017  0.58778  Biso   1.000  C
  H34      1.0000 0.66073  0.21387  0.61077  Biso   1.000  H
  C79      1.0000 0.63993  0.20667  0.55544  Biso   1.000  C
  C80      1.0000 0.67433  0.20287  0.52247  Biso   1.000  C
  H35      1.0000 0.64793  0.20257  0.50017  Biso   1.000  H
  C81      1.0000 0.74633  0.19947  0.52155  Biso   1.000  C
  C82      1.0000 0.78893  0.08267  0.41229  Biso   1.000  C
  H36      1.0000 0.73703  0.04657  0.42337  Biso   1.000  H
  C83      1.0000 0.81293  0.05847  0.38007  Biso   1.000  C
  C84      1.0000 0.69143  0.11627  0.69657  Biso   1.000  C
  O25      1.0000 0.11132  0.63007  0.99825  Biso   1.000  O
  O26      1.0000 0.97010  0.56100  0.95181  Biso   1.000  O
  N13      1.0000 0.12080  0.57910  0.92074  Biso   1.000  N
  C85      1.0000 0.19390  0.65040  0.92111  Biso   1.000  C
  H37      1.0000 0.21980  0.67260  0.94410  Biso   1.000  H
  C86      1.0000 0.23340  0.69340  0.88877  Biso   1.000  C
  C87      1.0000 0.19520  0.65900  0.85580  Biso   1.000  C
  H38      1.0000 0.22130  0.68540  0.83350  Biso   1.000  H
  C88      1.0000 0.11980  0.58700  0.85488  Biso   1.000  C
  C89      1.0000 0.96040  0.54440  0.74562  Biso   1.000  C
  H39      1.0000 0.97620  0.59630  0.75670  Biso   1.000  H
  C90      1.0000 0.91220  0.52040  0.71340  Biso   1.000  C
  C91      1.0000 0.09150  0.64190  0.02990  Biso   1.000  C
  O27      1.0000 0.77799  0.96340  0.33158  Biso   1.000  O
  O28      1.0000 0.63677  0.89433  0.28514  Biso   1.000  O
  N14      1.0000 0.78747  0.91243  0.25407  Biso   1.000  N
  C92      1.0000 0.86057  0.98373  0.25444  Biso   1.000  C
  H40      1.0000 0.88647  0.00593  0.27743  Biso   1.000  H
  C93      1.0000 0.90007  0.02673  0.22210  Biso   1.000  C
  C94      1.0000 0.86187  0.99233  0.18913  Biso   1.000  C
  H41      1.0000 0.88797  0.01873  0.16683  Biso   1.000  H
  C95      1.0000 0.78647  0.92033  0.18821  Biso   1.000  C
  C96      1.0000 0.62707  0.87773  0.07895  Biso   1.000  C
  H42      1.0000 0.64287  0.92963  0.09003  Biso   1.000  H
  C97      1.0000 0.57887  0.85373  0.04673  Biso   1.000  C
  C98      1.0000 0.75817  0.97523  0.36323  Biso   1.000  C
  O29      1.0000 0.44465  0.29674  0.66492  Biso   1.000  O
  O30      1.0000 0.30343  0.22767  0.61848  Biso   1.000  O
  N15      1.0000 0.45413  0.24577  0.58741  Biso   1.000  N
  C99      1.0000 0.52723  0.31707  0.58778  Biso   1.000  C
  H43      1.0000 0.55313  0.33927  0.61077  Biso   1.000  H
  C100     1.0000 0.56673  0.36007  0.55544  Biso   1.000  C
  C101     1.0000 0.52853  0.32567  0.52247  Biso   1.000  C
  H44      1.0000 0.55463  0.35207  0.50017  Biso   1.000  H
  C102     1.0000 0.45313  0.25367  0.52155  Biso   1.000  C
  C103     1.0000 0.29373  0.21107  0.41229  Biso   1.000  C
  H45      1.0000 0.30953  0.26297  0.42337  Biso   1.000  H
  C104     1.0000 0.24553  0.18707  0.38007  Biso   1.000  C
  C105     1.0000 0.42483  0.30857  0.69657  Biso   1.000  C
  O31      1.0000 0.51875  0.88868  0.99825  Biso   1.000  O
  O32      1.0000 0.59090  0.02990  0.95181  Biso   1.000  O
  N16      1.0000 0.45830  0.87920  0.92074  Biso   1.000  N
  C106     1.0000 0.45650  0.80610  0.92111  Biso   1.000  C
  H46      1.0000 0.45280  0.78020  0.94410  Biso   1.000  H
  C107     1.0000 0.46000  0.76660  0.88877  Biso   1.000  C
  C108     1.0000 0.46380  0.80480  0.85580  Biso   1.000  C
  H47      1.0000 0.46410  0.77870  0.83350  Biso   1.000  H
  C109     1.0000 0.46720  0.88020  0.85488  Biso   1.000  C
  C110     1.0000 0.58400  0.03960  0.74562  Biso   1.000  C
  H48      1.0000 0.62010  0.02380  0.75670  Biso   1.000  H
  C111     1.0000 0.60820  0.08780  0.71340  Biso   1.000  C
  C112     1.0000 0.55040  0.90850  0.02990  Biso   1.000  C
  O33      1.0000 0.18542  0.22201  0.33158  Biso   1.000  O
  O34      1.0000 0.25757  0.36323  0.28514  Biso   1.000  O
  N17      1.0000 0.12497  0.21253  0.25407  Biso   1.000  N
  C113     1.0000 0.12317  0.13943  0.25444  Biso   1.000  C
  H49      1.0000 0.11947  0.11353  0.27743  Biso   1.000  H
  C114     1.0000 0.12667  0.09993  0.22210  Biso   1.000  C
  C115     1.0000 0.13047  0.13813  0.18913  Biso   1.000  C
  H50      1.0000 0.13077  0.11203  0.16683  Biso   1.000  H
  C116     1.0000 0.13387  0.21353  0.18821  Biso   1.000  C
  C117     1.0000 0.25067  0.37293  0.07895  Biso   1.000  C
  H51      1.0000 0.28677  0.35713  0.09003  Biso   1.000  H
  C118     1.0000 0.27487  0.42113  0.04673  Biso   1.000  C
  C119     1.0000 0.21707  0.24183  0.36323  Biso   1.000  C
  O35      1.0000 0.85208  0.55535  0.66492  Biso   1.000  O
  O36      1.0000 0.92423  0.69657  0.61848  Biso   1.000  O
  N18      1.0000 0.79163  0.54587  0.58741  Biso   1.000  N
  C120     1.0000 0.78983  0.47277  0.58778  Biso   1.000  C
  H52      1.0000 0.78613  0.44687  0.61077  Biso   1.000  H
  C121     1.0000 0.79333  0.43327  0.55544  Biso   1.000  C
  C122     1.0000 0.79713  0.47147  0.52247  Biso   1.000  C
  H53      1.0000 0.79743  0.44537  0.50017  Biso   1.000  H
  C123     1.0000 0.80053  0.54687  0.52155  Biso   1.000  C
  C124     1.0000 0.91733  0.70627  0.41229  Biso   1.000  C
  H54      1.0000 0.95343  0.69047  0.42337  Biso   1.000  H
  C125     1.0000 0.94153  0.75447  0.38007  Biso   1.000  C
  C126     1.0000 0.88373  0.57517  0.69657  Biso   1.000  C
  O37      1.0000 0.51875  0.63007  0.99825  Biso   1.000  O
  O38      1.0000 0.59090  0.56100  0.95181  Biso   1.000  O
  N19      1.0000 0.45830  0.57910  0.92074  Biso   1.000  N
  C127     1.0000 0.45650  0.65040  0.92111  Biso   1.000  C
  H55      1.0000 0.45280  0.67260  0.94410  Biso   1.000  H
  C128     1.0000 0.46000  0.69340  0.88877  Biso   1.000  C
  C129     1.0000 0.46380  0.65900  0.85580  Biso   1.000  C
  H56      1.0000 0.46410  0.68540  0.83350  Biso   1.000  H
  C130     1.0000 0.46720  0.58700  0.85488  Biso   1.000  C
  C131     1.0000 0.58400  0.54440  0.74562  Biso   1.000  C
  H57      1.0000 0.62010  0.59630  0.75670  Biso   1.000  H
  C132     1.0000 0.60820  0.52040  0.71340  Biso   1.000  C
  C133     1.0000 0.55040  0.64190  0.02990  Biso   1.000  C
  O39      1.0000 0.18542  0.96340  0.33158  Biso   1.000  O
  O40      1.0000 0.25757  0.89433  0.28514  Biso   1.000  O
  N20      1.0000 0.12497  0.91243  0.25407  Biso   1.000  N
  C134     1.0000 0.12317  0.98373  0.25444  Biso   1.000  C
  H58      1.0000 0.11947  0.00593  0.27743  Biso   1.000  H
  C135     1.0000 0.12667  0.02673  0.22210  Biso   1.000  C
  C136     1.0000 0.13047  0.99233  0.18913  Biso   1.000  C
  H59      1.0000 0.13077  0.01873  0.16683  Biso   1.000  H
  C137     1.0000 0.13387  0.92033  0.18821  Biso   1.000  C
  C138     1.0000 0.25067  0.87773  0.07895  Biso   1.000  C
  H60      1.0000 0.28677  0.92963  0.09003  Biso   1.000  H
  C139     1.0000 0.27487  0.85373  0.04673  Biso   1.000  C
  C140     1.0000 0.21707  0.97523  0.36323  Biso   1.000  C
  O41      1.0000 0.85208  0.29674  0.66492  Biso   1.000  O
  O42      1.0000 0.92423  0.22767  0.61848  Biso   1.000  O
  N21      1.0000 0.79163  0.24577  0.58741  Biso   1.000  N
  C141     1.0000 0.78983  0.31707  0.58778  Biso   1.000  C
  H61      1.0000 0.78613  0.33927  0.61077  Biso   1.000  H
  C142     1.0000 0.79333  0.36007  0.55544  Biso   1.000  C
  C143     1.0000 0.79713  0.32567  0.52247  Biso   1.000  C
  H62      1.0000 0.79743  0.35207  0.50017  Biso   1.000  H
  C144     1.0000 0.80053  0.25367  0.52155  Biso   1.000  C
  C145     1.0000 0.91733  0.21107  0.41229  Biso   1.000  C
  H63      1.0000 0.95343  0.26297  0.42337  Biso   1.000  H
  C146     1.0000 0.94153  0.18707  0.38007  Biso   1.000  C
  C147     1.0000 0.88373  0.30857  0.69657  Biso   1.000  C
  O43      1.0000 0.36993  0.88868  0.99825  Biso   1.000  O
  O44      1.0000 0.43900  0.02990  0.95181  Biso   1.000  O
  N22      1.0000 0.42090  0.87920  0.92074  Biso   1.000  N
  C148     1.0000 0.34960  0.80610  0.92111  Biso   1.000  C
  H64      1.0000 0.32740  0.78020  0.94410  Biso   1.000  H
  C149     1.0000 0.30660  0.76660  0.88877  Biso   1.000  C
  C150     1.0000 0.34100  0.80480  0.85580  Biso   1.000  C
  H65      1.0000 0.31460  0.77870  0.83350  Biso   1.000  H
  C151     1.0000 0.41300  0.88020  0.85488  Biso   1.000  C
  C152     1.0000 0.45560  0.03960  0.74562  Biso   1.000  C
  H66      1.0000 0.40370  0.02380  0.75670  Biso   1.000  H
  C153     1.0000 0.47960  0.08780  0.71340  Biso   1.000  C
  C154     1.0000 0.35810  0.90850  0.02990  Biso   1.000  C
  O45      1.0000 0.03660  0.22201  0.33158  Biso   1.000  O
  O46      1.0000 0.10567  0.36323  0.28514  Biso   1.000  O
  N23      1.0000 0.08757  0.21253  0.25407  Biso   1.000  N
  C155     1.0000 0.01627  0.13943  0.25444  Biso   1.000  C
  H67      1.0000 0.99407  0.11353  0.27743  Biso   1.000  H
  C156     1.0000 0.97327  0.09993  0.22210  Biso   1.000  C
  C157     1.0000 0.00767  0.13813  0.18913  Biso   1.000  C
  H68      1.0000 0.98127  0.11203  0.16683  Biso   1.000  H
  C158     1.0000 0.07967  0.21353  0.18821  Biso   1.000  C
  C159     1.0000 0.12227  0.37293  0.07895  Biso   1.000  C
  H69      1.0000 0.07037  0.35713  0.09003  Biso   1.000  H
  C160     1.0000 0.14627  0.42113  0.04673  Biso   1.000  C
  C161     1.0000 0.02477  0.24183  0.36323  Biso   1.000  C
  O47      1.0000 0.70326  0.55535  0.66492  Biso   1.000  O
  O48      1.0000 0.77233  0.69657  0.61848  Biso   1.000  O
  N24      1.0000 0.75423  0.54587  0.58741  Biso   1.000  N
  C162     1.0000 0.68293  0.47277  0.58778  Biso   1.000  C
  H70      1.0000 0.66073  0.44687  0.61077  Biso   1.000  H
  C163     1.0000 0.63993  0.43327  0.55544  Biso   1.000  C
  C164     1.0000 0.67433  0.47147  0.52247  Biso   1.000  C
  H71      1.0000 0.64793  0.44537  0.50017  Biso   1.000  H
  C165     1.0000 0.74633  0.54687  0.52155  Biso   1.000  C
  C166     1.0000 0.78893  0.70627  0.41229  Biso   1.000  C
  H72      1.0000 0.73703  0.69047  0.42337  Biso   1.000  H
  C167     1.0000 0.81293  0.75447  0.38007  Biso   1.000  C
  C168     1.0000 0.69143  0.57517  0.69657  Biso   1.000  C
  O49      1.0000 0.11132  0.48125  0.99825  Biso   1.000  O
  O50      1.0000 0.97010  0.40910  0.95181  Biso   1.000  O
  N25      1.0000 0.12080  0.54170  0.92074  Biso   1.000  N
  C169     1.0000 0.19390  0.54350  0.92111  Biso   1.000  C
  H73      1.0000 0.21980  0.54720  0.94410  Biso   1.000  H
  C170     1.0000 0.23340  0.54000  0.88877  Biso   1.000  C
  C171     1.0000 0.19520  0.53620  0.85580  Biso   1.000  C
  H74      1.0000 0.22130  0.53590  0.83350  Biso   1.000  H
  C172     1.0000 0.11980  0.53280  0.85488  Biso   1.000  C
  C173     1.0000 0.96040  0.41600  0.74562  Biso   1.000  C
  H75      1.0000 0.97620  0.37990  0.75670  Biso   1.000  H
  C174     1.0000 0.91220  0.39180  0.71340  Biso   1.000  C
  C175     1.0000 0.09150  0.44960  0.02990  Biso   1.000  C
  O51      1.0000 0.77799  0.81458  0.33158  Biso   1.000  O
  O52      1.0000 0.63677  0.74243  0.28514  Biso   1.000  O
  N26      1.0000 0.78747  0.87503  0.25407  Biso   1.000  N
  C176     1.0000 0.86057  0.87683  0.25444  Biso   1.000  C
  H76      1.0000 0.88647  0.88053  0.27743  Biso   1.000  H
  C177     1.0000 0.90007  0.87333  0.22210  Biso   1.000  C
  C178     1.0000 0.86187  0.86953  0.18913  Biso   1.000  C
  H77      1.0000 0.88797  0.86923  0.16683  Biso   1.000  H
  C179     1.0000 0.78647  0.86613  0.18821  Biso   1.000  C
  C180     1.0000 0.62707  0.74933  0.07895  Biso   1.000  C
  H78      1.0000 0.64287  0.71323  0.09003  Biso   1.000  H
  C181     1.0000 0.57887  0.72513  0.04673  Biso   1.000  C
  C182     1.0000 0.75817  0.78293  0.36323  Biso   1.000  C
  O53      1.0000 0.44465  0.14792  0.66492  Biso   1.000  O
  O54      1.0000 0.30343  0.07577  0.61848  Biso   1.000  O
  N27      1.0000 0.45413  0.20837  0.58741  Biso   1.000  N
  C183     1.0000 0.52723  0.21017  0.58778  Biso   1.000  C
  H79      1.0000 0.55313  0.21387  0.61077  Biso   1.000  H
  C184     1.0000 0.56673  0.20667  0.55544  Biso   1.000  C
  C185     1.0000 0.52853  0.20287  0.52247  Biso   1.000  C
  H80      1.0000 0.55463  0.20257  0.50017  Biso   1.000  H
  C186     1.0000 0.45313  0.19947  0.52155  Biso   1.000  C
  C187     1.0000 0.29373  0.08267  0.41229  Biso   1.000  C
  H81      1.0000 0.30953  0.04657  0.42337  Biso   1.000  H
  C188     1.0000 0.24553  0.05847  0.38007  Biso   1.000  C
  C189     1.0000 0.42483  0.11627  0.69657  Biso   1.000  C
  O55      1.0000 0.63007  0.51875  0.00175  Biso   1.000  O
  O56      1.0000 0.56100  0.59090  0.04819  Biso   1.000  O
  N28      1.0000 0.57910  0.45830  0.07926  Biso   1.000  N
  C190     1.0000 0.65040  0.45650  0.07889  Biso   1.000  C
  H82      1.0000 0.67260  0.45280  0.05590  Biso   1.000  H
  C191     1.0000 0.69340  0.46000  0.11123  Biso   1.000  C
  C192     1.0000 0.65900  0.46380  0.14420  Biso   1.000  C
  H83      1.0000 0.68540  0.46410  0.16650  Biso   1.000  H
  C193     1.0000 0.58700  0.46720  0.14512  Biso   1.000  C
  C194     1.0000 0.54440  0.58400  0.25438  Biso   1.000  C
  H84      1.0000 0.59630  0.62010  0.24330  Biso   1.000  H
  C195     1.0000 0.52040  0.60820  0.28660  Biso   1.000  C
  C196     1.0000 0.64190  0.55040  0.97010  Biso   1.000  C
  O57      1.0000 0.29674  0.85208  0.33508  Biso   1.000  O
  O58      1.0000 0.22767  0.92423  0.38152  Biso   1.000  O
  N29      1.0000 0.24577  0.79163  0.41259  Biso   1.000  N
  C197     1.0000 0.31707  0.78983  0.41222  Biso   1.000  C
  H85      1.0000 0.33927  0.78613  0.38923  Biso   1.000  H
  C198     1.0000 0.36007  0.79333  0.44456  Biso   1.000  C
  C199     1.0000 0.32567  0.79713  0.47753  Biso   1.000  C
  H86      1.0000 0.35207  0.79743  0.49983  Biso   1.000  H
  C200     1.0000 0.25367  0.80053  0.47845  Biso   1.000  C
  C201     1.0000 0.21107  0.91733  0.58771  Biso   1.000  C
  H87      1.0000 0.26297  0.95343  0.57663  Biso   1.000  H
  C202     1.0000 0.18707  0.94153  0.61993  Biso   1.000  C
  C203     1.0000 0.30857  0.88373  0.30343  Biso   1.000  C
  O59      1.0000 0.96340  0.18542  0.66842  Biso   1.000  O
  O60      1.0000 0.89433  0.25757  0.71486  Biso   1.000  O
  N30      1.0000 0.91243  0.12497  0.74593  Biso   1.000  N
  C204     1.0000 0.98373  0.12317  0.74556  Biso   1.000  C
  H88      1.0000 0.00593  0.11947  0.72257  Biso   1.000  H
  C205     1.0000 0.02673  0.12667  0.77790  Biso   1.000  C
  C206     1.0000 0.99233  0.13047  0.81087  Biso   1.000  C
  H89      1.0000 0.01873  0.13077  0.83317  Biso   1.000  H
  C207     1.0000 0.92033  0.13387  0.81179  Biso   1.000  C
  C208     1.0000 0.87773  0.25067  0.92105  Biso   1.000  C
  H90      1.0000 0.92963  0.28677  0.90997  Biso   1.000  H
  C209     1.0000 0.85373  0.27487  0.95327  Biso   1.000  C
  C210     1.0000 0.97523  0.21707  0.63677  Biso   1.000  C
  O61      1.0000 0.88868  0.36993  0.00175  Biso   1.000  O
  O62      1.0000 0.02990  0.43900  0.04819  Biso   1.000  O
  N31      1.0000 0.87920  0.42090  0.07926  Biso   1.000  N
  C211     1.0000 0.80610  0.34960  0.07889  Biso   1.000  C
  H91      1.0000 0.78020  0.32740  0.05590  Biso   1.000  H
  C212     1.0000 0.76660  0.30660  0.11123  Biso   1.000  C
  C213     1.0000 0.80480  0.34100  0.14420  Biso   1.000  C
  H92      1.0000 0.77870  0.31460  0.16650  Biso   1.000  H
  C214     1.0000 0.88020  0.41300  0.14512  Biso   1.000  C
  C215     1.0000 0.03960  0.45560  0.25438  Biso   1.000  C
  H93      1.0000 0.02380  0.40370  0.24330  Biso   1.000  H
  C216     1.0000 0.08780  0.47960  0.28660  Biso   1.000  C
  C217     1.0000 0.90850  0.35810  0.97010  Biso   1.000  C
  O63      1.0000 0.55535  0.70326  0.33508  Biso   1.000  O
  O64      1.0000 0.69657  0.77233  0.38152  Biso   1.000  O
  N32      1.0000 0.54587  0.75423  0.41259  Biso   1.000  N
  C218     1.0000 0.47277  0.68293  0.41222  Biso   1.000  C
  H94      1.0000 0.44687  0.66073  0.38923  Biso   1.000  H
  C219     1.0000 0.43327  0.63993  0.44456  Biso   1.000  C
  C220     1.0000 0.47147  0.67433  0.47753  Biso   1.000  C
  H95      1.0000 0.44537  0.64793  0.49983  Biso   1.000  H
  C221     1.0000 0.54687  0.74633  0.47845  Biso   1.000  C
  C222     1.0000 0.70627  0.78893  0.58771  Biso   1.000  C
  H96      1.0000 0.69047  0.73703  0.57663  Biso   1.000  H
  C223     1.0000 0.75447  0.81293  0.61993  Biso   1.000  C
  C224     1.0000 0.57517  0.69143  0.30343  Biso   1.000  C
  O65      1.0000 0.22201  0.03660  0.66842  Biso   1.000  O
  O66      1.0000 0.36323  0.10567  0.71486  Biso   1.000  O
  N33      1.0000 0.21253  0.08757  0.74593  Biso   1.000  N
  C225     1.0000 0.13943  0.01627  0.74556  Biso   1.000  C
  H97      1.0000 0.11353  0.99407  0.72257  Biso   1.000  H
  C226     1.0000 0.09993  0.97327  0.77790  Biso   1.000  C
  C227     1.0000 0.13813  0.00767  0.81087  Biso   1.000  C
  H98      1.0000 0.11203  0.98127  0.83317  Biso   1.000  H
  C228     1.0000 0.21353  0.07967  0.81179  Biso   1.000  C
  C229     1.0000 0.37293  0.12227  0.92105  Biso   1.000  C
  H99      1.0000 0.35713  0.07037  0.90997  Biso   1.000  H
  C230     1.0000 0.42113  0.14627  0.95327  Biso   1.000  C
  C231     1.0000 0.24183  0.02477  0.63677  Biso   1.000  C
  O67      1.0000 0.48125  0.11132  0.00175  Biso   1.000  O
  O68      1.0000 0.40910  0.97010  0.04819  Biso   1.000  O
  N34      1.0000 0.54170  0.12080  0.07926  Biso   1.000  N
  C232     1.0000 0.54350  0.19390  0.07889  Biso   1.000  C
  H100     1.0000 0.54720  0.21980  0.05590  Biso   1.000  H
  C233     1.0000 0.54000  0.23340  0.11123  Biso   1.000  C
  C234     1.0000 0.53620  0.19520  0.14420  Biso   1.000  C
  H101     1.0000 0.53590  0.22130  0.16650  Biso   1.000  H
  C235     1.0000 0.53280  0.11980  0.14512  Biso   1.000  C
  C236     1.0000 0.41600  0.96040  0.25438  Biso   1.000  C
  H102     1.0000 0.37990  0.97620  0.24330  Biso   1.000  H
  C237     1.0000 0.39180  0.91220  0.28660  Biso   1.000  C
  C238     1.0000 0.44960  0.09150  0.97010  Biso   1.000  C
  O69      1.0000 0.14792  0.44465  0.33508  Biso   1.000  O
  O70      1.0000 0.07577  0.30343  0.38152  Biso   1.000  O
  N35      1.0000 0.20837  0.45413  0.41259  Biso   1.000  N
  C239     1.0000 0.21017  0.52723  0.41222  Biso   1.000  C
  H103     1.0000 0.21387  0.55313  0.38923  Biso   1.000  H
  C240     1.0000 0.20667  0.56673  0.44456  Biso   1.000  C
  C241     1.0000 0.20287  0.52853  0.47753  Biso   1.000  C
  H104     1.0000 0.20257  0.55463  0.49983  Biso   1.000  H
  C242     1.0000 0.19947  0.45313  0.47845  Biso   1.000  C
  C243     1.0000 0.08267  0.29373  0.58771  Biso   1.000  C
  H105     1.0000 0.04657  0.30953  0.57663  Biso   1.000  H
  C244     1.0000 0.05847  0.24553  0.61993  Biso   1.000  C
  C245     1.0000 0.11627  0.42483  0.30343  Biso   1.000  C
  O71      1.0000 0.81458  0.77799  0.66842  Biso   1.000  O
  O72      1.0000 0.74243  0.63677  0.71486  Biso   1.000  O
  N36      1.0000 0.87503  0.78747  0.74593  Biso   1.000  N
  C246     1.0000 0.87683  0.86057  0.74556  Biso   1.000  C
  H106     1.0000 0.88053  0.88647  0.72257  Biso   1.000  H
  C247     1.0000 0.87333  0.90007  0.77790  Biso   1.000  C
  C248     1.0000 0.86953  0.86187  0.81087  Biso   1.000  C
  H107     1.0000 0.86923  0.88797  0.83317  Biso   1.000  H
  C249     1.0000 0.86613  0.78647  0.81179  Biso   1.000  C
  C250     1.0000 0.74933  0.62707  0.92105  Biso   1.000  C
  H108     1.0000 0.71323  0.64287  0.90997  Biso   1.000  H
  C251     1.0000 0.72513  0.57887  0.95327  Biso   1.000  C
  C252     1.0000 0.78293  0.75817  0.63677  Biso   1.000  C
  Zn1      1.0000 0.52675  0.47325  0.03258  Biso   1.000  Zn
  C253     1.0000 0.54209  0.45791  0.11183  Biso   1.000  C
  C254     1.0000 0.53680  0.46320  0.17889  Biso   1.000  C
  C255     1.0000 0.51685  0.48315  0.20592  Biso   1.000  C
  C256     1.0000 0.49230  0.50770  0.23899  Biso   1.000  C
  C257     1.0000 0.44520  0.55480  0.30252  Biso   1.000  C
  H109     1.0000 0.42990  0.57010  0.32480  Biso   1.000  H
  Zn2      1.0000 0.19342  0.80658  0.36591  Biso   1.000  Zn
  C258     1.0000 0.20876  0.79124  0.44516  Biso   1.000  C
  C259     1.0000 0.20347  0.79653  0.51222  Biso   1.000  C
  C260     1.0000 0.18352  0.81648  0.53925  Biso   1.000  C
  C261     1.0000 0.15897  0.84103  0.57232  Biso   1.000  C
  C262     1.0000 0.11186  0.88814  0.63585  Biso   1.000  C
  H110     1.0000 0.09657  0.90343  0.65813  Biso   1.000  H
  Zn3      1.0000 0.86008  0.13992  0.69924  Biso   1.000  Zn
  C263     1.0000 0.87542  0.12458  0.77850  Biso   1.000  C
  C264     1.0000 0.87013  0.12987  0.84556  Biso   1.000  C
  C265     1.0000 0.85018  0.14982  0.87259  Biso   1.000  C
  C266     1.0000 0.82563  0.17437  0.90566  Biso   1.000  C
  C267     1.0000 0.77853  0.22147  0.96919  Biso   1.000  C
  H111     1.0000 0.76323  0.23677  0.99147  Biso   1.000  H
  Zn4      1.0000 0.52675  0.05350  0.03258  Biso   1.000  Zn
  C268     1.0000 0.54209  0.08418  0.11183  Biso   1.000  C
  C269     1.0000 0.53680  0.07360  0.17889  Biso   1.000  C
  C270     1.0000 0.51685  0.03370  0.20592  Biso   1.000  C
  C271     1.0000 0.49230  0.98460  0.23899  Biso   1.000  C
  C272     1.0000 0.44520  0.89039  0.30252  Biso   1.000  C
  H112     1.0000 0.42990  0.85980  0.32480  Biso   1.000  H
  Zn5      1.0000 0.19342  0.38683  0.36591  Biso   1.000  Zn
  C273     1.0000 0.20876  0.41751  0.44516  Biso   1.000  C
  C274     1.0000 0.20347  0.40693  0.51222  Biso   1.000  C
  C275     1.0000 0.18352  0.36703  0.53925  Biso   1.000  C
  C276     1.0000 0.15897  0.31793  0.57232  Biso   1.000  C
  C277     1.0000 0.11186  0.22372  0.63585  Biso   1.000  C
  H113     1.0000 0.09657  0.19313  0.65813  Biso   1.000  H
  Zn6      1.0000 0.86008  0.72017  0.69924  Biso   1.000  Zn
  C278     1.0000 0.87542  0.75085  0.77850  Biso   1.000  C
  C279     1.0000 0.87013  0.74027  0.84556  Biso   1.000  C
  C280     1.0000 0.85018  0.70037  0.87259  Biso   1.000  C
  C281     1.0000 0.82563  0.65127  0.90566  Biso   1.000  C
  C282     1.0000 0.77853  0.55706  0.96919  Biso   1.000  C
  H114     1.0000 0.76323  0.52647  0.99147  Biso   1.000  H
  Zn7      1.0000 0.94650  0.47325  0.03258  Biso   1.000  Zn
  C283     1.0000 0.91582  0.45791  0.11183  Biso   1.000  C
  C284     1.0000 0.92640  0.46320  0.17889  Biso   1.000  C
  C285     1.0000 0.96630  0.48315  0.20592  Biso   1.000  C
  C286     1.0000 0.01540  0.50770  0.23899  Biso   1.000  C
  C287     1.0000 0.10961  0.55480  0.30252  Biso   1.000  C
  H115     1.0000 0.14020  0.57010  0.32480  Biso   1.000  H
  Zn8      1.0000 0.61317  0.80658  0.36591  Biso   1.000  Zn
  C288     1.0000 0.58249  0.79124  0.44516  Biso   1.000  C
  C289     1.0000 0.59307  0.79653  0.51222  Biso   1.000  C
  C290     1.0000 0.63297  0.81648  0.53925  Biso   1.000  C
  C291     1.0000 0.68207  0.84103  0.57232  Biso   1.000  C
  C292     1.0000 0.77628  0.88814  0.63585  Biso   1.000  C
  H116     1.0000 0.80687  0.90343  0.65813  Biso   1.000  H
  Zn9      1.0000 0.27983  0.13992  0.69924  Biso   1.000  Zn
  C293     1.0000 0.24915  0.12458  0.77850  Biso   1.000  C
  C294     1.0000 0.25973  0.12987  0.84556  Biso   1.000  C
  C295     1.0000 0.29963  0.14982  0.87259  Biso   1.000  C
  C296     1.0000 0.34873  0.17437  0.90566  Biso   1.000  C
  C297     1.0000 0.44294  0.22147  0.96919  Biso   1.000  C
  H117     1.0000 0.47353  0.23677  0.99147  Biso   1.000  H
  Zn10     1.0000 0.47325  0.52675  0.96742  Biso   1.000  Zn
  C298     1.0000 0.45791  0.54209  0.88817  Biso   1.000  C
  C299     1.0000 0.46320  0.53680  0.82111  Biso   1.000  C
  C300     1.0000 0.48315  0.51685  0.79408  Biso   1.000  C
  C301     1.0000 0.50770  0.49230  0.76101  Biso   1.000  C
  C302     1.0000 0.55480  0.44520  0.69748  Biso   1.000  C
  H118     1.0000 0.57010  0.42990  0.67520  Biso   1.000  H
  Zn11     1.0000 0.13992  0.86008  0.30076  Biso   1.000  Zn
  C303     1.0000 0.12458  0.87542  0.22150  Biso   1.000  C
  C304     1.0000 0.12987  0.87013  0.15444  Biso   1.000  C
  C305     1.0000 0.14982  0.85018  0.12741  Biso   1.000  C
  C306     1.0000 0.17437  0.82563  0.09434  Biso   1.000  C
  C307     1.0000 0.22147  0.77853  0.03081  Biso   1.000  C
  H119     1.0000 0.23677  0.76323  0.00853  Biso   1.000  H
  Zn12     1.0000 0.80658  0.19342  0.63409  Biso   1.000  Zn
  C308     1.0000 0.79124  0.20876  0.55484  Biso   1.000  C
  C309     1.0000 0.79653  0.20347  0.48778  Biso   1.000  C
  C310     1.0000 0.81648  0.18352  0.46075  Biso   1.000  C
  C311     1.0000 0.84103  0.15897  0.42768  Biso   1.000  C
  C312     1.0000 0.88814  0.11186  0.36415  Biso   1.000  C
  H120     1.0000 0.90343  0.09657  0.34187  Biso   1.000  H
  Zn13     1.0000 0.05350  0.52675  0.96742  Biso   1.000  Zn
  C313     1.0000 0.08418  0.54209  0.88817  Biso   1.000  C
  C314     1.0000 0.07360  0.53680  0.82111  Biso   1.000  C
  C315     1.0000 0.03370  0.51685  0.79408  Biso   1.000  C
  C316     1.0000 0.98460  0.49230  0.76101  Biso   1.000  C
  C317     1.0000 0.89039  0.44520  0.69748  Biso   1.000  C
  H121     1.0000 0.85980  0.42990  0.67520  Biso   1.000  H
  Zn14     1.0000 0.72017  0.86008  0.30076  Biso   1.000  Zn
  C318     1.0000 0.75085  0.87542  0.22150  Biso   1.000  C
  C319     1.0000 0.74027  0.87013  0.15444  Biso   1.000  C
  C320     1.0000 0.70037  0.85018  0.12741  Biso   1.000  C
  C321     1.0000 0.65127  0.82563  0.09434  Biso   1.000  C
  C322     1.0000 0.55706  0.77853  0.03081  Biso   1.000  C
  H122     1.0000 0.52647  0.76323  0.00853  Biso   1.000  H
  Zn15     1.0000 0.38683  0.19342  0.63409  Biso   1.000  Zn
  C323     1.0000 0.41751  0.20876  0.55484  Biso   1.000  C
  C324     1.0000 0.40693  0.20347  0.48778  Biso   1.000  C
  C325     1.0000 0.36703  0.18352  0.46075  Biso   1.000  C
  C326     1.0000 0.31793  0.15897  0.42768  Biso   1.000  C
  C327     1.0000 0.22372  0.11186  0.36415  Biso   1.000  C
  H123     1.0000 0.19313  0.09657  0.34187  Biso   1.000  H
  Zn16     1.0000 0.47325  0.94650  0.96742  Biso   1.000  Zn
  C328     1.0000 0.45791  0.91582  0.88817  Biso   1.000  C
  C329     1.0000 0.46320  0.92640  0.82111  Biso   1.000  C
  C330     1.0000 0.48315  0.96630  0.79408  Biso   1.000  C
  C331     1.0000 0.50770  0.01540  0.76101  Biso   1.000  C
  C332     1.0000 0.55480  0.10961  0.69748  Biso   1.000  C
  H124     1.0000 0.57010  0.14020  0.67520  Biso   1.000  H
  Zn17     1.0000 0.13992  0.27983  0.30076  Biso   1.000  Zn
  C333     1.0000 0.12458  0.24915  0.22150  Biso   1.000  C
  C334     1.0000 0.12987  0.25973  0.15444  Biso   1.000  C
  C335     1.0000 0.14982  0.29963  0.12741  Biso   1.000  C
  C336     1.0000 0.17437  0.34873  0.09434  Biso   1.000  C
  C337     1.0000 0.22147  0.44294  0.03081  Biso   1.000  C
  H125     1.0000 0.23677  0.47353  0.00853  Biso   1.000  H
  Zn18     1.0000 0.80658  0.61317  0.63409  Biso   1.000  Zn
  C338     1.0000 0.79124  0.58249  0.55484  Biso   1.000  C
  C339     1.0000 0.79653  0.59307  0.48778  Biso   1.000  C
  C340     1.0000 0.81648  0.63297  0.46075  Biso   1.000  C
  C341     1.0000 0.84103  0.68207  0.42768  Biso   1.000  C
  C342     1.0000 0.88814  0.77628  0.36415  Biso   1.000  C
  H126     1.0000 0.90343  0.80687  0.34187  Biso   1.000  H
