data_image0
_cell_length_a       18.628
_cell_length_b       18.628
_cell_length_c       36.435
_cell_angle_alpha    90
_cell_angle_beta     90
_cell_angle_gamma    120

_symmetry_space_group_name_H-M    "P 1"
_symmetry_int_tables_number       1

loop_
  _symmetry_equiv_pos_as_xyz
  'x, y, z'

loop_
  _atom_site_label
  _atom_site_occupancy
  _atom_site_fract_x
  _atom_site_fract_y
  _atom_site_fract_z
  _atom_site_thermal_displace_type
  _atom_site_B_iso_or_equiv
  _atom_site_type_symbol
  O1       1.0000 0.48093  0.36975  0.00151  Biso   1.000  O
  O2       1.0000 0.40920  0.43850  0.04817  Biso   1.000  O
  N1       1.0000 0.54140  0.42070  0.07952  Biso   1.000  N
  C1       1.0000 0.54680  0.35120  0.07944  Biso   1.000  C
  H1       1.0000 0.55140  0.32960  0.05650  Biso   1.000  H
  C2       1.0000 0.54610  0.31020  0.11090  Biso   1.000  C
  C3       1.0000 0.54070  0.34350  0.14390  Biso   1.000  C
  H2       1.0000 0.54140  0.31770  0.16630  Biso   1.000  H
  C4       1.0000 0.53420  0.41540  0.14448  Biso   1.000  C
  C5       1.0000 0.41430  0.45630  0.25401  Biso   1.000  C
  H3       1.0000 0.37780  0.40450  0.24280  Biso   1.000  H
  C6       1.0000 0.39090  0.47960  0.28616  Biso   1.000  C
  C7       1.0000 0.44850  0.35810  0.96991  Biso   1.000  C
  O3       1.0000 0.14760  0.70308  0.33484  Biso   1.000  O
  O4       1.0000 0.07587  0.77183  0.38150  Biso   1.000  O
  N2       1.0000 0.20807  0.75403  0.41285  Biso   1.000  N
  C8       1.0000 0.21347  0.68453  0.41277  Biso   1.000  C
  H4       1.0000 0.21807  0.66293  0.38983  Biso   1.000  H
  C9       1.0000 0.21277  0.64353  0.44423  Biso   1.000  C
  C10      1.0000 0.20737  0.67683  0.47723  Biso   1.000  C
  H5       1.0000 0.20807  0.65103  0.49963  Biso   1.000  H
  C11      1.0000 0.20087  0.74873  0.47781  Biso   1.000  C
  C12      1.0000 0.08097  0.78963  0.58734  Biso   1.000  C
  H6       1.0000 0.04447  0.73783  0.57613  Biso   1.000  H
  C13      1.0000 0.05757  0.81293  0.61949  Biso   1.000  C
  C14      1.0000 0.11517  0.69143  0.30324  Biso   1.000  C
  O5       1.0000 0.81426  0.03642  0.66818  Biso   1.000  O
  O6       1.0000 0.74253  0.10517  0.71484  Biso   1.000  O
  N3       1.0000 0.87473  0.08737  0.74619  Biso   1.000  N
  C15      1.0000 0.88013  0.01787  0.74611  Biso   1.000  C
  H7       1.0000 0.88473  0.99627  0.72317  Biso   1.000  H
  C16      1.0000 0.87943  0.97687  0.77757  Biso   1.000  C
  C17      1.0000 0.87403  0.01017  0.81057  Biso   1.000  C
  H8       1.0000 0.87473  0.98437  0.83297  Biso   1.000  H
  C18      1.0000 0.86753  0.08207  0.81115  Biso   1.000  C
  C19      1.0000 0.74763  0.12297  0.92068  Biso   1.000  C
  H9       1.0000 0.71113  0.07117  0.90947  Biso   1.000  H
  C20      1.0000 0.72423  0.14627  0.95283  Biso   1.000  C
  C21      1.0000 0.78183  0.02477  0.63658  Biso   1.000  C
  O7       1.0000 0.63025  0.11118  0.00151  Biso   1.000  O
  O8       1.0000 0.56150  0.97070  0.04817  Biso   1.000  O
  N4       1.0000 0.57930  0.12070  0.07952  Biso   1.000  N
  C22      1.0000 0.64880  0.19560  0.07944  Biso   1.000  C
  H10      1.0000 0.67040  0.22180  0.05650  Biso   1.000  H
  C23      1.0000 0.68980  0.23590  0.11090  Biso   1.000  C
  C24      1.0000 0.65650  0.19720  0.14390  Biso   1.000  C
  H11      1.0000 0.68230  0.22370  0.16630  Biso   1.000  H
  C25      1.0000 0.58460  0.11880  0.14448  Biso   1.000  C
  C26      1.0000 0.54370  0.95800  0.25401  Biso   1.000  C
  H12      1.0000 0.59550  0.97330  0.24280  Biso   1.000  H
  C27      1.0000 0.52040  0.91130  0.28616  Biso   1.000  C
  C28      1.0000 0.64190  0.09040  0.96991  Biso   1.000  C
  O9       1.0000 0.29692  0.44451  0.33484  Biso   1.000  O
  O10      1.0000 0.22817  0.30403  0.38150  Biso   1.000  O
  N5       1.0000 0.24597  0.45403  0.41285  Biso   1.000  N
  C29      1.0000 0.31547  0.52893  0.41277  Biso   1.000  C
  H13      1.0000 0.33707  0.55513  0.38983  Biso   1.000  H
  C30      1.0000 0.35647  0.56923  0.44423  Biso   1.000  C
  C31      1.0000 0.32317  0.53053  0.47723  Biso   1.000  C
  H14      1.0000 0.34897  0.55703  0.49963  Biso   1.000  H
  C32      1.0000 0.25127  0.45213  0.47781  Biso   1.000  C
  C33      1.0000 0.21037  0.29133  0.58734  Biso   1.000  C
  H15      1.0000 0.26217  0.30663  0.57613  Biso   1.000  H
  C34      1.0000 0.18707  0.24463  0.61949  Biso   1.000  C
  C35      1.0000 0.30857  0.42373  0.30324  Biso   1.000  C
  O11      1.0000 0.96358  0.77785  0.66818  Biso   1.000  O
  O12      1.0000 0.89483  0.63737  0.71484  Biso   1.000  O
  N6       1.0000 0.91263  0.78737  0.74619  Biso   1.000  N
  C36      1.0000 0.98213  0.86227  0.74611  Biso   1.000  C
  H16      1.0000 0.00373  0.88847  0.72317  Biso   1.000  H
  C37      1.0000 0.02313  0.90257  0.77757  Biso   1.000  C
  C38      1.0000 0.98983  0.86387  0.81057  Biso   1.000  C
  H17      1.0000 0.01563  0.89037  0.83297  Biso   1.000  H
  C39      1.0000 0.91793  0.78547  0.81115  Biso   1.000  C
  C40      1.0000 0.87703  0.62467  0.92068  Biso   1.000  C
  H18      1.0000 0.92883  0.63997  0.90947  Biso   1.000  H
  C41      1.0000 0.85373  0.57797  0.95283  Biso   1.000  C
  C42      1.0000 0.97523  0.75707  0.63658  Biso   1.000  C
  O13      1.0000 0.88882  0.51907  0.00151  Biso   1.000  O
  O14      1.0000 0.02930  0.59080  0.04817  Biso   1.000  O
  N7       1.0000 0.87930  0.45860  0.07952  Biso   1.000  N
  C43      1.0000 0.80440  0.45320  0.07944  Biso   1.000  C
  H19      1.0000 0.77820  0.44860  0.05650  Biso   1.000  H
  C44      1.0000 0.76410  0.45390  0.11090  Biso   1.000  C
  C45      1.0000 0.80280  0.45930  0.14390  Biso   1.000  C
  H20      1.0000 0.77630  0.45860  0.16630  Biso   1.000  H
  C46      1.0000 0.88120  0.46580  0.14448  Biso   1.000  C
  C47      1.0000 0.04200  0.58570  0.25401  Biso   1.000  C
  H21      1.0000 0.02670  0.62220  0.24280  Biso   1.000  H
  C48      1.0000 0.08870  0.60910  0.28616  Biso   1.000  C
  C49      1.0000 0.90960  0.55150  0.96991  Biso   1.000  C
  O15      1.0000 0.55549  0.85240  0.33484  Biso   1.000  O
  O16      1.0000 0.69597  0.92413  0.38150  Biso   1.000  O
  N8       1.0000 0.54597  0.79193  0.41285  Biso   1.000  N
  C50      1.0000 0.47107  0.78653  0.41277  Biso   1.000  C
  H22      1.0000 0.44487  0.78193  0.38983  Biso   1.000  H
  C51      1.0000 0.43077  0.78723  0.44423  Biso   1.000  C
  C52      1.0000 0.46947  0.79263  0.47723  Biso   1.000  C
  H23      1.0000 0.44297  0.79193  0.49963  Biso   1.000  H
  C53      1.0000 0.54787  0.79913  0.47781  Biso   1.000  C
  C54      1.0000 0.70867  0.91903  0.58734  Biso   1.000  C
  H24      1.0000 0.69337  0.95553  0.57613  Biso   1.000  H
  C55      1.0000 0.75537  0.94243  0.61949  Biso   1.000  C
  C56      1.0000 0.57627  0.88483  0.30324  Biso   1.000  C
  O17      1.0000 0.22215  0.18574  0.66818  Biso   1.000  O
  O18      1.0000 0.36263  0.25747  0.71484  Biso   1.000  O
  N9       1.0000 0.21263  0.12527  0.74619  Biso   1.000  N
  C57      1.0000 0.13773  0.11987  0.74611  Biso   1.000  C
  H25      1.0000 0.11153  0.11527  0.72317  Biso   1.000  H
  C58      1.0000 0.09743  0.12057  0.77757  Biso   1.000  C
  C59      1.0000 0.13613  0.12597  0.81057  Biso   1.000  C
  H26      1.0000 0.10963  0.12527  0.83297  Biso   1.000  H
  C60      1.0000 0.21453  0.13247  0.81115  Biso   1.000  C
  C61      1.0000 0.37533  0.25237  0.92068  Biso   1.000  C
  H27      1.0000 0.36003  0.28887  0.90947  Biso   1.000  H
  C62      1.0000 0.42203  0.27577  0.95283  Biso   1.000  C
  C63      1.0000 0.24293  0.21817  0.63658  Biso   1.000  C
  O19      1.0000 0.36975  0.48093  0.99849  Biso   1.000  O
  O20      1.0000 0.43850  0.40920  0.95183  Biso   1.000  O
  N10      1.0000 0.42070  0.54140  0.92048  Biso   1.000  N
  C64      1.0000 0.35120  0.54680  0.92056  Biso   1.000  C
  H28      1.0000 0.32960  0.55140  0.94350  Biso   1.000  H
  C65      1.0000 0.31020  0.54610  0.88910  Biso   1.000  C
  C66      1.0000 0.34350  0.54070  0.85610  Biso   1.000  C
  H29      1.0000 0.31770  0.54140  0.83370  Biso   1.000  H
  C67      1.0000 0.41540  0.53420  0.85552  Biso   1.000  C
  C68      1.0000 0.45630  0.41430  0.74599  Biso   1.000  C
  H30      1.0000 0.40450  0.37780  0.75720  Biso   1.000  H
  C69      1.0000 0.47960  0.39090  0.71384  Biso   1.000  C
  C70      1.0000 0.35810  0.44850  0.03009  Biso   1.000  C
  O21      1.0000 0.03642  0.81426  0.33182  Biso   1.000  O
  O22      1.0000 0.10517  0.74253  0.28516  Biso   1.000  O
  N11      1.0000 0.08737  0.87473  0.25381  Biso   1.000  N
  C71      1.0000 0.01787  0.88013  0.25389  Biso   1.000  C
  H31      1.0000 0.99627  0.88473  0.27683  Biso   1.000  H
  C72      1.0000 0.97687  0.87943  0.22243  Biso   1.000  C
  C73      1.0000 0.01017  0.87403  0.18943  Biso   1.000  C
  H32      1.0000 0.98437  0.87473  0.16703  Biso   1.000  H
  C74      1.0000 0.08207  0.86753  0.18885  Biso   1.000  C
  C75      1.0000 0.12297  0.74763  0.07932  Biso   1.000  C
  H33      1.0000 0.07117  0.71113  0.09053  Biso   1.000  H
  C76      1.0000 0.14627  0.72423  0.04717  Biso   1.000  C
  C77      1.0000 0.02477  0.78183  0.36342  Biso   1.000  C
  O23      1.0000 0.70308  0.14760  0.66516  Biso   1.000  O
  O24      1.0000 0.77183  0.07587  0.61850  Biso   1.000  O
  N12      1.0000 0.75403  0.20807  0.58715  Biso   1.000  N
  C78      1.0000 0.68453  0.21347  0.58723  Biso   1.000  C
  H34      1.0000 0.66293  0.21807  0.61017  Biso   1.000  H
  C79      1.0000 0.64353  0.21277  0.55577  Biso   1.000  C
  C80      1.0000 0.67683  0.20737  0.52277  Biso   1.000  C
  H35      1.0000 0.65103  0.20807  0.50037  Biso   1.000  H
  C81      1.0000 0.74873  0.20087  0.52219  Biso   1.000  C
  C82      1.0000 0.78963  0.08097  0.41266  Biso   1.000  C
  H36      1.0000 0.73783  0.04447  0.42387  Biso   1.000  H
  C83      1.0000 0.81293  0.05757  0.38051  Biso   1.000  C
  C84      1.0000 0.69143  0.11517  0.69676  Biso   1.000  C
  O25      1.0000 0.11118  0.63025  0.99849  Biso   1.000  O
  O26      1.0000 0.97070  0.56150  0.95183  Biso   1.000  O
  N13      1.0000 0.12070  0.57930  0.92048  Biso   1.000  N
  C85      1.0000 0.19560  0.64880  0.92056  Biso   1.000  C
  H37      1.0000 0.22180  0.67040  0.94350  Biso   1.000  H
  C86      1.0000 0.23590  0.68980  0.88910  Biso   1.000  C
  C87      1.0000 0.19720  0.65650  0.85610  Biso   1.000  C
  H38      1.0000 0.22370  0.68230  0.83370  Biso   1.000  H
  C88      1.0000 0.11880  0.58460  0.85552  Biso   1.000  C
  C89      1.0000 0.95800  0.54370  0.74599  Biso   1.000  C
  H39      1.0000 0.97330  0.59550  0.75720  Biso   1.000  H
  C90      1.0000 0.91130  0.52040  0.71384  Biso   1.000  C
  C91      1.0000 0.09040  0.64190  0.03009  Biso   1.000  C
  O27      1.0000 0.77785  0.96358  0.33182  Biso   1.000  O
  O28      1.0000 0.63737  0.89483  0.28516  Biso   1.000  O
  N14      1.0000 0.78737  0.91263  0.25381  Biso   1.000  N
  C92      1.0000 0.86227  0.98213  0.25389  Biso   1.000  C
  H40      1.0000 0.88847  0.00373  0.27683  Biso   1.000  H
  C93      1.0000 0.90257  0.02313  0.22243  Biso   1.000  C
  C94      1.0000 0.86387  0.98983  0.18943  Biso   1.000  C
  H41      1.0000 0.89037  0.01563  0.16703  Biso   1.000  H
  C95      1.0000 0.78547  0.91793  0.18885  Biso   1.000  C
  C96      1.0000 0.62467  0.87703  0.07932  Biso   1.000  C
  H42      1.0000 0.63997  0.92883  0.09053  Biso   1.000  H
  C97      1.0000 0.57797  0.85373  0.04717  Biso   1.000  C
  C98      1.0000 0.75707  0.97523  0.36342  Biso   1.000  C
  O29      1.0000 0.44451  0.29692  0.66516  Biso   1.000  O
  O30      1.0000 0.30403  0.22817  0.61850  Biso   1.000  O
  N15      1.0000 0.45403  0.24597  0.58715  Biso   1.000  N
  C99      1.0000 0.52893  0.31547  0.58723  Biso   1.000  C
  H43      1.0000 0.55513  0.33707  0.61017  Biso   1.000  H
  C100     1.0000 0.56923  0.35647  0.55577  Biso   1.000  C
  C101     1.0000 0.53053  0.32317  0.52277  Biso   1.000  C
  H44      1.0000 0.55703  0.34897  0.50037  Biso   1.000  H
  C102     1.0000 0.45213  0.25127  0.52219  Biso   1.000  C
  C103     1.0000 0.29133  0.21037  0.41266  Biso   1.000  C
  H45      1.0000 0.30663  0.26217  0.42387  Biso   1.000  H
  C104     1.0000 0.24463  0.18707  0.38051  Biso   1.000  C
  C105     1.0000 0.42373  0.30857  0.69676  Biso   1.000  C
  O31      1.0000 0.51907  0.88882  0.99849  Biso   1.000  O
  O32      1.0000 0.59080  0.02930  0.95183  Biso   1.000  O
  N16      1.0000 0.45860  0.87930  0.92048  Biso   1.000  N
  C106     1.0000 0.45320  0.80440  0.92056  Biso   1.000  C
  H46      1.0000 0.44860  0.77820  0.94350  Biso   1.000  H
  C107     1.0000 0.45390  0.76410  0.88910  Biso   1.000  C
  C108     1.0000 0.45930  0.80280  0.85610  Biso   1.000  C
  H47      1.0000 0.45860  0.77630  0.83370  Biso   1.000  H
  C109     1.0000 0.46580  0.88120  0.85552  Biso   1.000  C
  C110     1.0000 0.58570  0.04200  0.74599  Biso   1.000  C
  H48      1.0000 0.62220  0.02670  0.75720  Biso   1.000  H
  C111     1.0000 0.60910  0.08870  0.71384  Biso   1.000  C
  C112     1.0000 0.55150  0.90960  0.03009  Biso   1.000  C
  O33      1.0000 0.18574  0.22215  0.33182  Biso   1.000  O
  O34      1.0000 0.25747  0.36263  0.28516  Biso   1.000  O
  N17      1.0000 0.12527  0.21263  0.25381  Biso   1.000  N
  C113     1.0000 0.11987  0.13773  0.25389  Biso   1.000  C
  H49      1.0000 0.11527  0.11153  0.27683  Biso   1.000  H
  C114     1.0000 0.12057  0.09743  0.22243  Biso   1.000  C
  C115     1.0000 0.12597  0.13613  0.18943  Biso   1.000  C
  H50      1.0000 0.12527  0.10963  0.16703  Biso   1.000  H
  C116     1.0000 0.13247  0.21453  0.18885  Biso   1.000  C
  C117     1.0000 0.25237  0.37533  0.07932  Biso   1.000  C
  H51      1.0000 0.28887  0.36003  0.09053  Biso   1.000  H
  C118     1.0000 0.27577  0.42203  0.04717  Biso   1.000  C
  C119     1.0000 0.21817  0.24293  0.36342  Biso   1.000  C
  O35      1.0000 0.85240  0.55549  0.66516  Biso   1.000  O
  O36      1.0000 0.92413  0.69597  0.61850  Biso   1.000  O
  N18      1.0000 0.79193  0.54597  0.58715  Biso   1.000  N
  C120     1.0000 0.78653  0.47107  0.58723  Biso   1.000  C
  H52      1.0000 0.78193  0.44487  0.61017  Biso   1.000  H
  C121     1.0000 0.78723  0.43077  0.55577  Biso   1.000  C
  C122     1.0000 0.79263  0.46947  0.52277  Biso   1.000  C
  H53      1.0000 0.79193  0.44297  0.50037  Biso   1.000  H
  C123     1.0000 0.79913  0.54787  0.52219  Biso   1.000  C
  C124     1.0000 0.91903  0.70867  0.41266  Biso   1.000  C
  H54      1.0000 0.95553  0.69337  0.42387  Biso   1.000  H
  C125     1.0000 0.94243  0.75537  0.38051  Biso   1.000  C
  C126     1.0000 0.88483  0.57627  0.69676  Biso   1.000  C
  O37      1.0000 0.51907  0.63025  0.99849  Biso   1.000  O
  O38      1.0000 0.59080  0.56150  0.95183  Biso   1.000  O
  N19      1.0000 0.45860  0.57930  0.92048  Biso   1.000  N
  C127     1.0000 0.45320  0.64880  0.92056  Biso   1.000  C
  H55      1.0000 0.44860  0.67040  0.94350  Biso   1.000  H
  C128     1.0000 0.45390  0.68980  0.88910  Biso   1.000  C
  C129     1.0000 0.45930  0.65650  0.85610  Biso   1.000  C
  H56      1.0000 0.45860  0.68230  0.83370  Biso   1.000  H
  C130     1.0000 0.46580  0.58460  0.85552  Biso   1.000  C
  C131     1.0000 0.58570  0.54370  0.74599  Biso   1.000  C
  H57      1.0000 0.62220  0.59550  0.75720  Biso   1.000  H
  C132     1.0000 0.60910  0.52040  0.71384  Biso   1.000  C
  C133     1.0000 0.55150  0.64190  0.03009  Biso   1.000  C
  O39      1.0000 0.18574  0.96358  0.33182  Biso   1.000  O
  O40      1.0000 0.25747  0.89483  0.28516  Biso   1.000  O
  N20      1.0000 0.12527  0.91263  0.25381  Biso   1.000  N
  C134     1.0000 0.11987  0.98213  0.25389  Biso   1.000  C
  H58      1.0000 0.11527  0.00373  0.27683  Biso   1.000  H
  C135     1.0000 0.12057  0.02313  0.22243  Biso   1.000  C
  C136     1.0000 0.12597  0.98983  0.18943  Biso   1.000  C
  H59      1.0000 0.12527  0.01563  0.16703  Biso   1.000  H
  C137     1.0000 0.13247  0.91793  0.18885  Biso   1.000  C
  C138     1.0000 0.25237  0.87703  0.07932  Biso   1.000  C
  H60      1.0000 0.28887  0.92883  0.09053  Biso   1.000  H
  C139     1.0000 0.27577  0.85373  0.04717  Biso   1.000  C
  C140     1.0000 0.21817  0.97523  0.36342  Biso   1.000  C
  O41      1.0000 0.85240  0.29692  0.66516  Biso   1.000  O
  O42      1.0000 0.92413  0.22817  0.61850  Biso   1.000  O
  N21      1.0000 0.79193  0.24597  0.58715  Biso   1.000  N
  C141     1.0000 0.78653  0.31547  0.58723  Biso   1.000  C
  H61      1.0000 0.78193  0.33707  0.61017  Biso   1.000  H
  C142     1.0000 0.78723  0.35647  0.55577  Biso   1.000  C
  C143     1.0000 0.79263  0.32317  0.52277  Biso   1.000  C
  H62      1.0000 0.79193  0.34897  0.50037  Biso   1.000  H
  C144     1.0000 0.79913  0.25127  0.52219  Biso   1.000  C
  C145     1.0000 0.91903  0.21037  0.41266  Biso   1.000  C
  H63      1.0000 0.95553  0.26217  0.42387  Biso   1.000  H
  C146     1.0000 0.94243  0.18707  0.38051  Biso   1.000  C
  C147     1.0000 0.88483  0.30857  0.69676  Biso   1.000  C
  O43      1.0000 0.36975  0.88882  0.99849  Biso   1.000  O
  O44      1.0000 0.43850  0.02930  0.95183  Biso   1.000  O
  N22      1.0000 0.42070  0.87930  0.92048  Biso   1.000  N
  C148     1.0000 0.35120  0.80440  0.92056  Biso   1.000  C
  H64      1.0000 0.32960  0.77820  0.94350  Biso   1.000  H
  C149     1.0000 0.31020  0.76410  0.88910  Biso   1.000  C
  C150     1.0000 0.34350  0.80280  0.85610  Biso   1.000  C
  H65      1.0000 0.31770  0.77630  0.83370  Biso   1.000  H
  C151     1.0000 0.41540  0.88120  0.85552  Biso   1.000  C
  C152     1.0000 0.45630  0.04200  0.74599  Biso   1.000  C
  H66      1.0000 0.40450  0.02670  0.75720  Biso   1.000  H
  C153     1.0000 0.47960  0.08870  0.71384  Biso   1.000  C
  C154     1.0000 0.35810  0.90960  0.03009  Biso   1.000  C
  O45      1.0000 0.03642  0.22215  0.33182  Biso   1.000  O
  O46      1.0000 0.10517  0.36263  0.28516  Biso   1.000  O
  N23      1.0000 0.08737  0.21263  0.25381  Biso   1.000  N
  C155     1.0000 0.01787  0.13773  0.25389  Biso   1.000  C
  H67      1.0000 0.99627  0.11153  0.27683  Biso   1.000  H
  C156     1.0000 0.97687  0.09743  0.22243  Biso   1.000  C
  C157     1.0000 0.01017  0.13613  0.18943  Biso   1.000  C
  H68      1.0000 0.98437  0.10963  0.16703  Biso   1.000  H
  C158     1.0000 0.08207  0.21453  0.18885  Biso   1.000  C
  C159     1.0000 0.12297  0.37533  0.07932  Biso   1.000  C
  H69      1.0000 0.07117  0.36003  0.09053  Biso   1.000  H
  C160     1.0000 0.14627  0.42203  0.04717  Biso   1.000  C
  C161     1.0000 0.02477  0.24293  0.36342  Biso   1.000  C
  O47      1.0000 0.70308  0.55549  0.66516  Biso   1.000  O
  O48      1.0000 0.77183  0.69597  0.61850  Biso   1.000  O
  N24      1.0000 0.75403  0.54597  0.58715  Biso   1.000  N
  C162     1.0000 0.68453  0.47107  0.58723  Biso   1.000  C
  H70      1.0000 0.66293  0.44487  0.61017  Biso   1.000  H
  C163     1.0000 0.64353  0.43077  0.55577  Biso   1.000  C
  C164     1.0000 0.67683  0.46947  0.52277  Biso   1.000  C
  H71      1.0000 0.65103  0.44297  0.50037  Biso   1.000  H
  C165     1.0000 0.74873  0.54787  0.52219  Biso   1.000  C
  C166     1.0000 0.78963  0.70867  0.41266  Biso   1.000  C
  H72      1.0000 0.73783  0.69337  0.42387  Biso   1.000  H
  C167     1.0000 0.81293  0.75537  0.38051  Biso   1.000  C
  C168     1.0000 0.69143  0.57627  0.69676  Biso   1.000  C
  O49      1.0000 0.11118  0.48093  0.99849  Biso   1.000  O
  O50      1.0000 0.97070  0.40920  0.95183  Biso   1.000  O
  N25      1.0000 0.12070  0.54140  0.92048  Biso   1.000  N
  C169     1.0000 0.19560  0.54680  0.92056  Biso   1.000  C
  H73      1.0000 0.22180  0.55140  0.94350  Biso   1.000  H
  C170     1.0000 0.23590  0.54610  0.88910  Biso   1.000  C
  C171     1.0000 0.19720  0.54070  0.85610  Biso   1.000  C
  H74      1.0000 0.22370  0.54140  0.83370  Biso   1.000  H
  C172     1.0000 0.11880  0.53420  0.85552  Biso   1.000  C
  C173     1.0000 0.95800  0.41430  0.74599  Biso   1.000  C
  H75      1.0000 0.97330  0.37780  0.75720  Biso   1.000  H
  C174     1.0000 0.91130  0.39090  0.71384  Biso   1.000  C
  C175     1.0000 0.09040  0.44850  0.03009  Biso   1.000  C
  O51      1.0000 0.77785  0.81426  0.33182  Biso   1.000  O
  O52      1.0000 0.63737  0.74253  0.28516  Biso   1.000  O
  N26      1.0000 0.78737  0.87473  0.25381  Biso   1.000  N
  C176     1.0000 0.86227  0.88013  0.25389  Biso   1.000  C
  H76      1.0000 0.88847  0.88473  0.27683  Biso   1.000  H
  C177     1.0000 0.90257  0.87943  0.22243  Biso   1.000  C
  C178     1.0000 0.86387  0.87403  0.18943  Biso   1.000  C
  H77      1.0000 0.89037  0.87473  0.16703  Biso   1.000  H
  C179     1.0000 0.78547  0.86753  0.18885  Biso   1.000  C
  C180     1.0000 0.62467  0.74763  0.07932  Biso   1.000  C
  H78      1.0000 0.63997  0.71113  0.09053  Biso   1.000  H
  C181     1.0000 0.57797  0.72423  0.04717  Biso   1.000  C
  C182     1.0000 0.75707  0.78183  0.36342  Biso   1.000  C
  O53      1.0000 0.44451  0.14760  0.66516  Biso   1.000  O
  O54      1.0000 0.30403  0.07587  0.61850  Biso   1.000  O
  N27      1.0000 0.45403  0.20807  0.58715  Biso   1.000  N
  C183     1.0000 0.52893  0.21347  0.58723  Biso   1.000  C
  H79      1.0000 0.55513  0.21807  0.61017  Biso   1.000  H
  C184     1.0000 0.56923  0.21277  0.55577  Biso   1.000  C
  C185     1.0000 0.53053  0.20737  0.52277  Biso   1.000  C
  H80      1.0000 0.55703  0.20807  0.50037  Biso   1.000  H
  C186     1.0000 0.45213  0.20087  0.52219  Biso   1.000  C
  C187     1.0000 0.29133  0.08097  0.41266  Biso   1.000  C
  H81      1.0000 0.30663  0.04447  0.42387  Biso   1.000  H
  C188     1.0000 0.24463  0.05757  0.38051  Biso   1.000  C
  C189     1.0000 0.42373  0.11517  0.69676  Biso   1.000  C
  O55      1.0000 0.63025  0.51907  0.00151  Biso   1.000  O
  O56      1.0000 0.56150  0.59080  0.04817  Biso   1.000  O
  N28      1.0000 0.57930  0.45860  0.07952  Biso   1.000  N
  C190     1.0000 0.64880  0.45320  0.07944  Biso   1.000  C
  H82      1.0000 0.67040  0.44860  0.05650  Biso   1.000  H
  C191     1.0000 0.68980  0.45390  0.11090  Biso   1.000  C
  C192     1.0000 0.65650  0.45930  0.14390  Biso   1.000  C
  H83      1.0000 0.68230  0.45860  0.16630  Biso   1.000  H
  C193     1.0000 0.58460  0.46580  0.14448  Biso   1.000  C
  C194     1.0000 0.54370  0.58570  0.25401  Biso   1.000  C
  H84      1.0000 0.59550  0.62220  0.24280  Biso   1.000  H
  C195     1.0000 0.52040  0.60910  0.28616  Biso   1.000  C
  C196     1.0000 0.64190  0.55150  0.96991  Biso   1.000  C
  O57      1.0000 0.29692  0.85240  0.33484  Biso   1.000  O
  O58      1.0000 0.22817  0.92413  0.38150  Biso   1.000  O
  N29      1.0000 0.24597  0.79193  0.41285  Biso   1.000  N
  C197     1.0000 0.31547  0.78653  0.41277  Biso   1.000  C
  H85      1.0000 0.33707  0.78193  0.38983  Biso   1.000  H
  C198     1.0000 0.35647  0.78723  0.44423  Biso   1.000  C
  C199     1.0000 0.32317  0.79263  0.47723  Biso   1.000  C
  H86      1.0000 0.34897  0.79193  0.49963  Biso   1.000  H
  C200     1.0000 0.25127  0.79913  0.47781  Biso   1.000  C
  C201     1.0000 0.21037  0.91903  0.58734  Biso   1.000  C
  H87      1.0000 0.26217  0.95553  0.57613  Biso   1.000  H
  C202     1.0000 0.18707  0.94243  0.61949  Biso   1.000  C
  C203     1.0000 0.30857  0.88483  0.30324  Biso   1.000  C
  O59      1.0000 0.96358  0.18574  0.66818  Biso   1.000  O
  O60      1.0000 0.89483  0.25747  0.71484  Biso   1.000  O
  N30      1.0000 0.91263  0.12527  0.74619  Biso   1.000  N
  C204     1.0000 0.98213  0.11987  0.74611  Biso   1.000  C
  H88      1.0000 0.00373  0.11527  0.72317  Biso   1.000  H
  C205     1.0000 0.02313  0.12057  0.77757  Biso   1.000  C
  C206     1.0000 0.98983  0.12597  0.81057  Biso   1.000  C
  H89      1.0000 0.01563  0.12527  0.83297  Biso   1.000  H
  C207     1.0000 0.91793  0.13247  0.81115  Biso   1.000  C
  C208     1.0000 0.87703  0.25237  0.92068  Biso   1.000  C
  H90      1.0000 0.92883  0.28887  0.90947  Biso   1.000  H
  C209     1.0000 0.85373  0.27577  0.95283  Biso   1.000  C
  C210     1.0000 0.97523  0.21817  0.63658  Biso   1.000  C
  O61      1.0000 0.88882  0.36975  0.00151  Biso   1.000  O
  O62      1.0000 0.02930  0.43850  0.04817  Biso   1.000  O
  N31      1.0000 0.87930  0.42070  0.07952  Biso   1.000  N
  C211     1.0000 0.80440  0.35120  0.07944  Biso   1.000  C
  H91      1.0000 0.77820  0.32960  0.05650  Biso   1.000  H
  C212     1.0000 0.76410  0.31020  0.11090  Biso   1.000  C
  C213     1.0000 0.80280  0.34350  0.14390  Biso   1.000  C
  H92      1.0000 0.77630  0.31770  0.16630  Biso   1.000  H
  C214     1.0000 0.88120  0.41540  0.14448  Biso   1.000  C
  C215     1.0000 0.04200  0.45630  0.25401  Biso   1.000  C
  H93      1.0000 0.02670  0.40450  0.24280  Biso   1.000  H
  C216     1.0000 0.08870  0.47960  0.28616  Biso   1.000  C
  C217     1.0000 0.90960  0.35810  0.96991  Biso   1.000  C
  O63      1.0000 0.55549  0.70308  0.33484  Biso   1.000  O
  O64      1.0000 0.69597  0.77183  0.38150  Biso   1.000  O
  N32      1.0000 0.54597  0.75403  0.41285  Biso   1.000  N
  C218     1.0000 0.47107  0.68453  0.41277  Biso   1.000  C
  H94      1.0000 0.44487  0.66293  0.38983  Biso   1.000  H
  C219     1.0000 0.43077  0.64353  0.44423  Biso   1.000  C
  C220     1.0000 0.46947  0.67683  0.47723  Biso   1.000  C
  H95      1.0000 0.44297  0.65103  0.49963  Biso   1.000  H
  C221     1.0000 0.54787  0.74873  0.47781  Biso   1.000  C
  C222     1.0000 0.70867  0.78963  0.58734  Biso   1.000  C
  H96      1.0000 0.69337  0.73783  0.57613  Biso   1.000  H
  C223     1.0000 0.75537  0.81293  0.61949  Biso   1.000  C
  C224     1.0000 0.57627  0.69143  0.30324  Biso   1.000  C
  O65      1.0000 0.22215  0.03642  0.66818  Biso   1.000  O
  O66      1.0000 0.36263  0.10517  0.71484  Biso   1.000  O
  N33      1.0000 0.21263  0.08737  0.74619  Biso   1.000  N
  C225     1.0000 0.13773  0.01787  0.74611  Biso   1.000  C
  H97      1.0000 0.11153  0.99627  0.72317  Biso   1.000  H
  C226     1.0000 0.09743  0.97687  0.77757  Biso   1.000  C
  C227     1.0000 0.13613  0.01017  0.81057  Biso   1.000  C
  H98      1.0000 0.10963  0.98437  0.83297  Biso   1.000  H
  C228     1.0000 0.21453  0.08207  0.81115  Biso   1.000  C
  C229     1.0000 0.37533  0.12297  0.92068  Biso   1.000  C
  H99      1.0000 0.36003  0.07117  0.90947  Biso   1.000  H
  C230     1.0000 0.42203  0.14627  0.95283  Biso   1.000  C
  C231     1.0000 0.24293  0.02477  0.63658  Biso   1.000  C
  O67      1.0000 0.48093  0.11118  0.00151  Biso   1.000  O
  O68      1.0000 0.40920  0.97070  0.04817  Biso   1.000  O
  N34      1.0000 0.54140  0.12070  0.07952  Biso   1.000  N
  C232     1.0000 0.54680  0.19560  0.07944  Biso   1.000  C
  H100     1.0000 0.55140  0.22180  0.05650  Biso   1.000  H
  C233     1.0000 0.54610  0.23590  0.11090  Biso   1.000  C
  C234     1.0000 0.54070  0.19720  0.14390  Biso   1.000  C
  H101     1.0000 0.54140  0.22370  0.16630  Biso   1.000  H
  C235     1.0000 0.53420  0.11880  0.14448  Biso   1.000  C
  C236     1.0000 0.41430  0.95800  0.25401  Biso   1.000  C
  H102     1.0000 0.37780  0.97330  0.24280  Biso   1.000  H
  C237     1.0000 0.39090  0.91130  0.28616  Biso   1.000  C
  C238     1.0000 0.44850  0.09040  0.96991  Biso   1.000  C
  O69      1.0000 0.14760  0.44451  0.33484  Biso   1.000  O
  O70      1.0000 0.07587  0.30403  0.38150  Biso   1.000  O
  N35      1.0000 0.20807  0.45403  0.41285  Biso   1.000  N
  C239     1.0000 0.21347  0.52893  0.41277  Biso   1.000  C
  H103     1.0000 0.21807  0.55513  0.38983  Biso   1.000  H
  C240     1.0000 0.21277  0.56923  0.44423  Biso   1.000  C
  C241     1.0000 0.20737  0.53053  0.47723  Biso   1.000  C
  H104     1.0000 0.20807  0.55703  0.49963  Biso   1.000  H
  C242     1.0000 0.20087  0.45213  0.47781  Biso   1.000  C
  C243     1.0000 0.08097  0.29133  0.58734  Biso   1.000  C
  H105     1.0000 0.04447  0.30663  0.57613  Biso   1.000  H
  C244     1.0000 0.05757  0.24463  0.61949  Biso   1.000  C
  C245     1.0000 0.11517  0.42373  0.30324  Biso   1.000  C
  O71      1.0000 0.81426  0.77785  0.66818  Biso   1.000  O
  O72      1.0000 0.74253  0.63737  0.71484  Biso   1.000  O
  N36      1.0000 0.87473  0.78737  0.74619  Biso   1.000  N
  C246     1.0000 0.88013  0.86227  0.74611  Biso   1.000  C
  H106     1.0000 0.88473  0.88847  0.72317  Biso   1.000  H
  C247     1.0000 0.87943  0.90257  0.77757  Biso   1.000  C
  C248     1.0000 0.87403  0.86387  0.81057  Biso   1.000  C
  H107     1.0000 0.87473  0.89037  0.83297  Biso   1.000  H
  C249     1.0000 0.86753  0.78547  0.81115  Biso   1.000  C
  C250     1.0000 0.74763  0.62467  0.92068  Biso   1.000  C
  H108     1.0000 0.71113  0.63997  0.90947  Biso   1.000  H
  C251     1.0000 0.72423  0.57797  0.95283  Biso   1.000  C
  C252     1.0000 0.78183  0.75707  0.63658  Biso   1.000  C
  Zn1      1.0000 0.52704  0.47296  0.03266  Biso   1.000  Zn
  C253     1.0000 0.54138  0.45862  0.11148  Biso   1.000  C
  C254     1.0000 0.53625  0.46375  0.17826  Biso   1.000  C
  C255     1.0000 0.51610  0.48390  0.20545  Biso   1.000  C
  C256     1.0000 0.49110  0.50890  0.23814  Biso   1.000  C
  C257     1.0000 0.44509  0.55491  0.30231  Biso   1.000  C
  H109     1.0000 0.43030  0.56970  0.32480  Biso   1.000  H
  Zn2      1.0000 0.19371  0.80629  0.36599  Biso   1.000  Zn
  C258     1.0000 0.20805  0.79195  0.44481  Biso   1.000  C
  C259     1.0000 0.20292  0.79708  0.51159  Biso   1.000  C
  C260     1.0000 0.18277  0.81723  0.53878  Biso   1.000  C
  C261     1.0000 0.15777  0.84223  0.57147  Biso   1.000  C
  C262     1.0000 0.11176  0.88824  0.63564  Biso   1.000  C
  H110     1.0000 0.09697  0.90303  0.65813  Biso   1.000  H
  Zn3      1.0000 0.86037  0.13963  0.69932  Biso   1.000  Zn
  C263     1.0000 0.87472  0.12528  0.77815  Biso   1.000  C
  C264     1.0000 0.86958  0.13042  0.84493  Biso   1.000  C
  C265     1.0000 0.84943  0.15057  0.87212  Biso   1.000  C
  C266     1.0000 0.82443  0.17557  0.90481  Biso   1.000  C
  C267     1.0000 0.77842  0.22158  0.96898  Biso   1.000  C
  H111     1.0000 0.76363  0.23637  0.99147  Biso   1.000  H
  Zn4      1.0000 0.52704  0.05408  0.03266  Biso   1.000  Zn
  C268     1.0000 0.54138  0.08277  0.11148  Biso   1.000  C
  C269     1.0000 0.53625  0.07250  0.17826  Biso   1.000  C
  C270     1.0000 0.51610  0.03220  0.20545  Biso   1.000  C
  C271     1.0000 0.49110  0.98220  0.23814  Biso   1.000  C
  C272     1.0000 0.44509  0.89018  0.30231  Biso   1.000  C
  H112     1.0000 0.43030  0.86060  0.32480  Biso   1.000  H
  Zn5      1.0000 0.19371  0.38741  0.36599  Biso   1.000  Zn
  C273     1.0000 0.20805  0.41610  0.44481  Biso   1.000  C
  C274     1.0000 0.20292  0.40583  0.51159  Biso   1.000  C
  C275     1.0000 0.18277  0.36553  0.53878  Biso   1.000  C
  C276     1.0000 0.15777  0.31553  0.57147  Biso   1.000  C
  C277     1.0000 0.11176  0.22351  0.63564  Biso   1.000  C
  H113     1.0000 0.09697  0.19393  0.65813  Biso   1.000  H
  Zn6      1.0000 0.86037  0.72075  0.69932  Biso   1.000  Zn
  C278     1.0000 0.87472  0.74944  0.77815  Biso   1.000  C
  C279     1.0000 0.86958  0.73917  0.84493  Biso   1.000  C
  C280     1.0000 0.84943  0.69887  0.87212  Biso   1.000  C
  C281     1.0000 0.82443  0.64887  0.90481  Biso   1.000  C
  C282     1.0000 0.77842  0.55685  0.96898  Biso   1.000  C
  H114     1.0000 0.76363  0.52727  0.99147  Biso   1.000  H
  Zn7      1.0000 0.94592  0.47296  0.03266  Biso   1.000  Zn
  C283     1.0000 0.91723  0.45862  0.11148  Biso   1.000  C
  C284     1.0000 0.92750  0.46375  0.17826  Biso   1.000  C
  C285     1.0000 0.96780  0.48390  0.20545  Biso   1.000  C
  C286     1.0000 0.01780  0.50890  0.23814  Biso   1.000  C
  C287     1.0000 0.10982  0.55491  0.30231  Biso   1.000  C
  H115     1.0000 0.13940  0.56970  0.32480  Biso   1.000  H
  Zn8      1.0000 0.61259  0.80629  0.36599  Biso   1.000  Zn
  C288     1.0000 0.58390  0.79195  0.44481  Biso   1.000  C
  C289     1.0000 0.59417  0.79708  0.51159  Biso   1.000  C
  C290     1.0000 0.63447  0.81723  0.53878  Biso   1.000  C
  C291     1.0000 0.68447  0.84223  0.57147  Biso   1.000  C
  C292     1.0000 0.77649  0.88824  0.63564  Biso   1.000  C
  H116     1.0000 0.80607  0.90303  0.65813  Biso   1.000  H
  Zn9      1.0000 0.27925  0.13963  0.69932  Biso   1.000  Zn
  C293     1.0000 0.25056  0.12528  0.77815  Biso   1.000  C
  C294     1.0000 0.26083  0.13042  0.84493  Biso   1.000  C
  C295     1.0000 0.30113  0.15057  0.87212  Biso   1.000  C
  C296     1.0000 0.35113  0.17557  0.90481  Biso   1.000  C
  C297     1.0000 0.44315  0.22158  0.96898  Biso   1.000  C
  H117     1.0000 0.47273  0.23637  0.99147  Biso   1.000  H
  Zn10     1.0000 0.47296  0.52704  0.96734  Biso   1.000  Zn
  C298     1.0000 0.45862  0.54138  0.88852  Biso   1.000  C
  C299     1.0000 0.46375  0.53625  0.82174  Biso   1.000  C
  C300     1.0000 0.48390  0.51610  0.79455  Biso   1.000  C
  C301     1.0000 0.50890  0.49110  0.76186  Biso   1.000  C
  C302     1.0000 0.55491  0.44509  0.69769  Biso   1.000  C
  H118     1.0000 0.56970  0.43030  0.67520  Biso   1.000  H
  Zn11     1.0000 0.13963  0.86037  0.30068  Biso   1.000  Zn
  C303     1.0000 0.12528  0.87472  0.22185  Biso   1.000  C
  C304     1.0000 0.13042  0.86958  0.15507  Biso   1.000  C
  C305     1.0000 0.15057  0.84943  0.12788  Biso   1.000  C
  C306     1.0000 0.17557  0.82443  0.09519  Biso   1.000  C
  C307     1.0000 0.22158  0.77842  0.03102  Biso   1.000  C
  H119     1.0000 0.23637  0.76363  0.00853  Biso   1.000  H
  Zn12     1.0000 0.80629  0.19371  0.63401  Biso   1.000  Zn
  C308     1.0000 0.79195  0.20805  0.55519  Biso   1.000  C
  C309     1.0000 0.79708  0.20292  0.48841  Biso   1.000  C
  C310     1.0000 0.81723  0.18277  0.46122  Biso   1.000  C
  C311     1.0000 0.84223  0.15777  0.42853  Biso   1.000  C
  C312     1.0000 0.88824  0.11176  0.36436  Biso   1.000  C
  H120     1.0000 0.90303  0.09697  0.34187  Biso   1.000  H
  Zn13     1.0000 0.05408  0.52704  0.96734  Biso   1.000  Zn
  C313     1.0000 0.08277  0.54138  0.88852  Biso   1.000  C
  C314     1.0000 0.07250  0.53625  0.82174  Biso   1.000  C
  C315     1.0000 0.03220  0.51610  0.79455  Biso   1.000  C
  C316     1.0000 0.98220  0.49110  0.76186  Biso   1.000  C
  C317     1.0000 0.89018  0.44509  0.69769  Biso   1.000  C
  H121     1.0000 0.86060  0.43030  0.67520  Biso   1.000  H
  Zn14     1.0000 0.72075  0.86037  0.30068  Biso   1.000  Zn
  C318     1.0000 0.74944  0.87472  0.22185  Biso   1.000  C
  C319     1.0000 0.73917  0.86958  0.15507  Biso   1.000  C
  C320     1.0000 0.69887  0.84943  0.12788  Biso   1.000  C
  C321     1.0000 0.64887  0.82443  0.09519  Biso   1.000  C
  C322     1.0000 0.55685  0.77842  0.03102  Biso   1.000  C
  H122     1.0000 0.52727  0.76363  0.00853  Biso   1.000  H
  Zn15     1.0000 0.38741  0.19371  0.63401  Biso   1.000  Zn
  C323     1.0000 0.41610  0.20805  0.55519  Biso   1.000  C
  C324     1.0000 0.40583  0.20292  0.48841  Biso   1.000  C
  C325     1.0000 0.36553  0.18277  0.46122  Biso   1.000  C
  C326     1.0000 0.31553  0.15777  0.42853  Biso   1.000  C
  C327     1.0000 0.22351  0.11176  0.36436  Biso   1.000  C
  H123     1.0000 0.19393  0.09697  0.34187  Biso   1.000  H
  Zn16     1.0000 0.47296  0.94592  0.96734  Biso   1.000  Zn
  C328     1.0000 0.45862  0.91723  0.88852  Biso   1.000  C
  C329     1.0000 0.46375  0.92750  0.82174  Biso   1.000  C
  C330     1.0000 0.48390  0.96780  0.79455  Biso   1.000  C
  C331     1.0000 0.50890  0.01780  0.76186  Biso   1.000  C
  C332     1.0000 0.55491  0.10982  0.69769  Biso   1.000  C
  H124     1.0000 0.56970  0.13940  0.67520  Biso   1.000  H
  Zn17     1.0000 0.13963  0.27925  0.30068  Biso   1.000  Zn
  C333     1.0000 0.12528  0.25056  0.22185  Biso   1.000  C
  C334     1.0000 0.13042  0.26083  0.15507  Biso   1.000  C
  C335     1.0000 0.15057  0.30113  0.12788  Biso   1.000  C
  C336     1.0000 0.17557  0.35113  0.09519  Biso   1.000  C
  C337     1.0000 0.22158  0.44315  0.03102  Biso   1.000  C
  H125     1.0000 0.23637  0.47273  0.00853  Biso   1.000  H
  Zn18     1.0000 0.80629  0.61259  0.63401  Biso   1.000  Zn
  C338     1.0000 0.79195  0.58390  0.55519  Biso   1.000  C
  C339     1.0000 0.79708  0.59417  0.48841  Biso   1.000  C
  C340     1.0000 0.81723  0.63447  0.46122  Biso   1.000  C
  C341     1.0000 0.84223  0.68447  0.42853  Biso   1.000  C
  C342     1.0000 0.88824  0.77649  0.36436  Biso   1.000  C
  H126     1.0000 0.90303  0.80607  0.34187  Biso   1.000  H
