data_image0
_cell_length_a       15.1496
_cell_length_b       15.1496
_cell_length_c       18.6597
_cell_angle_alpha    90
_cell_angle_beta     90
_cell_angle_gamma    90

_symmetry_space_group_name_H-M    "P 1"
_symmetry_int_tables_number       1

loop_
  _symmetry_equiv_pos_as_xyz
  'x, y, z'

loop_
  _atom_site_label
  _atom_site_occupancy
  _atom_site_fract_x
  _atom_site_fract_y
  _atom_site_fract_z
  _atom_site_thermal_displace_type
  _atom_site_B_iso_or_equiv
  _atom_site_type_symbol
  O1       1.0000 0.61070  0.56700  0.06370  Biso   1.000  O
  C1       1.0000 0.74810  0.68530  0.06450  Biso   1.000  C
  C2       1.0000 0.53120  0.41390  0.21080  Biso   1.000  C
  C3       1.0000 0.58280  0.45370  0.20390  Biso   1.000  C
  O2       1.0000 0.11070  0.06700  0.56370  Biso   1.000  O
  C4       1.0000 0.24810  0.18530  0.56450  Biso   1.000  C
  C5       1.0000 0.03120  0.91390  0.71080  Biso   1.000  C
  C6       1.0000 0.08280  0.95370  0.70390  Biso   1.000  C
  O3       1.0000 0.38930  0.43300  0.06370  Biso   1.000  O
  C7       1.0000 0.25190  0.31470  0.06450  Biso   1.000  C
  C8       1.0000 0.46880  0.58610  0.21080  Biso   1.000  C
  C9       1.0000 0.41720  0.54630  0.20390  Biso   1.000  C
  O4       1.0000 0.88930  0.93300  0.56370  Biso   1.000  O
  C10      1.0000 0.75190  0.81470  0.56450  Biso   1.000  C
  C11      1.0000 0.96880  0.08610  0.71080  Biso   1.000  C
  C12      1.0000 0.91720  0.04630  0.70390  Biso   1.000  C
  O5       1.0000 0.43300  0.61070  0.06370  Biso   1.000  O
  C13      1.0000 0.31470  0.74810  0.06450  Biso   1.000  C
  C14      1.0000 0.58610  0.53120  0.21080  Biso   1.000  C
  C15      1.0000 0.54630  0.58280  0.20390  Biso   1.000  C
  O6       1.0000 0.93300  0.11070  0.56370  Biso   1.000  O
  C16      1.0000 0.81470  0.24810  0.56450  Biso   1.000  C
  C17      1.0000 0.08610  0.03120  0.71080  Biso   1.000  C
  C18      1.0000 0.04630  0.08280  0.70390  Biso   1.000  C
  O7       1.0000 0.56700  0.38930  0.06370  Biso   1.000  O
  C19      1.0000 0.68530  0.25190  0.06450  Biso   1.000  C
  C20      1.0000 0.41390  0.46880  0.21080  Biso   1.000  C
  C21      1.0000 0.45370  0.41720  0.20390  Biso   1.000  C
  O8       1.0000 0.06700  0.88930  0.56370  Biso   1.000  O
  C22      1.0000 0.18530  0.75190  0.56450  Biso   1.000  C
  C23      1.0000 0.91390  0.96880  0.71080  Biso   1.000  C
  C24      1.0000 0.95370  0.91720  0.70390  Biso   1.000  C
  O9       1.0000 0.38930  0.56700  0.43630  Biso   1.000  O
  C25      1.0000 0.25190  0.68530  0.43550  Biso   1.000  C
  C26      1.0000 0.46880  0.41390  0.28920  Biso   1.000  C
  C27      1.0000 0.41720  0.45370  0.29610  Biso   1.000  C
  O10      1.0000 0.88930  0.06700  0.93630  Biso   1.000  O
  C28      1.0000 0.75190  0.18530  0.93550  Biso   1.000  C
  C29      1.0000 0.96880  0.91390  0.78920  Biso   1.000  C
  C30      1.0000 0.91720  0.95370  0.79610  Biso   1.000  C
  O11      1.0000 0.61070  0.43300  0.43630  Biso   1.000  O
  C31      1.0000 0.74810  0.31470  0.43550  Biso   1.000  C
  C32      1.0000 0.53120  0.58610  0.28920  Biso   1.000  C
  C33      1.0000 0.58280  0.54630  0.29610  Biso   1.000  C
  O12      1.0000 0.11070  0.93300  0.93630  Biso   1.000  O
  C34      1.0000 0.24810  0.81470  0.93550  Biso   1.000  C
  C35      1.0000 0.03120  0.08610  0.78920  Biso   1.000  C
  C36      1.0000 0.08280  0.04630  0.79610  Biso   1.000  C
  O13      1.0000 0.56700  0.61070  0.43630  Biso   1.000  O
  C37      1.0000 0.68530  0.74810  0.43550  Biso   1.000  C
  C38      1.0000 0.41390  0.53120  0.28920  Biso   1.000  C
  C39      1.0000 0.45370  0.58280  0.29610  Biso   1.000  C
  O14      1.0000 0.06700  0.11070  0.93630  Biso   1.000  O
  C40      1.0000 0.18530  0.24810  0.93550  Biso   1.000  C
  C41      1.0000 0.91390  0.03120  0.78920  Biso   1.000  C
  C42      1.0000 0.95370  0.08280  0.79610  Biso   1.000  C
  O15      1.0000 0.43300  0.38930  0.43630  Biso   1.000  O
  C43      1.0000 0.31470  0.25190  0.43550  Biso   1.000  C
  C44      1.0000 0.58610  0.46880  0.28920  Biso   1.000  C
  C45      1.0000 0.54630  0.41720  0.29610  Biso   1.000  C
  O16      1.0000 0.93300  0.88930  0.93630  Biso   1.000  O
  C46      1.0000 0.81470  0.75190  0.93550  Biso   1.000  C
  C47      1.0000 0.08610  0.96880  0.78920  Biso   1.000  C
  C48      1.0000 0.04630  0.91720  0.79610  Biso   1.000  C
  O17      1.0000 0.38930  0.43300  0.93630  Biso   1.000  O
  C49      1.0000 0.25190  0.31470  0.93550  Biso   1.000  C
  C50      1.0000 0.46880  0.58610  0.78920  Biso   1.000  C
  C51      1.0000 0.41720  0.54630  0.79610  Biso   1.000  C
  O18      1.0000 0.88930  0.93300  0.43630  Biso   1.000  O
  C52      1.0000 0.75190  0.81470  0.43550  Biso   1.000  C
  C53      1.0000 0.96880  0.08610  0.28920  Biso   1.000  C
  C54      1.0000 0.91720  0.04630  0.29610  Biso   1.000  C
  O19      1.0000 0.61070  0.56700  0.93630  Biso   1.000  O
  C55      1.0000 0.74810  0.68530  0.93550  Biso   1.000  C
  C56      1.0000 0.53120  0.41390  0.78920  Biso   1.000  C
  C57      1.0000 0.58280  0.45370  0.79610  Biso   1.000  C
  O20      1.0000 0.11070  0.06700  0.43630  Biso   1.000  O
  C58      1.0000 0.24810  0.18530  0.43550  Biso   1.000  C
  C59      1.0000 0.03120  0.91390  0.28920  Biso   1.000  C
  C60      1.0000 0.08280  0.95370  0.29610  Biso   1.000  C
  O21      1.0000 0.56700  0.38930  0.93630  Biso   1.000  O
  C61      1.0000 0.68530  0.25190  0.93550  Biso   1.000  C
  C62      1.0000 0.41390  0.46880  0.78920  Biso   1.000  C
  C63      1.0000 0.45370  0.41720  0.79610  Biso   1.000  C
  O22      1.0000 0.06700  0.88930  0.43630  Biso   1.000  O
  C64      1.0000 0.18530  0.75190  0.43550  Biso   1.000  C
  C65      1.0000 0.91390  0.96880  0.28920  Biso   1.000  C
  C66      1.0000 0.95370  0.91720  0.29610  Biso   1.000  C
  O23      1.0000 0.43300  0.61070  0.93630  Biso   1.000  O
  C67      1.0000 0.31470  0.74810  0.93550  Biso   1.000  C
  C68      1.0000 0.58610  0.53120  0.78920  Biso   1.000  C
  C69      1.0000 0.54630  0.58280  0.79610  Biso   1.000  C
  O24      1.0000 0.93300  0.11070  0.43630  Biso   1.000  O
  C70      1.0000 0.81470  0.24810  0.43550  Biso   1.000  C
  C71      1.0000 0.08610  0.03120  0.28920  Biso   1.000  C
  C72      1.0000 0.04630  0.08280  0.29610  Biso   1.000  C
  O25      1.0000 0.61070  0.43300  0.56370  Biso   1.000  O
  C73      1.0000 0.74810  0.31470  0.56450  Biso   1.000  C
  C74      1.0000 0.53120  0.58610  0.71080  Biso   1.000  C
  C75      1.0000 0.58280  0.54630  0.70390  Biso   1.000  C
  O26      1.0000 0.11070  0.93300  0.06370  Biso   1.000  O
  C76      1.0000 0.24810  0.81470  0.06450  Biso   1.000  C
  C77      1.0000 0.03120  0.08610  0.21080  Biso   1.000  C
  C78      1.0000 0.08280  0.04630  0.20390  Biso   1.000  C
  O27      1.0000 0.38930  0.56700  0.56370  Biso   1.000  O
  C79      1.0000 0.25190  0.68530  0.56450  Biso   1.000  C
  C80      1.0000 0.46880  0.41390  0.71080  Biso   1.000  C
  C81      1.0000 0.41720  0.45370  0.70390  Biso   1.000  C
  O28      1.0000 0.88930  0.06700  0.06370  Biso   1.000  O
  C82      1.0000 0.75190  0.18530  0.06450  Biso   1.000  C
  C83      1.0000 0.96880  0.91390  0.21080  Biso   1.000  C
  C84      1.0000 0.91720  0.95370  0.20390  Biso   1.000  C
  O29      1.0000 0.43300  0.38930  0.56370  Biso   1.000  O
  C85      1.0000 0.31470  0.25190  0.56450  Biso   1.000  C
  C86      1.0000 0.58610  0.46880  0.71080  Biso   1.000  C
  C87      1.0000 0.54630  0.41720  0.70390  Biso   1.000  C
  O30      1.0000 0.93300  0.88930  0.06370  Biso   1.000  O
  C88      1.0000 0.81470  0.75190  0.06450  Biso   1.000  C
  C89      1.0000 0.08610  0.96880  0.21080  Biso   1.000  C
  C90      1.0000 0.04630  0.91720  0.20390  Biso   1.000  C
  O31      1.0000 0.56700  0.61070  0.56370  Biso   1.000  O
  C91      1.0000 0.68530  0.74810  0.56450  Biso   1.000  C
  C92      1.0000 0.41390  0.53120  0.71080  Biso   1.000  C
  C93      1.0000 0.45370  0.58280  0.70390  Biso   1.000  C
  O32      1.0000 0.06700  0.11070  0.06370  Biso   1.000  O
  C94      1.0000 0.18530  0.24810  0.06450  Biso   1.000  C
  C95      1.0000 0.91390  0.03120  0.21080  Biso   1.000  C
  C96      1.0000 0.95370  0.08280  0.20390  Biso   1.000  C
  Ni1      1.0000 0.50000  0.50000  0.07190  Biso   1.000  Ni
  N1       1.0000 0.50000  0.50000  0.18190  Biso   1.000  N
  Ni2      1.0000 0.00000  0.00000  0.57190  Biso   1.000  Ni
  N2       1.0000 0.00000  0.00000  0.68190  Biso   1.000  N
  Ni3      1.0000 0.50000  0.50000  0.42810  Biso   1.000  Ni
  N3       1.0000 0.50000  0.50000  0.31810  Biso   1.000  N
  Ni4      1.0000 0.00000  0.00000  0.92810  Biso   1.000  Ni
  N4       1.0000 0.00000  0.00000  0.81810  Biso   1.000  N
  Ni5      1.0000 0.50000  0.50000  0.92810  Biso   1.000  Ni
  N5       1.0000 0.50000  0.50000  0.81810  Biso   1.000  N
  Ni6      1.0000 0.00000  0.00000  0.42810  Biso   1.000  Ni
  N6       1.0000 0.00000  0.00000  0.31810  Biso   1.000  N
  Ni7      1.0000 0.50000  0.50000  0.57190  Biso   1.000  Ni
  N7       1.0000 0.50000  0.50000  0.68190  Biso   1.000  N
  Ni8      1.0000 0.00000  0.00000  0.07190  Biso   1.000  Ni
  N8       1.0000 0.00000  0.00000  0.18190  Biso   1.000  N
  C97      1.0000 0.63470  0.58970  0.00000  Biso   1.000  C
  C98      1.0000 0.71460  0.65290  0.00000  Biso   1.000  C
  C99      1.0000 0.13470  0.08970  0.50000  Biso   1.000  C
  C100     1.0000 0.21460  0.15290  0.50000  Biso   1.000  C
  C101     1.0000 0.36530  0.41030  0.00000  Biso   1.000  C
  C102     1.0000 0.28540  0.34710  0.00000  Biso   1.000  C
  C103     1.0000 0.86530  0.91030  0.50000  Biso   1.000  C
  C104     1.0000 0.78540  0.84710  0.50000  Biso   1.000  C
  C105     1.0000 0.41030  0.63470  0.00000  Biso   1.000  C
  C106     1.0000 0.34710  0.71460  0.00000  Biso   1.000  C
  C107     1.0000 0.91030  0.13470  0.50000  Biso   1.000  C
  C108     1.0000 0.84710  0.21460  0.50000  Biso   1.000  C
  C109     1.0000 0.58970  0.36530  0.00000  Biso   1.000  C
  C110     1.0000 0.65290  0.28540  0.00000  Biso   1.000  C
  C111     1.0000 0.08970  0.86530  0.50000  Biso   1.000  C
  C112     1.0000 0.15290  0.78540  0.50000  Biso   1.000  C
  C113     1.0000 0.36530  0.58970  0.50000  Biso   1.000  C
  C114     1.0000 0.28540  0.65290  0.50000  Biso   1.000  C
  C115     1.0000 0.86530  0.08970  0.00000  Biso   1.000  C
  C116     1.0000 0.78540  0.15290  0.00000  Biso   1.000  C
  C117     1.0000 0.63470  0.41030  0.50000  Biso   1.000  C
  C118     1.0000 0.71460  0.34710  0.50000  Biso   1.000  C
  C119     1.0000 0.13470  0.91030  0.00000  Biso   1.000  C
  C120     1.0000 0.21460  0.84710  0.00000  Biso   1.000  C
  C121     1.0000 0.58970  0.63470  0.50000  Biso   1.000  C
  C122     1.0000 0.65290  0.71460  0.50000  Biso   1.000  C
  C123     1.0000 0.08970  0.13470  0.00000  Biso   1.000  C
  C124     1.0000 0.15290  0.21460  0.00000  Biso   1.000  C
  C125     1.0000 0.41030  0.36530  0.50000  Biso   1.000  C
  C126     1.0000 0.34710  0.28540  0.50000  Biso   1.000  C
  C127     1.0000 0.91030  0.86530  0.00000  Biso   1.000  C
  C128     1.0000 0.84710  0.78540  0.00000  Biso   1.000  C
