data_image0
_cell_length_a       14.392
_cell_length_b       15.699
_cell_length_c       10.741
_cell_angle_alpha    90
_cell_angle_beta     90
_cell_angle_gamma    90

_symmetry_space_group_name_H-M    "P 1"
_symmetry_int_tables_number       1

loop_
  _symmetry_equiv_pos_as_xyz
  'x, y, z'

loop_
  _atom_site_label
  _atom_site_occupancy
  _atom_site_fract_x
  _atom_site_fract_y
  _atom_site_fract_z
  _atom_site_thermal_displace_type
  _atom_site_B_iso_or_equiv
  _atom_site_type_symbol
  C1       1.0000 0.86822  0.62066  0.59470  Biso   1.000  C
  O1       1.0000 0.89813  0.59164  0.48820  Biso   1.000  O
  O2       1.0000 0.80545  0.67684  0.59780  Biso   1.000  O
  O3       1.0000 0.90138  0.59050  0.69760  Biso   1.000  O
  O4       1.0000 0.79832  0.67123  0.88646  Biso   1.000  O
  H1       1.0000 0.77010  0.68890  0.96430  Biso   1.000  H
  H2       1.0000 0.86510  0.67760  0.89440  Biso   1.000  H
  H3       1.0000 0.81240  0.44900  0.11700  Biso   1.000  H
  H4       1.0000 0.86310  0.52300  0.09710  Biso   1.000  H
  C2       1.0000 0.86822  0.12066  0.09470  Biso   1.000  C
  O5       1.0000 0.89813  0.09164  0.98820  Biso   1.000  O
  O6       1.0000 0.80545  0.17684  0.09780  Biso   1.000  O
  O7       1.0000 0.90138  0.09050  0.19760  Biso   1.000  O
  O8       1.0000 0.79832  0.17123  0.38646  Biso   1.000  O
  H5       1.0000 0.77010  0.18890  0.46430  Biso   1.000  H
  H6       1.0000 0.86510  0.17760  0.39440  Biso   1.000  H
  H7       1.0000 0.81240  0.94900  0.61700  Biso   1.000  H
  H8       1.0000 0.86310  0.02300  0.59710  Biso   1.000  H
  C3       1.0000 0.36822  0.62066  0.09470  Biso   1.000  C
  O9       1.0000 0.39813  0.59164  0.98820  Biso   1.000  O
  O10      1.0000 0.30545  0.67684  0.09780  Biso   1.000  O
  O11      1.0000 0.40138  0.59050  0.19760  Biso   1.000  O
  O12      1.0000 0.29832  0.67123  0.38646  Biso   1.000  O
  H9       1.0000 0.27010  0.68890  0.46430  Biso   1.000  H
  H10      1.0000 0.36510  0.67760  0.39440  Biso   1.000  H
  H11      1.0000 0.31240  0.44900  0.61700  Biso   1.000  H
  H12      1.0000 0.36310  0.52300  0.59710  Biso   1.000  H
  C4       1.0000 0.36822  0.12066  0.59470  Biso   1.000  C
  O13      1.0000 0.39813  0.09164  0.48820  Biso   1.000  O
  O14      1.0000 0.30545  0.17684  0.59780  Biso   1.000  O
  O15      1.0000 0.40138  0.09050  0.69760  Biso   1.000  O
  O16      1.0000 0.29832  0.17123  0.88646  Biso   1.000  O
  H13      1.0000 0.27010  0.18890  0.96430  Biso   1.000  H
  H14      1.0000 0.36510  0.17760  0.89440  Biso   1.000  H
  H15      1.0000 0.31240  0.94900  0.11700  Biso   1.000  H
  H16      1.0000 0.36310  0.02300  0.09710  Biso   1.000  H
  C5       1.0000 0.13178  0.37934  0.59470  Biso   1.000  C
  O17      1.0000 0.10187  0.40836  0.48820  Biso   1.000  O
  O18      1.0000 0.19455  0.32316  0.59780  Biso   1.000  O
  O19      1.0000 0.09862  0.40950  0.69760  Biso   1.000  O
  O20      1.0000 0.20168  0.32877  0.88646  Biso   1.000  O
  H17      1.0000 0.22990  0.31110  0.96430  Biso   1.000  H
  H18      1.0000 0.13490  0.32240  0.89440  Biso   1.000  H
  H19      1.0000 0.18760  0.55100  0.11700  Biso   1.000  H
  H20      1.0000 0.13690  0.47700  0.09710  Biso   1.000  H
  C6       1.0000 0.13178  0.87934  0.09470  Biso   1.000  C
  O21      1.0000 0.10187  0.90836  0.98820  Biso   1.000  O
  O22      1.0000 0.19455  0.82316  0.09780  Biso   1.000  O
  O23      1.0000 0.09862  0.90950  0.19760  Biso   1.000  O
  O24      1.0000 0.20168  0.82877  0.38646  Biso   1.000  O
  H21      1.0000 0.22990  0.81110  0.46430  Biso   1.000  H
  H22      1.0000 0.13490  0.82240  0.39440  Biso   1.000  H
  H23      1.0000 0.18760  0.05100  0.61700  Biso   1.000  H
  H24      1.0000 0.13690  0.97700  0.59710  Biso   1.000  H
  C7       1.0000 0.63178  0.37934  0.09470  Biso   1.000  C
  O25      1.0000 0.60187  0.40836  0.98820  Biso   1.000  O
  O26      1.0000 0.69455  0.32316  0.09780  Biso   1.000  O
  O27      1.0000 0.59862  0.40950  0.19760  Biso   1.000  O
  O28      1.0000 0.70168  0.32877  0.38646  Biso   1.000  O
  H25      1.0000 0.72990  0.31110  0.46430  Biso   1.000  H
  H26      1.0000 0.63490  0.32240  0.39440  Biso   1.000  H
  H27      1.0000 0.68760  0.55100  0.61700  Biso   1.000  H
  H28      1.0000 0.63690  0.47700  0.59710  Biso   1.000  H
  C8       1.0000 0.63178  0.87934  0.59470  Biso   1.000  C
  O29      1.0000 0.60187  0.90836  0.48820  Biso   1.000  O
  O30      1.0000 0.69455  0.82316  0.59780  Biso   1.000  O
  O31      1.0000 0.59862  0.90950  0.69760  Biso   1.000  O
  O32      1.0000 0.70168  0.82877  0.88646  Biso   1.000  O
  H29      1.0000 0.72990  0.81110  0.96430  Biso   1.000  H
  H30      1.0000 0.63490  0.82240  0.89440  Biso   1.000  H
  H31      1.0000 0.68760  0.05100  0.11700  Biso   1.000  H
  H32      1.0000 0.63690  0.97700  0.09710  Biso   1.000  H
  C9       1.0000 0.86822  0.37934  0.59470  Biso   1.000  C
  O33      1.0000 0.89813  0.40836  0.48820  Biso   1.000  O
  O34      1.0000 0.80545  0.32316  0.59780  Biso   1.000  O
  O35      1.0000 0.90138  0.40950  0.69760  Biso   1.000  O
  O36      1.0000 0.79832  0.32877  0.88646  Biso   1.000  O
  H33      1.0000 0.77010  0.31110  0.96430  Biso   1.000  H
  H34      1.0000 0.86510  0.32240  0.89440  Biso   1.000  H
  H35      1.0000 0.81240  0.55100  0.11700  Biso   1.000  H
  H36      1.0000 0.86310  0.47700  0.09710  Biso   1.000  H
  C10      1.0000 0.86822  0.87934  0.09470  Biso   1.000  C
  O37      1.0000 0.89813  0.90836  0.98820  Biso   1.000  O
  O38      1.0000 0.80545  0.82316  0.09780  Biso   1.000  O
  O39      1.0000 0.90138  0.90950  0.19760  Biso   1.000  O
  O40      1.0000 0.79832  0.82877  0.38646  Biso   1.000  O
  H37      1.0000 0.77010  0.81110  0.46430  Biso   1.000  H
  H38      1.0000 0.86510  0.82240  0.39440  Biso   1.000  H
  H39      1.0000 0.81240  0.05100  0.61700  Biso   1.000  H
  H40      1.0000 0.86310  0.97700  0.59710  Biso   1.000  H
  C11      1.0000 0.36822  0.37934  0.09470  Biso   1.000  C
  O41      1.0000 0.39813  0.40836  0.98820  Biso   1.000  O
  O42      1.0000 0.30545  0.32316  0.09780  Biso   1.000  O
  O43      1.0000 0.40138  0.40950  0.19760  Biso   1.000  O
  O44      1.0000 0.29832  0.32877  0.38646  Biso   1.000  O
  H41      1.0000 0.27010  0.31110  0.46430  Biso   1.000  H
  H42      1.0000 0.36510  0.32240  0.39440  Biso   1.000  H
  H43      1.0000 0.31240  0.55100  0.61700  Biso   1.000  H
  H44      1.0000 0.36310  0.47700  0.59710  Biso   1.000  H
  C12      1.0000 0.36822  0.87934  0.59470  Biso   1.000  C
  O45      1.0000 0.39813  0.90836  0.48820  Biso   1.000  O
  O46      1.0000 0.30545  0.82316  0.59780  Biso   1.000  O
  O47      1.0000 0.40138  0.90950  0.69760  Biso   1.000  O
  O48      1.0000 0.29832  0.82877  0.88646  Biso   1.000  O
  H45      1.0000 0.27010  0.81110  0.96430  Biso   1.000  H
  H46      1.0000 0.36510  0.82240  0.89440  Biso   1.000  H
  H47      1.0000 0.31240  0.05100  0.11700  Biso   1.000  H
  H48      1.0000 0.36310  0.97700  0.09710  Biso   1.000  H
  C13      1.0000 0.13178  0.62066  0.59470  Biso   1.000  C
  O49      1.0000 0.10187  0.59164  0.48820  Biso   1.000  O
  O50      1.0000 0.19455  0.67684  0.59780  Biso   1.000  O
  O51      1.0000 0.09862  0.59050  0.69760  Biso   1.000  O
  O52      1.0000 0.20168  0.67123  0.88646  Biso   1.000  O
  H49      1.0000 0.22990  0.68890  0.96430  Biso   1.000  H
  H50      1.0000 0.13490  0.67760  0.89440  Biso   1.000  H
  H51      1.0000 0.18760  0.44900  0.11700  Biso   1.000  H
  H52      1.0000 0.13690  0.52300  0.09710  Biso   1.000  H
  C14      1.0000 0.13178  0.12066  0.09470  Biso   1.000  C
  O53      1.0000 0.10187  0.09164  0.98820  Biso   1.000  O
  O54      1.0000 0.19455  0.17684  0.09780  Biso   1.000  O
  O55      1.0000 0.09862  0.09050  0.19760  Biso   1.000  O
  O56      1.0000 0.20168  0.17123  0.38646  Biso   1.000  O
  H53      1.0000 0.22990  0.18890  0.46430  Biso   1.000  H
  H54      1.0000 0.13490  0.17760  0.39440  Biso   1.000  H
  H55      1.0000 0.18760  0.94900  0.61700  Biso   1.000  H
  H56      1.0000 0.13690  0.02300  0.59710  Biso   1.000  H
  C15      1.0000 0.63178  0.62066  0.09470  Biso   1.000  C
  O57      1.0000 0.60187  0.59164  0.98820  Biso   1.000  O
  O58      1.0000 0.69455  0.67684  0.09780  Biso   1.000  O
  O59      1.0000 0.59862  0.59050  0.19760  Biso   1.000  O
  O60      1.0000 0.70168  0.67123  0.38646  Biso   1.000  O
  H57      1.0000 0.72990  0.68890  0.46430  Biso   1.000  H
  H58      1.0000 0.63490  0.67760  0.39440  Biso   1.000  H
  H59      1.0000 0.68760  0.44900  0.61700  Biso   1.000  H
  H60      1.0000 0.63690  0.52300  0.59710  Biso   1.000  H
  C16      1.0000 0.63178  0.12066  0.59470  Biso   1.000  C
  O61      1.0000 0.60187  0.09164  0.48820  Biso   1.000  O
  O62      1.0000 0.69455  0.17684  0.59780  Biso   1.000  O
  O63      1.0000 0.59862  0.09050  0.69760  Biso   1.000  O
  O64      1.0000 0.70168  0.17123  0.88646  Biso   1.000  O
  H61      1.0000 0.72990  0.18890  0.96430  Biso   1.000  H
  H62      1.0000 0.63490  0.17760  0.89440  Biso   1.000  H
  H63      1.0000 0.68760  0.94900  0.11700  Biso   1.000  H
  H64      1.0000 0.63690  0.02300  0.09710  Biso   1.000  H
  Ru1      1.0000 0.00000  0.50000  0.48603  Biso   1.000  Ru
  Ru2      1.0000 0.00000  0.50000  0.69584  Biso   1.000  Ru
  Cl1      1.0000 0.00000  0.50000  0.25026  Biso   1.000  Cl
  Ru3      1.0000 0.00000  0.00000  0.98603  Biso   1.000  Ru
  Ru4      1.0000 0.00000  0.00000  0.19584  Biso   1.000  Ru
  Cl2      1.0000 0.00000  0.00000  0.75026  Biso   1.000  Cl
  Ru5      1.0000 0.50000  0.50000  0.98603  Biso   1.000  Ru
  Ru6      1.0000 0.50000  0.50000  0.19584  Biso   1.000  Ru
  Cl3      1.0000 0.50000  0.50000  0.75026  Biso   1.000  Cl
  Ru7      1.0000 0.50000  0.00000  0.48603  Biso   1.000  Ru
  Ru8      1.0000 0.50000  0.00000  0.69584  Biso   1.000  Ru
  Cl4      1.0000 0.50000  0.00000  0.25026  Biso   1.000  Cl
  Mg1      1.0000 0.75000  0.75000  0.74120  Biso   1.000  Mg
  Mg2      1.0000 0.75000  0.25000  0.24120  Biso   1.000  Mg
  Mg3      1.0000 0.25000  0.25000  0.74120  Biso   1.000  Mg
  Mg4      1.0000 0.25000  0.75000  0.24120  Biso   1.000  Mg
  Mg5      1.0000 0.75000  0.25000  0.74120  Biso   1.000  Mg
  Mg6      1.0000 0.75000  0.75000  0.24120  Biso   1.000  Mg
  Mg7      1.0000 0.25000  0.75000  0.74120  Biso   1.000  Mg
  Mg8      1.0000 0.25000  0.25000  0.24120  Biso   1.000  Mg
  K1       1.0000 0.75552  0.50000  0.84080  Biso   1.000  K
  O65      1.0000 0.80990  0.50000  0.09050  Biso   1.000  O
  K2       1.0000 0.75552  0.00000  0.34080  Biso   1.000  K
  O66      1.0000 0.80990  0.00000  0.59050  Biso   1.000  O
  K3       1.0000 0.25552  0.50000  0.34080  Biso   1.000  K
  O67      1.0000 0.30990  0.50000  0.59050  Biso   1.000  O
  K4       1.0000 0.25552  0.00000  0.84080  Biso   1.000  K
  O68      1.0000 0.30990  0.00000  0.09050  Biso   1.000  O
  K5       1.0000 0.24448  0.50000  0.84080  Biso   1.000  K
  O69      1.0000 0.19010  0.50000  0.09050  Biso   1.000  O
  K6       1.0000 0.24448  0.00000  0.34080  Biso   1.000  K
  O70      1.0000 0.19010  0.00000  0.59050  Biso   1.000  O
  K7       1.0000 0.74448  0.50000  0.34080  Biso   1.000  K
  O71      1.0000 0.69010  0.50000  0.59050  Biso   1.000  O
  K8       1.0000 0.74448  0.00000  0.84080  Biso   1.000  K
  O72      1.0000 0.69010  0.00000  0.09050  Biso   1.000  O
