data_image0
_cell_length_a       20.505
_cell_length_b       10.3482
_cell_length_c       29.521
_cell_angle_alpha    90
_cell_angle_beta     113.518
_cell_angle_gamma    90

_symmetry_space_group_name_H-M    "P 1"
_symmetry_int_tables_number       1

loop_
  _symmetry_equiv_pos_as_xyz
  'x, y, z'

loop_
  _atom_site_label
  _atom_site_occupancy
  _atom_site_fract_x
  _atom_site_fract_y
  _atom_site_fract_z
  _atom_site_thermal_displace_type
  _atom_site_B_iso_or_equiv
  _atom_site_type_symbol
  Ni1      1.0000 0.33655  0.67752  0.16392  Biso   1.000  Ni
  O1       1.0000 0.25070  0.79490  0.14907  Biso   1.000  O
  O2       1.0000 0.30320  0.98480  0.17180  Biso   1.000  O
  O3       1.0000 0.15520  0.16270  0.26472  Biso   1.000  O
  O4       1.0000 0.03950  0.19860  0.21910  Biso   1.000  O
  O5       1.0000 0.08610  0.66780  0.90060  Biso   1.000  O
  O6       1.0000 0.16890  0.81260  0.90705  Biso   1.000  O
  O7       1.0000 0.40900  0.83730  0.18528  Biso   1.000  O
  N1       1.0000 0.26500  0.52630  0.13960  Biso   1.000  N
  C1       1.0000 0.24950  0.91240  0.15690  Biso   1.000  C
  C2       1.0000 0.17800  0.97060  0.14760  Biso   1.000  C
  C3       1.0000 0.17120  0.03290  0.18710  Biso   1.000  C
  H1       1.0000 0.21050  0.03870  0.21710  Biso   1.000  H
  C4       1.0000 0.10680  0.08690  0.18290  Biso   1.000  C
  C5       1.0000 0.10010  0.15460  0.22580  Biso   1.000  C
  C6       1.0000 0.04990  0.07890  0.13650  Biso   1.000  C
  H2       1.0000 0.00700  0.11750  0.13240  Biso   1.000  H
  C7       1.0000 0.05490  0.01760  0.09760  Biso   1.000  C
  H3       1.0000 0.01550  0.01260  0.06770  Biso   1.000  H
  C8       1.0000 0.11990  0.96120  0.10250  Biso   1.000  C
  C9       1.0000 0.12480  0.89680  0.05880  Biso   1.000  C
  C10      1.0000 0.18130  0.92790  0.04530  Biso   1.000  C
  H4       1.0000 0.21740  0.98330  0.06460  Biso   1.000  H
  C11      1.0000 0.18210  0.87530  0.00310  Biso   1.000  C
  H5       1.0000 0.22050  0.89450  0.99510  Biso   1.000  H
  C12      1.0000 0.13000  0.79580  0.97180  Biso   1.000  C
  C13      1.0000 0.12890  0.75430  0.92330  Biso   1.000  C
  C14      1.0000 0.07740  0.76050  0.98740  Biso   1.000  C
  H6       1.0000 0.04300  0.70110  0.96900  Biso   1.000  H
  C15      1.0000 0.07460  0.81190  0.02990  Biso   1.000  C
  H7       1.0000 0.03780  0.78800  0.03900  Biso   1.000  H
  C16      1.0000 0.27660  0.41640  0.16380  Biso   1.000  C
  H8       1.0000 0.31580  0.41160  0.19390  Biso   1.000  H
  C17      1.0000 0.23620  0.31170  0.14850  Biso   1.000  C
  H9       1.0000 0.24680  0.23520  0.16650  Biso   1.000  H
  C18      1.0000 0.17880  0.32220  0.10520  Biso   1.000  C
  H10      1.0000 0.14890  0.25110  0.09390  Biso   1.000  H
  C19      1.0000 0.16220  0.43380  0.07690  Biso   1.000  C
  H11      1.0000 0.12270  0.44120  0.04720  Biso   1.000  H
  C20      1.0000 0.21010  0.53270  0.09690  Biso   1.000  C
  H12      1.0000 0.20320  0.60920  0.07910  Biso   1.000  H
  C21      1.0000 0.55860  0.95420  0.17990  Biso   1.000  C
  H13      1.0000 0.54310  0.87640  0.16330  Biso   1.000  H
  C22      1.0000 0.59810  0.05400  0.16290  Biso   1.000  C
  H14      1.0000 0.61740  0.03060  0.14030  Biso   1.000  H
  C23      1.0000 0.61500  0.17500  0.22470  Biso   1.000  C
  H15      1.0000 0.64690  0.23420  0.24570  Biso   1.000  H
  C24      1.0000 0.57660  0.08530  0.24540  Biso   1.000  C
  H16      1.0000 0.57410  0.10210  0.27560  Biso   1.000  H
  C25      1.0000 0.60540  0.17250  0.17990  Biso   1.000  C
  H17      1.0000 0.60360  0.24570  0.16120  Biso   1.000  H
  N2       1.0000 0.54740  0.98510  0.22030  Biso   1.000  N
  H18      1.0000 0.38100  0.89800  0.18600  Biso   1.000  H
  H19      1.0000 0.40900  0.81700  0.15730  Biso   1.000  H
  C26      1.0000 0.50850  0.09540  0.19910  Biso   1.000  C
  H20      1.0000 0.46310  0.10650  0.19840  Biso   1.000  H
  C27      1.0000 0.53750  0.18910  0.17890  Biso   1.000  C
  H21      1.0000 0.51150  0.26290  0.16470  Biso   1.000  H
  H22      1.0000 0.62480  0.23530  0.16640  Biso   1.000  H
  C28      1.0000 0.64420  0.06220  0.20120  Biso   1.000  C
  H23      1.0000 0.68960  0.05110  0.20180  Biso   1.000  H
  C29      1.0000 0.61520  0.96850  0.22130  Biso   1.000  C
  H24      1.0000 0.64120  0.89470  0.23550  Biso   1.000  H
  Ni2      1.0000 0.83655  0.17752  0.16392  Biso   1.000  Ni
  O8       1.0000 0.75070  0.29490  0.14907  Biso   1.000  O
  O9       1.0000 0.80320  0.48480  0.17180  Biso   1.000  O
  O10      1.0000 0.65520  0.66270  0.26472  Biso   1.000  O
  O11      1.0000 0.53950  0.69860  0.21910  Biso   1.000  O
  O12      1.0000 0.58610  0.16780  0.90060  Biso   1.000  O
  O13      1.0000 0.66890  0.31260  0.90705  Biso   1.000  O
  O14      1.0000 0.90900  0.33730  0.18528  Biso   1.000  O
  N3       1.0000 0.76500  0.02630  0.13960  Biso   1.000  N
  C30      1.0000 0.74950  0.41240  0.15690  Biso   1.000  C
  C31      1.0000 0.67800  0.47060  0.14760  Biso   1.000  C
  C32      1.0000 0.67120  0.53290  0.18710  Biso   1.000  C
  H25      1.0000 0.71050  0.53870  0.21710  Biso   1.000  H
  C33      1.0000 0.60680  0.58690  0.18290  Biso   1.000  C
  C34      1.0000 0.60010  0.65460  0.22580  Biso   1.000  C
  C35      1.0000 0.54990  0.57890  0.13650  Biso   1.000  C
  H26      1.0000 0.50700  0.61750  0.13240  Biso   1.000  H
  C36      1.0000 0.55490  0.51760  0.09760  Biso   1.000  C
  H27      1.0000 0.51550  0.51260  0.06770  Biso   1.000  H
  C37      1.0000 0.61990  0.46120  0.10250  Biso   1.000  C
  C38      1.0000 0.62480  0.39680  0.05880  Biso   1.000  C
  C39      1.0000 0.68130  0.42790  0.04530  Biso   1.000  C
  H28      1.0000 0.71740  0.48330  0.06460  Biso   1.000  H
  C40      1.0000 0.68210  0.37530  0.00310  Biso   1.000  C
  H29      1.0000 0.72050  0.39450  0.99510  Biso   1.000  H
  C41      1.0000 0.63000  0.29580  0.97180  Biso   1.000  C
  C42      1.0000 0.62890  0.25430  0.92330  Biso   1.000  C
  C43      1.0000 0.57740  0.26050  0.98740  Biso   1.000  C
  H30      1.0000 0.54300  0.20110  0.96900  Biso   1.000  H
  C44      1.0000 0.57460  0.31190  0.02990  Biso   1.000  C
  H31      1.0000 0.53780  0.28800  0.03900  Biso   1.000  H
  C45      1.0000 0.77660  0.91640  0.16380  Biso   1.000  C
  H32      1.0000 0.81580  0.91160  0.19390  Biso   1.000  H
  C46      1.0000 0.73620  0.81170  0.14850  Biso   1.000  C
  H33      1.0000 0.74680  0.73520  0.16650  Biso   1.000  H
  C47      1.0000 0.67880  0.82220  0.10520  Biso   1.000  C
  H34      1.0000 0.64890  0.75110  0.09390  Biso   1.000  H
  C48      1.0000 0.66220  0.93380  0.07690  Biso   1.000  C
  H35      1.0000 0.62270  0.94120  0.04720  Biso   1.000  H
  C49      1.0000 0.71010  0.03270  0.09690  Biso   1.000  C
  H36      1.0000 0.70320  0.10920  0.07910  Biso   1.000  H
  C50      1.0000 0.05860  0.45420  0.17990  Biso   1.000  C
  H37      1.0000 0.04310  0.37640  0.16330  Biso   1.000  H
  C51      1.0000 0.09810  0.55400  0.16290  Biso   1.000  C
  H38      1.0000 0.11740  0.53060  0.14030  Biso   1.000  H
  C52      1.0000 0.11500  0.67500  0.22470  Biso   1.000  C
  H39      1.0000 0.14690  0.73420  0.24570  Biso   1.000  H
  C53      1.0000 0.07660  0.58530  0.24540  Biso   1.000  C
  H40      1.0000 0.07410  0.60210  0.27560  Biso   1.000  H
  C54      1.0000 0.10540  0.67250  0.17990  Biso   1.000  C
  H41      1.0000 0.10360  0.74570  0.16120  Biso   1.000  H
  N4       1.0000 0.04740  0.48510  0.22030  Biso   1.000  N
  H42      1.0000 0.88100  0.39800  0.18600  Biso   1.000  H
  H43      1.0000 0.90900  0.31700  0.15730  Biso   1.000  H
  C55      1.0000 0.00850  0.59540  0.19910  Biso   1.000  C
  H44      1.0000 0.96310  0.60650  0.19840  Biso   1.000  H
  C56      1.0000 0.03750  0.68910  0.17890  Biso   1.000  C
  H45      1.0000 0.01150  0.76290  0.16470  Biso   1.000  H
  H46      1.0000 0.12480  0.73530  0.16640  Biso   1.000  H
  C57      1.0000 0.14420  0.56220  0.20120  Biso   1.000  C
  H47      1.0000 0.18960  0.55110  0.20180  Biso   1.000  H
  C58      1.0000 0.11520  0.46850  0.22130  Biso   1.000  C
  H48      1.0000 0.14120  0.39470  0.23550  Biso   1.000  H
  Ni3      1.0000 0.66345  0.67752  0.33608  Biso   1.000  Ni
  O15      1.0000 0.74930  0.79490  0.35093  Biso   1.000  O
  O16      1.0000 0.69680  0.98480  0.32820  Biso   1.000  O
  O17      1.0000 0.84480  0.16270  0.23528  Biso   1.000  O
  O18      1.0000 0.96050  0.19860  0.28090  Biso   1.000  O
  O19      1.0000 0.91390  0.66780  0.59940  Biso   1.000  O
  O20      1.0000 0.83110  0.81260  0.59295  Biso   1.000  O
  O21      1.0000 0.59100  0.83730  0.31472  Biso   1.000  O
  N5       1.0000 0.73500  0.52630  0.36040  Biso   1.000  N
  C59      1.0000 0.75050  0.91240  0.34310  Biso   1.000  C
  C60      1.0000 0.82200  0.97060  0.35240  Biso   1.000  C
  C61      1.0000 0.82880  0.03290  0.31290  Biso   1.000  C
  H49      1.0000 0.78950  0.03870  0.28290  Biso   1.000  H
  C62      1.0000 0.89320  0.08690  0.31710  Biso   1.000  C
  C63      1.0000 0.89990  0.15460  0.27420  Biso   1.000  C
  C64      1.0000 0.95010  0.07890  0.36350  Biso   1.000  C
  H50      1.0000 0.99300  0.11750  0.36760  Biso   1.000  H
  C65      1.0000 0.94510  0.01760  0.40240  Biso   1.000  C
  H51      1.0000 0.98450  0.01260  0.43230  Biso   1.000  H
  C66      1.0000 0.88010  0.96120  0.39750  Biso   1.000  C
  C67      1.0000 0.87520  0.89680  0.44120  Biso   1.000  C
  C68      1.0000 0.81870  0.92790  0.45470  Biso   1.000  C
  H52      1.0000 0.78260  0.98330  0.43540  Biso   1.000  H
  C69      1.0000 0.81790  0.87530  0.49690  Biso   1.000  C
  H53      1.0000 0.77950  0.89450  0.50490  Biso   1.000  H
  C70      1.0000 0.87000  0.79580  0.52820  Biso   1.000  C
  C71      1.0000 0.87110  0.75430  0.57670  Biso   1.000  C
  C72      1.0000 0.92260  0.76050  0.51260  Biso   1.000  C
  H54      1.0000 0.95700  0.70110  0.53100  Biso   1.000  H
  C73      1.0000 0.92540  0.81190  0.47010  Biso   1.000  C
  H55      1.0000 0.96220  0.78800  0.46100  Biso   1.000  H
  C74      1.0000 0.72340  0.41640  0.33620  Biso   1.000  C
  H56      1.0000 0.68420  0.41160  0.30610  Biso   1.000  H
  C75      1.0000 0.76380  0.31170  0.35150  Biso   1.000  C
  H57      1.0000 0.75320  0.23520  0.33350  Biso   1.000  H
  C76      1.0000 0.82120  0.32220  0.39480  Biso   1.000  C
  H58      1.0000 0.85110  0.25110  0.40610  Biso   1.000  H
  C77      1.0000 0.83780  0.43380  0.42310  Biso   1.000  C
  H59      1.0000 0.87730  0.44120  0.45280  Biso   1.000  H
  C78      1.0000 0.78990  0.53270  0.40310  Biso   1.000  C
  H60      1.0000 0.79680  0.60920  0.42090  Biso   1.000  H
  C79      1.0000 0.44140  0.95420  0.32010  Biso   1.000  C
  H61      1.0000 0.45690  0.87640  0.33670  Biso   1.000  H
  C80      1.0000 0.40190  0.05400  0.33710  Biso   1.000  C
  H62      1.0000 0.38260  0.03060  0.35970  Biso   1.000  H
  C81      1.0000 0.38500  0.17500  0.27530  Biso   1.000  C
  H63      1.0000 0.35310  0.23420  0.25430  Biso   1.000  H
  C82      1.0000 0.42340  0.08530  0.25460  Biso   1.000  C
  H64      1.0000 0.42590  0.10210  0.22440  Biso   1.000  H
  C83      1.0000 0.39460  0.17250  0.32010  Biso   1.000  C
  H65      1.0000 0.39640  0.24570  0.33880  Biso   1.000  H
  N6       1.0000 0.45260  0.98510  0.27970  Biso   1.000  N
  H66      1.0000 0.61900  0.89800  0.31400  Biso   1.000  H
  H67      1.0000 0.59100  0.81700  0.34270  Biso   1.000  H
  C84      1.0000 0.49150  0.09540  0.30090  Biso   1.000  C
  H68      1.0000 0.53690  0.10650  0.30160  Biso   1.000  H
  C85      1.0000 0.46250  0.18910  0.32110  Biso   1.000  C
  H69      1.0000 0.48850  0.26290  0.33530  Biso   1.000  H
  H70      1.0000 0.37520  0.23530  0.33360  Biso   1.000  H
  C86      1.0000 0.35580  0.06220  0.29880  Biso   1.000  C
  H71      1.0000 0.31040  0.05110  0.29820  Biso   1.000  H
  C87      1.0000 0.38480  0.96850  0.27870  Biso   1.000  C
  H72      1.0000 0.35880  0.89470  0.26450  Biso   1.000  H
  Ni4      1.0000 0.16345  0.17752  0.33608  Biso   1.000  Ni
  O22      1.0000 0.24930  0.29490  0.35093  Biso   1.000  O
  O23      1.0000 0.19680  0.48480  0.32820  Biso   1.000  O
  O24      1.0000 0.34480  0.66270  0.23528  Biso   1.000  O
  O25      1.0000 0.46050  0.69860  0.28090  Biso   1.000  O
  O26      1.0000 0.41390  0.16780  0.59940  Biso   1.000  O
  O27      1.0000 0.33110  0.31260  0.59295  Biso   1.000  O
  O28      1.0000 0.09100  0.33730  0.31472  Biso   1.000  O
  N7       1.0000 0.23500  0.02630  0.36040  Biso   1.000  N
  C88      1.0000 0.25050  0.41240  0.34310  Biso   1.000  C
  C89      1.0000 0.32200  0.47060  0.35240  Biso   1.000  C
  C90      1.0000 0.32880  0.53290  0.31290  Biso   1.000  C
  H73      1.0000 0.28950  0.53870  0.28290  Biso   1.000  H
  C91      1.0000 0.39320  0.58690  0.31710  Biso   1.000  C
  C92      1.0000 0.39990  0.65460  0.27420  Biso   1.000  C
  C93      1.0000 0.45010  0.57890  0.36350  Biso   1.000  C
  H74      1.0000 0.49300  0.61750  0.36760  Biso   1.000  H
  C94      1.0000 0.44510  0.51760  0.40240  Biso   1.000  C
  H75      1.0000 0.48450  0.51260  0.43230  Biso   1.000  H
  C95      1.0000 0.38010  0.46120  0.39750  Biso   1.000  C
  C96      1.0000 0.37520  0.39680  0.44120  Biso   1.000  C
  C97      1.0000 0.31870  0.42790  0.45470  Biso   1.000  C
  H76      1.0000 0.28260  0.48330  0.43540  Biso   1.000  H
  C98      1.0000 0.31790  0.37530  0.49690  Biso   1.000  C
  H77      1.0000 0.27950  0.39450  0.50490  Biso   1.000  H
  C99      1.0000 0.37000  0.29580  0.52820  Biso   1.000  C
  C100     1.0000 0.37110  0.25430  0.57670  Biso   1.000  C
  C101     1.0000 0.42260  0.26050  0.51260  Biso   1.000  C
  H78      1.0000 0.45700  0.20110  0.53100  Biso   1.000  H
  C102     1.0000 0.42540  0.31190  0.47010  Biso   1.000  C
  H79      1.0000 0.46220  0.28800  0.46100  Biso   1.000  H
  C103     1.0000 0.22340  0.91640  0.33620  Biso   1.000  C
  H80      1.0000 0.18420  0.91160  0.30610  Biso   1.000  H
  C104     1.0000 0.26380  0.81170  0.35150  Biso   1.000  C
  H81      1.0000 0.25320  0.73520  0.33350  Biso   1.000  H
  C105     1.0000 0.32120  0.82220  0.39480  Biso   1.000  C
  H82      1.0000 0.35110  0.75110  0.40610  Biso   1.000  H
  C106     1.0000 0.33780  0.93380  0.42310  Biso   1.000  C
  H83      1.0000 0.37730  0.94120  0.45280  Biso   1.000  H
  C107     1.0000 0.28990  0.03270  0.40310  Biso   1.000  C
  H84      1.0000 0.29680  0.10920  0.42090  Biso   1.000  H
  C108     1.0000 0.94140  0.45420  0.32010  Biso   1.000  C
  H85      1.0000 0.95690  0.37640  0.33670  Biso   1.000  H
  C109     1.0000 0.90190  0.55400  0.33710  Biso   1.000  C
  H86      1.0000 0.88260  0.53060  0.35970  Biso   1.000  H
  C110     1.0000 0.88500  0.67500  0.27530  Biso   1.000  C
  H87      1.0000 0.85310  0.73420  0.25430  Biso   1.000  H
  C111     1.0000 0.92340  0.58530  0.25460  Biso   1.000  C
  H88      1.0000 0.92590  0.60210  0.22440  Biso   1.000  H
  C112     1.0000 0.89460  0.67250  0.32010  Biso   1.000  C
  H89      1.0000 0.89640  0.74570  0.33880  Biso   1.000  H
  N8       1.0000 0.95260  0.48510  0.27970  Biso   1.000  N
  H90      1.0000 0.11900  0.39800  0.31400  Biso   1.000  H
  H91      1.0000 0.09100  0.31700  0.34270  Biso   1.000  H
  C113     1.0000 0.99150  0.59540  0.30090  Biso   1.000  C
  H92      1.0000 0.03690  0.60650  0.30160  Biso   1.000  H
  C114     1.0000 0.96250  0.68910  0.32110  Biso   1.000  C
  H93      1.0000 0.98850  0.76290  0.33530  Biso   1.000  H
  H94      1.0000 0.87520  0.73530  0.33360  Biso   1.000  H
  C115     1.0000 0.85580  0.56220  0.29880  Biso   1.000  C
  H95      1.0000 0.81040  0.55110  0.29820  Biso   1.000  H
  C116     1.0000 0.88480  0.46850  0.27870  Biso   1.000  C
  H96      1.0000 0.85880  0.39470  0.26450  Biso   1.000  H
  Ni5      1.0000 0.66345  0.32248  0.83608  Biso   1.000  Ni
  O29      1.0000 0.74930  0.20510  0.85093  Biso   1.000  O
  O30      1.0000 0.69680  0.01520  0.82820  Biso   1.000  O
  O31      1.0000 0.84480  0.83730  0.73528  Biso   1.000  O
  O32      1.0000 0.96050  0.80140  0.78090  Biso   1.000  O
  O33      1.0000 0.91390  0.33220  0.09940  Biso   1.000  O
  O34      1.0000 0.83110  0.18740  0.09295  Biso   1.000  O
  O35      1.0000 0.59100  0.16270  0.81472  Biso   1.000  O
  N9       1.0000 0.73500  0.47370  0.86040  Biso   1.000  N
  C117     1.0000 0.75050  0.08760  0.84310  Biso   1.000  C
  C118     1.0000 0.82200  0.02940  0.85240  Biso   1.000  C
  C119     1.0000 0.82880  0.96710  0.81290  Biso   1.000  C
  H97      1.0000 0.78950  0.96130  0.78290  Biso   1.000  H
  C120     1.0000 0.89320  0.91310  0.81710  Biso   1.000  C
  C121     1.0000 0.89990  0.84540  0.77420  Biso   1.000  C
  C122     1.0000 0.95010  0.92110  0.86350  Biso   1.000  C
  H98      1.0000 0.99300  0.88250  0.86760  Biso   1.000  H
  C123     1.0000 0.94510  0.98240  0.90240  Biso   1.000  C
  H99      1.0000 0.98450  0.98740  0.93230  Biso   1.000  H
  C124     1.0000 0.88010  0.03880  0.89750  Biso   1.000  C
  C125     1.0000 0.87520  0.10320  0.94120  Biso   1.000  C
  C126     1.0000 0.81870  0.07210  0.95470  Biso   1.000  C
  H100     1.0000 0.78260  0.01670  0.93540  Biso   1.000  H
  C127     1.0000 0.81790  0.12470  0.99690  Biso   1.000  C
  H101     1.0000 0.77950  0.10550  0.00490  Biso   1.000  H
  C128     1.0000 0.87000  0.20420  0.02820  Biso   1.000  C
  C129     1.0000 0.87110  0.24570  0.07670  Biso   1.000  C
  C130     1.0000 0.92260  0.23950  0.01260  Biso   1.000  C
  H102     1.0000 0.95700  0.29890  0.03100  Biso   1.000  H
  C131     1.0000 0.92540  0.18810  0.97010  Biso   1.000  C
  H103     1.0000 0.96220  0.21200  0.96100  Biso   1.000  H
  C132     1.0000 0.72340  0.58360  0.83620  Biso   1.000  C
  H104     1.0000 0.68420  0.58840  0.80610  Biso   1.000  H
  C133     1.0000 0.76380  0.68830  0.85150  Biso   1.000  C
  H105     1.0000 0.75320  0.76480  0.83350  Biso   1.000  H
  C134     1.0000 0.82120  0.67780  0.89480  Biso   1.000  C
  H106     1.0000 0.85110  0.74890  0.90610  Biso   1.000  H
  C135     1.0000 0.83780  0.56620  0.92310  Biso   1.000  C
  H107     1.0000 0.87730  0.55880  0.95280  Biso   1.000  H
  C136     1.0000 0.78990  0.46730  0.90310  Biso   1.000  C
  H108     1.0000 0.79680  0.39080  0.92090  Biso   1.000  H
  C137     1.0000 0.44140  0.04580  0.82010  Biso   1.000  C
  H109     1.0000 0.45690  0.12360  0.83670  Biso   1.000  H
  C138     1.0000 0.40190  0.94600  0.83710  Biso   1.000  C
  H110     1.0000 0.38260  0.96940  0.85970  Biso   1.000  H
  C139     1.0000 0.38500  0.82500  0.77530  Biso   1.000  C
  H111     1.0000 0.35310  0.76580  0.75430  Biso   1.000  H
  C140     1.0000 0.42340  0.91470  0.75460  Biso   1.000  C
  H112     1.0000 0.42590  0.89790  0.72440  Biso   1.000  H
  C141     1.0000 0.39460  0.82750  0.82010  Biso   1.000  C
  H113     1.0000 0.39640  0.75430  0.83880  Biso   1.000  H
  N10      1.0000 0.45260  0.01490  0.77970  Biso   1.000  N
  H114     1.0000 0.61900  0.10200  0.81400  Biso   1.000  H
  H115     1.0000 0.59100  0.18300  0.84270  Biso   1.000  H
  C142     1.0000 0.49150  0.90460  0.80090  Biso   1.000  C
  H116     1.0000 0.53690  0.89350  0.80160  Biso   1.000  H
  C143     1.0000 0.46250  0.81090  0.82110  Biso   1.000  C
  H117     1.0000 0.48850  0.73710  0.83530  Biso   1.000  H
  H118     1.0000 0.37520  0.76470  0.83360  Biso   1.000  H
  C144     1.0000 0.35580  0.93780  0.79880  Biso   1.000  C
  H119     1.0000 0.31040  0.94890  0.79820  Biso   1.000  H
  C145     1.0000 0.38480  0.03150  0.77870  Biso   1.000  C
  H120     1.0000 0.35880  0.10530  0.76450  Biso   1.000  H
  Ni6      1.0000 0.16345  0.82248  0.83608  Biso   1.000  Ni
  O36      1.0000 0.24930  0.70510  0.85093  Biso   1.000  O
  O37      1.0000 0.19680  0.51520  0.82820  Biso   1.000  O
  O38      1.0000 0.34480  0.33730  0.73528  Biso   1.000  O
  O39      1.0000 0.46050  0.30140  0.78090  Biso   1.000  O
  O40      1.0000 0.41390  0.83220  0.09940  Biso   1.000  O
  O41      1.0000 0.33110  0.68740  0.09295  Biso   1.000  O
  O42      1.0000 0.09100  0.66270  0.81472  Biso   1.000  O
  N11      1.0000 0.23500  0.97370  0.86040  Biso   1.000  N
  C146     1.0000 0.25050  0.58760  0.84310  Biso   1.000  C
  C147     1.0000 0.32200  0.52940  0.85240  Biso   1.000  C
  C148     1.0000 0.32880  0.46710  0.81290  Biso   1.000  C
  H121     1.0000 0.28950  0.46130  0.78290  Biso   1.000  H
  C149     1.0000 0.39320  0.41310  0.81710  Biso   1.000  C
  C150     1.0000 0.39990  0.34540  0.77420  Biso   1.000  C
  C151     1.0000 0.45010  0.42110  0.86350  Biso   1.000  C
  H122     1.0000 0.49300  0.38250  0.86760  Biso   1.000  H
  C152     1.0000 0.44510  0.48240  0.90240  Biso   1.000  C
  H123     1.0000 0.48450  0.48740  0.93230  Biso   1.000  H
  C153     1.0000 0.38010  0.53880  0.89750  Biso   1.000  C
  C154     1.0000 0.37520  0.60320  0.94120  Biso   1.000  C
  C155     1.0000 0.31870  0.57210  0.95470  Biso   1.000  C
  H124     1.0000 0.28260  0.51670  0.93540  Biso   1.000  H
  C156     1.0000 0.31790  0.62470  0.99690  Biso   1.000  C
  H125     1.0000 0.27950  0.60550  0.00490  Biso   1.000  H
  C157     1.0000 0.37000  0.70420  0.02820  Biso   1.000  C
  C158     1.0000 0.37110  0.74570  0.07670  Biso   1.000  C
  C159     1.0000 0.42260  0.73950  0.01260  Biso   1.000  C
  H126     1.0000 0.45700  0.79890  0.03100  Biso   1.000  H
  C160     1.0000 0.42540  0.68810  0.97010  Biso   1.000  C
  H127     1.0000 0.46220  0.71200  0.96100  Biso   1.000  H
  C161     1.0000 0.22340  0.08360  0.83620  Biso   1.000  C
  H128     1.0000 0.18420  0.08840  0.80610  Biso   1.000  H
  C162     1.0000 0.26380  0.18830  0.85150  Biso   1.000  C
  H129     1.0000 0.25320  0.26480  0.83350  Biso   1.000  H
  C163     1.0000 0.32120  0.17780  0.89480  Biso   1.000  C
  H130     1.0000 0.35110  0.24890  0.90610  Biso   1.000  H
  C164     1.0000 0.33780  0.06620  0.92310  Biso   1.000  C
  H131     1.0000 0.37730  0.05880  0.95280  Biso   1.000  H
  C165     1.0000 0.28990  0.96730  0.90310  Biso   1.000  C
  H132     1.0000 0.29680  0.89080  0.92090  Biso   1.000  H
  C166     1.0000 0.94140  0.54580  0.82010  Biso   1.000  C
  H133     1.0000 0.95690  0.62360  0.83670  Biso   1.000  H
  C167     1.0000 0.90190  0.44600  0.83710  Biso   1.000  C
  H134     1.0000 0.88260  0.46940  0.85970  Biso   1.000  H
  C168     1.0000 0.88500  0.32500  0.77530  Biso   1.000  C
  H135     1.0000 0.85310  0.26580  0.75430  Biso   1.000  H
  C169     1.0000 0.92340  0.41470  0.75460  Biso   1.000  C
  H136     1.0000 0.92590  0.39790  0.72440  Biso   1.000  H
  C170     1.0000 0.89460  0.32750  0.82010  Biso   1.000  C
  H137     1.0000 0.89640  0.25430  0.83880  Biso   1.000  H
  N12      1.0000 0.95260  0.51490  0.77970  Biso   1.000  N
  H138     1.0000 0.11900  0.60200  0.81400  Biso   1.000  H
  H139     1.0000 0.09100  0.68300  0.84270  Biso   1.000  H
  C171     1.0000 0.99150  0.40460  0.80090  Biso   1.000  C
  H140     1.0000 0.03690  0.39350  0.80160  Biso   1.000  H
  C172     1.0000 0.96250  0.31090  0.82110  Biso   1.000  C
  H141     1.0000 0.98850  0.23710  0.83530  Biso   1.000  H
  H142     1.0000 0.87520  0.26470  0.83360  Biso   1.000  H
  C173     1.0000 0.85580  0.43780  0.79880  Biso   1.000  C
  H143     1.0000 0.81040  0.44890  0.79820  Biso   1.000  H
  C174     1.0000 0.88480  0.53150  0.77870  Biso   1.000  C
  H144     1.0000 0.85880  0.60530  0.76450  Biso   1.000  H
  Ni7      1.0000 0.33655  0.32248  0.66392  Biso   1.000  Ni
  O43      1.0000 0.25070  0.20510  0.64907  Biso   1.000  O
  O44      1.0000 0.30320  0.01520  0.67180  Biso   1.000  O
  O45      1.0000 0.15520  0.83730  0.76472  Biso   1.000  O
  O46      1.0000 0.03950  0.80140  0.71910  Biso   1.000  O
  O47      1.0000 0.08610  0.33220  0.40060  Biso   1.000  O
  O48      1.0000 0.16890  0.18740  0.40705  Biso   1.000  O
  O49      1.0000 0.40900  0.16270  0.68528  Biso   1.000  O
  N13      1.0000 0.26500  0.47370  0.63960  Biso   1.000  N
  C175     1.0000 0.24950  0.08760  0.65690  Biso   1.000  C
  C176     1.0000 0.17800  0.02940  0.64760  Biso   1.000  C
  C177     1.0000 0.17120  0.96710  0.68710  Biso   1.000  C
  H145     1.0000 0.21050  0.96130  0.71710  Biso   1.000  H
  C178     1.0000 0.10680  0.91310  0.68290  Biso   1.000  C
  C179     1.0000 0.10010  0.84540  0.72580  Biso   1.000  C
  C180     1.0000 0.04990  0.92110  0.63650  Biso   1.000  C
  H146     1.0000 0.00700  0.88250  0.63240  Biso   1.000  H
  C181     1.0000 0.05490  0.98240  0.59760  Biso   1.000  C
  H147     1.0000 0.01550  0.98740  0.56770  Biso   1.000  H
  C182     1.0000 0.11990  0.03880  0.60250  Biso   1.000  C
  C183     1.0000 0.12480  0.10320  0.55880  Biso   1.000  C
  C184     1.0000 0.18130  0.07210  0.54530  Biso   1.000  C
  H148     1.0000 0.21740  0.01670  0.56460  Biso   1.000  H
  C185     1.0000 0.18210  0.12470  0.50310  Biso   1.000  C
  H149     1.0000 0.22050  0.10550  0.49510  Biso   1.000  H
  C186     1.0000 0.13000  0.20420  0.47180  Biso   1.000  C
  C187     1.0000 0.12890  0.24570  0.42330  Biso   1.000  C
  C188     1.0000 0.07740  0.23950  0.48740  Biso   1.000  C
  H150     1.0000 0.04300  0.29890  0.46900  Biso   1.000  H
  C189     1.0000 0.07460  0.18810  0.52990  Biso   1.000  C
  H151     1.0000 0.03780  0.21200  0.53900  Biso   1.000  H
  C190     1.0000 0.27660  0.58360  0.66380  Biso   1.000  C
  H152     1.0000 0.31580  0.58840  0.69390  Biso   1.000  H
  C191     1.0000 0.23620  0.68830  0.64850  Biso   1.000  C
  H153     1.0000 0.24680  0.76480  0.66650  Biso   1.000  H
  C192     1.0000 0.17880  0.67780  0.60520  Biso   1.000  C
  H154     1.0000 0.14890  0.74890  0.59390  Biso   1.000  H
  C193     1.0000 0.16220  0.56620  0.57690  Biso   1.000  C
  H155     1.0000 0.12270  0.55880  0.54720  Biso   1.000  H
  C194     1.0000 0.21010  0.46730  0.59690  Biso   1.000  C
  H156     1.0000 0.20320  0.39080  0.57910  Biso   1.000  H
  C195     1.0000 0.55860  0.04580  0.67990  Biso   1.000  C
  H157     1.0000 0.54310  0.12360  0.66330  Biso   1.000  H
  C196     1.0000 0.59810  0.94600  0.66290  Biso   1.000  C
  H158     1.0000 0.61740  0.96940  0.64030  Biso   1.000  H
  C197     1.0000 0.61500  0.82500  0.72470  Biso   1.000  C
  H159     1.0000 0.64690  0.76580  0.74570  Biso   1.000  H
  C198     1.0000 0.57660  0.91470  0.74540  Biso   1.000  C
  H160     1.0000 0.57410  0.89790  0.77560  Biso   1.000  H
  C199     1.0000 0.60540  0.82750  0.67990  Biso   1.000  C
  H161     1.0000 0.60360  0.75430  0.66120  Biso   1.000  H
  N14      1.0000 0.54740  0.01490  0.72030  Biso   1.000  N
  H162     1.0000 0.38100  0.10200  0.68600  Biso   1.000  H
  H163     1.0000 0.40900  0.18300  0.65730  Biso   1.000  H
  C200     1.0000 0.50850  0.90460  0.69910  Biso   1.000  C
  H164     1.0000 0.46310  0.89350  0.69840  Biso   1.000  H
  C201     1.0000 0.53750  0.81090  0.67890  Biso   1.000  C
  H165     1.0000 0.51150  0.73710  0.66470  Biso   1.000  H
  H166     1.0000 0.62480  0.76470  0.66640  Biso   1.000  H
  C202     1.0000 0.64420  0.93780  0.70120  Biso   1.000  C
  H167     1.0000 0.68960  0.94890  0.70180  Biso   1.000  H
  C203     1.0000 0.61520  0.03150  0.72130  Biso   1.000  C
  H168     1.0000 0.64120  0.10530  0.73550  Biso   1.000  H
  Ni8      1.0000 0.83655  0.82248  0.66392  Biso   1.000  Ni
  O50      1.0000 0.75070  0.70510  0.64907  Biso   1.000  O
  O51      1.0000 0.80320  0.51520  0.67180  Biso   1.000  O
  O52      1.0000 0.65520  0.33730  0.76472  Biso   1.000  O
  O53      1.0000 0.53950  0.30140  0.71910  Biso   1.000  O
  O54      1.0000 0.58610  0.83220  0.40060  Biso   1.000  O
  O55      1.0000 0.66890  0.68740  0.40705  Biso   1.000  O
  O56      1.0000 0.90900  0.66270  0.68528  Biso   1.000  O
  N15      1.0000 0.76500  0.97370  0.63960  Biso   1.000  N
  C204     1.0000 0.74950  0.58760  0.65690  Biso   1.000  C
  C205     1.0000 0.67800  0.52940  0.64760  Biso   1.000  C
  C206     1.0000 0.67120  0.46710  0.68710  Biso   1.000  C
  H169     1.0000 0.71050  0.46130  0.71710  Biso   1.000  H
  C207     1.0000 0.60680  0.41310  0.68290  Biso   1.000  C
  C208     1.0000 0.60010  0.34540  0.72580  Biso   1.000  C
  C209     1.0000 0.54990  0.42110  0.63650  Biso   1.000  C
  H170     1.0000 0.50700  0.38250  0.63240  Biso   1.000  H
  C210     1.0000 0.55490  0.48240  0.59760  Biso   1.000  C
  H171     1.0000 0.51550  0.48740  0.56770  Biso   1.000  H
  C211     1.0000 0.61990  0.53880  0.60250  Biso   1.000  C
  C212     1.0000 0.62480  0.60320  0.55880  Biso   1.000  C
  C213     1.0000 0.68130  0.57210  0.54530  Biso   1.000  C
  H172     1.0000 0.71740  0.51670  0.56460  Biso   1.000  H
  C214     1.0000 0.68210  0.62470  0.50310  Biso   1.000  C
  H173     1.0000 0.72050  0.60550  0.49510  Biso   1.000  H
  C215     1.0000 0.63000  0.70420  0.47180  Biso   1.000  C
  C216     1.0000 0.62890  0.74570  0.42330  Biso   1.000  C
  C217     1.0000 0.57740  0.73950  0.48740  Biso   1.000  C
  H174     1.0000 0.54300  0.79890  0.46900  Biso   1.000  H
  C218     1.0000 0.57460  0.68810  0.52990  Biso   1.000  C
  H175     1.0000 0.53780  0.71200  0.53900  Biso   1.000  H
  C219     1.0000 0.77660  0.08360  0.66380  Biso   1.000  C
  H176     1.0000 0.81580  0.08840  0.69390  Biso   1.000  H
  C220     1.0000 0.73620  0.18830  0.64850  Biso   1.000  C
  H177     1.0000 0.74680  0.26480  0.66650  Biso   1.000  H
  C221     1.0000 0.67880  0.17780  0.60520  Biso   1.000  C
  H178     1.0000 0.64890  0.24890  0.59390  Biso   1.000  H
  C222     1.0000 0.66220  0.06620  0.57690  Biso   1.000  C
  H179     1.0000 0.62270  0.05880  0.54720  Biso   1.000  H
  C223     1.0000 0.71010  0.96730  0.59690  Biso   1.000  C
  H180     1.0000 0.70320  0.89080  0.57910  Biso   1.000  H
  C224     1.0000 0.05860  0.54580  0.67990  Biso   1.000  C
  H181     1.0000 0.04310  0.62360  0.66330  Biso   1.000  H
  C225     1.0000 0.09810  0.44600  0.66290  Biso   1.000  C
  H182     1.0000 0.11740  0.46940  0.64030  Biso   1.000  H
  C226     1.0000 0.11500  0.32500  0.72470  Biso   1.000  C
  H183     1.0000 0.14690  0.26580  0.74570  Biso   1.000  H
  C227     1.0000 0.07660  0.41470  0.74540  Biso   1.000  C
  H184     1.0000 0.07410  0.39790  0.77560  Biso   1.000  H
  C228     1.0000 0.10540  0.32750  0.67990  Biso   1.000  C
  H185     1.0000 0.10360  0.25430  0.66120  Biso   1.000  H
  N16      1.0000 0.04740  0.51490  0.72030  Biso   1.000  N
  H186     1.0000 0.88100  0.60200  0.68600  Biso   1.000  H
  H187     1.0000 0.90900  0.68300  0.65730  Biso   1.000  H
  C229     1.0000 0.00850  0.40460  0.69910  Biso   1.000  C
  H188     1.0000 0.96310  0.39350  0.69840  Biso   1.000  H
  C230     1.0000 0.03750  0.31090  0.67890  Biso   1.000  C
  H189     1.0000 0.01150  0.23710  0.66470  Biso   1.000  H
  H190     1.0000 0.12480  0.26470  0.66640  Biso   1.000  H
  C231     1.0000 0.14420  0.43780  0.70120  Biso   1.000  C
  H191     1.0000 0.18960  0.44890  0.70180  Biso   1.000  H
  C232     1.0000 0.11520  0.53150  0.72130  Biso   1.000  C
  H192     1.0000 0.14120  0.60530  0.73550  Biso   1.000  H
  Ni9      1.0000 0.50000  0.84253  0.25000  Biso   1.000  Ni
  Ni10     1.0000 0.00000  0.34253  0.25000  Biso   1.000  Ni
  Ni11     1.0000 0.50000  0.15747  0.75000  Biso   1.000  Ni
  Ni12     1.0000 0.00000  0.65747  0.75000  Biso   1.000  Ni
