data_image0
_cell_length_a       13.2776
_cell_length_b       22.1202
_cell_length_c       14.269
_cell_angle_alpha    90
_cell_angle_beta     112.54
_cell_angle_gamma    90

_symmetry_space_group_name_H-M    "P 1"
_symmetry_int_tables_number       1

loop_
  _symmetry_equiv_pos_as_xyz
  'x, y, z'

loop_
  _atom_site_label
  _atom_site_occupancy
  _atom_site_fract_x
  _atom_site_fract_y
  _atom_site_fract_z
  _atom_site_thermal_displace_type
  _atom_site_B_iso_or_equiv
  _atom_site_type_symbol
  O1       1.0000 0.60830  0.71337  0.64480  Biso   1.000  O
  O2       1.0000 0.59560  0.78519  0.98260  Biso   1.000  O
  O3       1.0000 0.89840  0.93611  0.86910  Biso   1.000  O
  C1       1.0000 0.64710  0.79950  0.91850  Biso   1.000  C
  O4       1.0000 0.87570  0.93652  0.01510  Biso   1.000  O
  C2       1.0000 0.76030  0.83680  0.80220  Biso   1.000  C
  H1       1.0000 0.79760  0.84960  0.76230  Biso   1.000  H
  C3       1.0000 0.71760  0.84780  0.94950  Biso   1.000  C
  H2       1.0000 0.72690  0.86770  0.00960  Biso   1.000  H
  C4       1.0000 0.77500  0.86690  0.89100  Biso   1.000  C
  C5       1.0000 0.63370  0.76820  0.83040  Biso   1.000  C
  H3       1.0000 0.58780  0.73480  0.81100  Biso   1.000  H
  O5       1.0000 0.73320  0.77590  0.62870  Biso   1.000  O
  C6       1.0000 0.52410  0.73530  0.96000  Biso   1.000  C
  H4       1.0000 0.56350  0.69800  0.96250  Biso   1.000  H
  H5       1.0000 0.46730  0.73950  0.89290  Biso   1.000  H
  C7       1.0000 0.69010  0.78770  0.77170  Biso   1.000  C
  C8       1.0000 0.67590  0.75620  0.67390  Biso   1.000  C
  C9       1.0000 0.85500  0.91730  0.92780  Biso   1.000  C
  N1       1.0000 0.66710  0.81890  0.40790  Biso   1.000  N
  N2       1.0000 0.64200  0.82200  0.44010  Biso   1.000  N
  N3       1.0000 0.56380  0.90000  0.34560  Biso   1.000  N
  C10      1.0000 0.62630  0.85230  0.35620  Biso   1.000  C
  C11      1.0000 0.65770  0.87340  0.43660  Biso   1.000  C
  C12      1.0000 0.60860  0.81590  0.31100  Biso   1.000  C
  C13      1.0000 0.56650  0.84500  0.47860  Biso   1.000  C
  C14      1.0000 0.56000  0.86990  0.27550  Biso   1.000  C
  C15      1.0000 0.50670  0.89120  0.41320  Biso   1.000  C
  C16      1.0000 0.55280  0.96550  0.35680  Biso   1.000  C
  C17      1.0000 0.50710  0.93420  0.25290  Biso   1.000  C
  O6       1.0000 0.10830  0.21337  0.64480  Biso   1.000  O
  O7       1.0000 0.09560  0.28519  0.98260  Biso   1.000  O
  O8       1.0000 0.39840  0.43611  0.86910  Biso   1.000  O
  C18      1.0000 0.14710  0.29950  0.91850  Biso   1.000  C
  O9       1.0000 0.37570  0.43652  0.01510  Biso   1.000  O
  C19      1.0000 0.26030  0.33680  0.80220  Biso   1.000  C
  H6       1.0000 0.29760  0.34960  0.76230  Biso   1.000  H
  C20      1.0000 0.21760  0.34780  0.94950  Biso   1.000  C
  H7       1.0000 0.22690  0.36770  0.00960  Biso   1.000  H
  C21      1.0000 0.27500  0.36690  0.89100  Biso   1.000  C
  C22      1.0000 0.13370  0.26820  0.83040  Biso   1.000  C
  H8       1.0000 0.08780  0.23480  0.81100  Biso   1.000  H
  O10      1.0000 0.23320  0.27590  0.62870  Biso   1.000  O
  C23      1.0000 0.02410  0.23530  0.96000  Biso   1.000  C
  H9       1.0000 0.06350  0.19800  0.96250  Biso   1.000  H
  H10      1.0000 0.96730  0.23950  0.89290  Biso   1.000  H
  C24      1.0000 0.19010  0.28770  0.77170  Biso   1.000  C
  C25      1.0000 0.17590  0.25620  0.67390  Biso   1.000  C
  C26      1.0000 0.35500  0.41730  0.92780  Biso   1.000  C
  N4       1.0000 0.16710  0.31890  0.40790  Biso   1.000  N
  N5       1.0000 0.14200  0.32200  0.44010  Biso   1.000  N
  N6       1.0000 0.06380  0.40000  0.34560  Biso   1.000  N
  C27      1.0000 0.12630  0.35230  0.35620  Biso   1.000  C
  C28      1.0000 0.15770  0.37340  0.43660  Biso   1.000  C
  C29      1.0000 0.10860  0.31590  0.31100  Biso   1.000  C
  C30      1.0000 0.06650  0.34500  0.47860  Biso   1.000  C
  C31      1.0000 0.06000  0.36990  0.27550  Biso   1.000  C
  C32      1.0000 0.00670  0.39120  0.41320  Biso   1.000  C
  C33      1.0000 0.05280  0.46550  0.35680  Biso   1.000  C
  C34      1.0000 0.00710  0.43420  0.25290  Biso   1.000  C
  O11      1.0000 0.39170  0.71337  0.35520  Biso   1.000  O
  O12      1.0000 0.40440  0.78519  0.01740  Biso   1.000  O
  O13      1.0000 0.10160  0.93611  0.13090  Biso   1.000  O
  C35      1.0000 0.35290  0.79950  0.08150  Biso   1.000  C
  O14      1.0000 0.12430  0.93652  0.98490  Biso   1.000  O
  C36      1.0000 0.23970  0.83680  0.19780  Biso   1.000  C
  H11      1.0000 0.20240  0.84960  0.23770  Biso   1.000  H
  C37      1.0000 0.28240  0.84780  0.05050  Biso   1.000  C
  H12      1.0000 0.27310  0.86770  0.99040  Biso   1.000  H
  C38      1.0000 0.22500  0.86690  0.10900  Biso   1.000  C
  C39      1.0000 0.36630  0.76820  0.16960  Biso   1.000  C
  H13      1.0000 0.41220  0.73480  0.18900  Biso   1.000  H
  O15      1.0000 0.26680  0.77590  0.37130  Biso   1.000  O
  C40      1.0000 0.47590  0.73530  0.04000  Biso   1.000  C
  H14      1.0000 0.43650  0.69800  0.03750  Biso   1.000  H
  H15      1.0000 0.53270  0.73950  0.10710  Biso   1.000  H
  C41      1.0000 0.30990  0.78770  0.22830  Biso   1.000  C
  C42      1.0000 0.32410  0.75620  0.32610  Biso   1.000  C
  C43      1.0000 0.14500  0.91730  0.07220  Biso   1.000  C
  N7       1.0000 0.33290  0.81890  0.59210  Biso   1.000  N
  N8       1.0000 0.35800  0.82200  0.55990  Biso   1.000  N
  N9       1.0000 0.43620  0.90000  0.65440  Biso   1.000  N
  C44      1.0000 0.37370  0.85230  0.64380  Biso   1.000  C
  C45      1.0000 0.34230  0.87340  0.56340  Biso   1.000  C
  C46      1.0000 0.39140  0.81590  0.68900  Biso   1.000  C
  C47      1.0000 0.43350  0.84500  0.52140  Biso   1.000  C
  C48      1.0000 0.44000  0.86990  0.72450  Biso   1.000  C
  C49      1.0000 0.49330  0.89120  0.58680  Biso   1.000  C
  C50      1.0000 0.44720  0.96550  0.64320  Biso   1.000  C
  C51      1.0000 0.49290  0.93420  0.74710  Biso   1.000  C
  O16      1.0000 0.89170  0.21337  0.35520  Biso   1.000  O
  O17      1.0000 0.90440  0.28519  0.01740  Biso   1.000  O
  O18      1.0000 0.60160  0.43611  0.13090  Biso   1.000  O
  C52      1.0000 0.85290  0.29950  0.08150  Biso   1.000  C
  O19      1.0000 0.62430  0.43652  0.98490  Biso   1.000  O
  C53      1.0000 0.73970  0.33680  0.19780  Biso   1.000  C
  H16      1.0000 0.70240  0.34960  0.23770  Biso   1.000  H
  C54      1.0000 0.78240  0.34780  0.05050  Biso   1.000  C
  H17      1.0000 0.77310  0.36770  0.99040  Biso   1.000  H
  C55      1.0000 0.72500  0.36690  0.10900  Biso   1.000  C
  C56      1.0000 0.86630  0.26820  0.16960  Biso   1.000  C
  H18      1.0000 0.91220  0.23480  0.18900  Biso   1.000  H
  O20      1.0000 0.76680  0.27590  0.37130  Biso   1.000  O
  C57      1.0000 0.97590  0.23530  0.04000  Biso   1.000  C
  H19      1.0000 0.93650  0.19800  0.03750  Biso   1.000  H
  H20      1.0000 0.03270  0.23950  0.10710  Biso   1.000  H
  C58      1.0000 0.80990  0.28770  0.22830  Biso   1.000  C
  C59      1.0000 0.82410  0.25620  0.32610  Biso   1.000  C
  C60      1.0000 0.64500  0.41730  0.07220  Biso   1.000  C
  N10      1.0000 0.83290  0.31890  0.59210  Biso   1.000  N
  N11      1.0000 0.85800  0.32200  0.55990  Biso   1.000  N
  N12      1.0000 0.93620  0.40000  0.65440  Biso   1.000  N
  C61      1.0000 0.87370  0.35230  0.64380  Biso   1.000  C
  C62      1.0000 0.84230  0.37340  0.56340  Biso   1.000  C
  C63      1.0000 0.89140  0.31590  0.68900  Biso   1.000  C
  C64      1.0000 0.93350  0.34500  0.52140  Biso   1.000  C
  C65      1.0000 0.94000  0.36990  0.72450  Biso   1.000  C
  C66      1.0000 0.99330  0.39120  0.58680  Biso   1.000  C
  C67      1.0000 0.94720  0.46550  0.64320  Biso   1.000  C
  C68      1.0000 0.99290  0.43420  0.74710  Biso   1.000  C
  O21      1.0000 0.39170  0.28663  0.35520  Biso   1.000  O
  O22      1.0000 0.40440  0.21481  0.01740  Biso   1.000  O
  O23      1.0000 0.10160  0.06389  0.13090  Biso   1.000  O
  C69      1.0000 0.35290  0.20050  0.08150  Biso   1.000  C
  O24      1.0000 0.12430  0.06348  0.98490  Biso   1.000  O
  C70      1.0000 0.23970  0.16320  0.19780  Biso   1.000  C
  H21      1.0000 0.20240  0.15040  0.23770  Biso   1.000  H
  C71      1.0000 0.28240  0.15220  0.05050  Biso   1.000  C
  H22      1.0000 0.27310  0.13230  0.99040  Biso   1.000  H
  C72      1.0000 0.22500  0.13310  0.10900  Biso   1.000  C
  C73      1.0000 0.36630  0.23180  0.16960  Biso   1.000  C
  H23      1.0000 0.41220  0.26520  0.18900  Biso   1.000  H
  O25      1.0000 0.26680  0.22410  0.37130  Biso   1.000  O
  C74      1.0000 0.47590  0.26470  0.04000  Biso   1.000  C
  H24      1.0000 0.43650  0.30200  0.03750  Biso   1.000  H
  H25      1.0000 0.53270  0.26050  0.10710  Biso   1.000  H
  C75      1.0000 0.30990  0.21230  0.22830  Biso   1.000  C
  C76      1.0000 0.32410  0.24380  0.32610  Biso   1.000  C
  C77      1.0000 0.14500  0.08270  0.07220  Biso   1.000  C
  N13      1.0000 0.33290  0.18110  0.59210  Biso   1.000  N
  N14      1.0000 0.35800  0.17800  0.55990  Biso   1.000  N
  N15      1.0000 0.43620  0.10000  0.65440  Biso   1.000  N
  C78      1.0000 0.37370  0.14770  0.64380  Biso   1.000  C
  C79      1.0000 0.34230  0.12660  0.56340  Biso   1.000  C
  C80      1.0000 0.39140  0.18410  0.68900  Biso   1.000  C
  C81      1.0000 0.43350  0.15500  0.52140  Biso   1.000  C
  C82      1.0000 0.44000  0.13010  0.72450  Biso   1.000  C
  C83      1.0000 0.49330  0.10880  0.58680  Biso   1.000  C
  C84      1.0000 0.44720  0.03450  0.64320  Biso   1.000  C
  C85      1.0000 0.49290  0.06580  0.74710  Biso   1.000  C
  O26      1.0000 0.89170  0.78663  0.35520  Biso   1.000  O
  O27      1.0000 0.90440  0.71481  0.01740  Biso   1.000  O
  O28      1.0000 0.60160  0.56389  0.13090  Biso   1.000  O
  C86      1.0000 0.85290  0.70050  0.08150  Biso   1.000  C
  O29      1.0000 0.62430  0.56348  0.98490  Biso   1.000  O
  C87      1.0000 0.73970  0.66320  0.19780  Biso   1.000  C
  H26      1.0000 0.70240  0.65040  0.23770  Biso   1.000  H
  C88      1.0000 0.78240  0.65220  0.05050  Biso   1.000  C
  H27      1.0000 0.77310  0.63230  0.99040  Biso   1.000  H
  C89      1.0000 0.72500  0.63310  0.10900  Biso   1.000  C
  C90      1.0000 0.86630  0.73180  0.16960  Biso   1.000  C
  H28      1.0000 0.91220  0.76520  0.18900  Biso   1.000  H
  O30      1.0000 0.76680  0.72410  0.37130  Biso   1.000  O
  C91      1.0000 0.97590  0.76470  0.04000  Biso   1.000  C
  H29      1.0000 0.93650  0.80200  0.03750  Biso   1.000  H
  H30      1.0000 0.03270  0.76050  0.10710  Biso   1.000  H
  C92      1.0000 0.80990  0.71230  0.22830  Biso   1.000  C
  C93      1.0000 0.82410  0.74380  0.32610  Biso   1.000  C
  C94      1.0000 0.64500  0.58270  0.07220  Biso   1.000  C
  N16      1.0000 0.83290  0.68110  0.59210  Biso   1.000  N
  N17      1.0000 0.85800  0.67800  0.55990  Biso   1.000  N
  N18      1.0000 0.93620  0.60000  0.65440  Biso   1.000  N
  C95      1.0000 0.87370  0.64770  0.64380  Biso   1.000  C
  C96      1.0000 0.84230  0.62660  0.56340  Biso   1.000  C
  C97      1.0000 0.89140  0.68410  0.68900  Biso   1.000  C
  C98      1.0000 0.93350  0.65500  0.52140  Biso   1.000  C
  C99      1.0000 0.94000  0.63010  0.72450  Biso   1.000  C
  C100     1.0000 0.99330  0.60880  0.58680  Biso   1.000  C
  C101     1.0000 0.94720  0.53450  0.64320  Biso   1.000  C
  C102     1.0000 0.99290  0.56580  0.74710  Biso   1.000  C
  O31      1.0000 0.60830  0.28663  0.64480  Biso   1.000  O
  O32      1.0000 0.59560  0.21481  0.98260  Biso   1.000  O
  O33      1.0000 0.89840  0.06389  0.86910  Biso   1.000  O
  C103     1.0000 0.64710  0.20050  0.91850  Biso   1.000  C
  O34      1.0000 0.87570  0.06348  0.01510  Biso   1.000  O
  C104     1.0000 0.76030  0.16320  0.80220  Biso   1.000  C
  H31      1.0000 0.79760  0.15040  0.76230  Biso   1.000  H
  C105     1.0000 0.71760  0.15220  0.94950  Biso   1.000  C
  H32      1.0000 0.72690  0.13230  0.00960  Biso   1.000  H
  C106     1.0000 0.77500  0.13310  0.89100  Biso   1.000  C
  C107     1.0000 0.63370  0.23180  0.83040  Biso   1.000  C
  H33      1.0000 0.58780  0.26520  0.81100  Biso   1.000  H
  O35      1.0000 0.73320  0.22410  0.62870  Biso   1.000  O
  C108     1.0000 0.52410  0.26470  0.96000  Biso   1.000  C
  H34      1.0000 0.56350  0.30200  0.96250  Biso   1.000  H
  H35      1.0000 0.46730  0.26050  0.89290  Biso   1.000  H
  C109     1.0000 0.69010  0.21230  0.77170  Biso   1.000  C
  C110     1.0000 0.67590  0.24380  0.67390  Biso   1.000  C
  C111     1.0000 0.85500  0.08270  0.92780  Biso   1.000  C
  N19      1.0000 0.66710  0.18110  0.40790  Biso   1.000  N
  N20      1.0000 0.64200  0.17800  0.44010  Biso   1.000  N
  N21      1.0000 0.56380  0.10000  0.34560  Biso   1.000  N
  C112     1.0000 0.62630  0.14770  0.35620  Biso   1.000  C
  C113     1.0000 0.65770  0.12660  0.43660  Biso   1.000  C
  C114     1.0000 0.60860  0.18410  0.31100  Biso   1.000  C
  C115     1.0000 0.56650  0.15500  0.47860  Biso   1.000  C
  C116     1.0000 0.56000  0.13010  0.27550  Biso   1.000  C
  C117     1.0000 0.50670  0.10880  0.41320  Biso   1.000  C
  C118     1.0000 0.55280  0.03450  0.35680  Biso   1.000  C
  C119     1.0000 0.50710  0.06580  0.25290  Biso   1.000  C
  O36      1.0000 0.10830  0.78663  0.64480  Biso   1.000  O
  O37      1.0000 0.09560  0.71481  0.98260  Biso   1.000  O
  O38      1.0000 0.39840  0.56389  0.86910  Biso   1.000  O
  C120     1.0000 0.14710  0.70050  0.91850  Biso   1.000  C
  O39      1.0000 0.37570  0.56348  0.01510  Biso   1.000  O
  C121     1.0000 0.26030  0.66320  0.80220  Biso   1.000  C
  H36      1.0000 0.29760  0.65040  0.76230  Biso   1.000  H
  C122     1.0000 0.21760  0.65220  0.94950  Biso   1.000  C
  H37      1.0000 0.22690  0.63230  0.00960  Biso   1.000  H
  C123     1.0000 0.27500  0.63310  0.89100  Biso   1.000  C
  C124     1.0000 0.13370  0.73180  0.83040  Biso   1.000  C
  H38      1.0000 0.08780  0.76520  0.81100  Biso   1.000  H
  O40      1.0000 0.23320  0.72410  0.62870  Biso   1.000  O
  C125     1.0000 0.02410  0.76470  0.96000  Biso   1.000  C
  H39      1.0000 0.06350  0.80200  0.96250  Biso   1.000  H
  H40      1.0000 0.96730  0.76050  0.89290  Biso   1.000  H
  C126     1.0000 0.19010  0.71230  0.77170  Biso   1.000  C
  C127     1.0000 0.17590  0.74380  0.67390  Biso   1.000  C
  C128     1.0000 0.35500  0.58270  0.92780  Biso   1.000  C
  N22      1.0000 0.16710  0.68110  0.40790  Biso   1.000  N
  N23      1.0000 0.14200  0.67800  0.44010  Biso   1.000  N
  N24      1.0000 0.06380  0.60000  0.34560  Biso   1.000  N
  C129     1.0000 0.12630  0.64770  0.35620  Biso   1.000  C
  C130     1.0000 0.15770  0.62660  0.43660  Biso   1.000  C
  C131     1.0000 0.10860  0.68410  0.31100  Biso   1.000  C
  C132     1.0000 0.06650  0.65500  0.47860  Biso   1.000  C
  C133     1.0000 0.06000  0.63010  0.27550  Biso   1.000  C
  C134     1.0000 0.00670  0.60880  0.41320  Biso   1.000  C
  C135     1.0000 0.05280  0.53450  0.35680  Biso   1.000  C
  C136     1.0000 0.00710  0.56580  0.25290  Biso   1.000  C
  Ni1      1.0000 0.75000  0.75000  0.50000  Biso   1.000  Ni
  Ni2      1.0000 0.25000  0.75000  0.50000  Biso   1.000  Ni
  Ni3      1.0000 0.25000  0.25000  0.50000  Biso   1.000  Ni
  Ni4      1.0000 0.75000  0.25000  0.50000  Biso   1.000  Ni
  Ni5      1.0000 0.01481  0.00000  0.91185  Biso   1.000  Ni
  C137     1.0000 0.56910  0.00000  0.27350  Biso   1.000  C
  Ni6      1.0000 0.51481  0.50000  0.91185  Biso   1.000  Ni
  C138     1.0000 0.06910  0.50000  0.27350  Biso   1.000  C
  Ni7      1.0000 0.98519  0.00000  0.08815  Biso   1.000  Ni
  C139     1.0000 0.43090  0.00000  0.72650  Biso   1.000  C
  Ni8      1.0000 0.48519  0.50000  0.08815  Biso   1.000  Ni
  C140     1.0000 0.93090  0.50000  0.72650  Biso   1.000  C
