data_image0
_cell_length_a       18.5462
_cell_length_b       20.0824
_cell_length_c       8.7759
_cell_angle_alpha    90
_cell_angle_beta     101.244
_cell_angle_gamma    90

_symmetry_space_group_name_H-M    "P 1"
_symmetry_int_tables_number       1

loop_
  _symmetry_equiv_pos_as_xyz
  'x, y, z'

loop_
  _atom_site_label
  _atom_site_occupancy
  _atom_site_fract_x
  _atom_site_fract_y
  _atom_site_fract_z
  _atom_site_thermal_displace_type
  _atom_site_B_iso_or_equiv
  _atom_site_type_symbol
  C1       1.0000 0.63070  0.23490  0.40360  Biso   1.000  C
  H1       1.0000 0.63050  0.26200  0.48930  Biso   1.000  H
  C2       1.0000 0.58140  0.20610  0.15460  Biso   1.000  C
  H2       1.0000 0.54600  0.21220  0.06490  Biso   1.000  H
  C3       1.0000 0.63160  0.15530  0.15750  Biso   1.000  C
  H3       1.0000 0.63060  0.12900  0.07000  Biso   1.000  H
  C4       1.0000 0.68140  0.18480  0.41570  Biso   1.000  C
  H4       1.0000 0.71450  0.17860  0.50880  Biso   1.000  H
  C5       1.0000 0.68390  0.14350  0.29220  Biso   1.000  C
  C6       1.0000 0.74070  0.08910  0.30320  Biso   1.000  C
  H5       1.0000 0.78890  0.10940  0.33290  Biso   1.000  H
  H6       1.0000 0.73440  0.05940  0.38690  Biso   1.000  H
  C7       1.0000 0.74060  0.04890  0.16560  Biso   1.000  C
  H7       1.0000 0.74650  0.07810  0.08070  Biso   1.000  H
  H8       1.0000 0.69320  0.02720  0.13670  Biso   1.000  H
  C8       1.0000 0.91680  0.95840  0.14780  Biso   1.000  C
  H9       1.0000 0.95910  0.96650  0.10880  Biso   1.000  H
  C9       1.0000 0.84960  0.89080  0.26960  Biso   1.000  C
  H10      1.0000 0.84440  0.85110  0.32100  Biso   1.000  H
  C10      1.0000 0.86390  0.00730  0.13050  Biso   1.000  C
  H11      1.0000 0.87120  0.04730  0.08220  Biso   1.000  H
  C11      1.0000 0.79330  0.93650  0.25250  Biso   1.000  C
  H12      1.0000 0.75040  0.92610  0.28730  Biso   1.000  H
  C12      1.0000 0.79990  0.99670  0.18520  Biso   1.000  C
  C13      1.0000 0.99730  0.84760  0.88200  Biso   1.000  C
  N1       1.0000 0.91120  0.90070  0.21620  Biso   1.000  N
  N2       1.0000 0.58140  0.24640  0.27310  Biso   1.000  N
  N3       1.0000 0.99740  0.83340  0.00380  Biso   1.000  N
  N4       1.0000 0.98570  0.87600  0.73700  Biso   1.000  N
  C14      1.0000 0.13070  0.73490  0.40360  Biso   1.000  C
  H13      1.0000 0.13050  0.76200  0.48930  Biso   1.000  H
  C15      1.0000 0.08140  0.70610  0.15460  Biso   1.000  C
  H14      1.0000 0.04600  0.71220  0.06490  Biso   1.000  H
  C16      1.0000 0.13160  0.65530  0.15750  Biso   1.000  C
  H15      1.0000 0.13060  0.62900  0.07000  Biso   1.000  H
  C17      1.0000 0.18140  0.68480  0.41570  Biso   1.000  C
  H16      1.0000 0.21450  0.67860  0.50880  Biso   1.000  H
  C18      1.0000 0.18390  0.64350  0.29220  Biso   1.000  C
  C19      1.0000 0.24070  0.58910  0.30320  Biso   1.000  C
  H17      1.0000 0.28890  0.60940  0.33290  Biso   1.000  H
  H18      1.0000 0.23440  0.55940  0.38690  Biso   1.000  H
  C20      1.0000 0.24060  0.54890  0.16560  Biso   1.000  C
  H19      1.0000 0.24650  0.57810  0.08070  Biso   1.000  H
  H20      1.0000 0.19320  0.52720  0.13670  Biso   1.000  H
  C21      1.0000 0.41680  0.45840  0.14780  Biso   1.000  C
  H21      1.0000 0.45910  0.46650  0.10880  Biso   1.000  H
  C22      1.0000 0.34960  0.39080  0.26960  Biso   1.000  C
  H22      1.0000 0.34440  0.35110  0.32100  Biso   1.000  H
  C23      1.0000 0.36390  0.50730  0.13050  Biso   1.000  C
  H23      1.0000 0.37120  0.54730  0.08220  Biso   1.000  H
  C24      1.0000 0.29330  0.43650  0.25250  Biso   1.000  C
  H24      1.0000 0.25040  0.42610  0.28730  Biso   1.000  H
  C25      1.0000 0.29990  0.49670  0.18520  Biso   1.000  C
  C26      1.0000 0.49730  0.34760  0.88200  Biso   1.000  C
  N5       1.0000 0.41120  0.40070  0.21620  Biso   1.000  N
  N6       1.0000 0.08140  0.74640  0.27310  Biso   1.000  N
  N7       1.0000 0.49740  0.33340  0.00380  Biso   1.000  N
  N8       1.0000 0.48570  0.37600  0.73700  Biso   1.000  N
  C27      1.0000 0.36930  0.23490  0.09640  Biso   1.000  C
  H25      1.0000 0.36950  0.26200  0.01070  Biso   1.000  H
  C28      1.0000 0.41860  0.20610  0.34540  Biso   1.000  C
  H26      1.0000 0.45400  0.21220  0.43510  Biso   1.000  H
  C29      1.0000 0.36840  0.15530  0.34250  Biso   1.000  C
  H27      1.0000 0.36940  0.12900  0.43000  Biso   1.000  H
  C30      1.0000 0.31860  0.18480  0.08430  Biso   1.000  C
  H28      1.0000 0.28550  0.17860  0.99120  Biso   1.000  H
  C31      1.0000 0.31610  0.14350  0.20780  Biso   1.000  C
  C32      1.0000 0.25930  0.08910  0.19680  Biso   1.000  C
  H29      1.0000 0.21110  0.10940  0.16710  Biso   1.000  H
  H30      1.0000 0.26560  0.05940  0.11310  Biso   1.000  H
  C33      1.0000 0.25940  0.04890  0.33440  Biso   1.000  C
  H31      1.0000 0.25350  0.07810  0.41930  Biso   1.000  H
  H32      1.0000 0.30680  0.02720  0.36330  Biso   1.000  H
  C34      1.0000 0.08320  0.95840  0.35220  Biso   1.000  C
  H33      1.0000 0.04090  0.96650  0.39120  Biso   1.000  H
  C35      1.0000 0.15040  0.89080  0.23040  Biso   1.000  C
  H34      1.0000 0.15560  0.85110  0.17900  Biso   1.000  H
  C36      1.0000 0.13610  0.00730  0.36950  Biso   1.000  C
  H35      1.0000 0.12880  0.04730  0.41780  Biso   1.000  H
  C37      1.0000 0.20670  0.93650  0.24750  Biso   1.000  C
  H36      1.0000 0.24960  0.92610  0.21270  Biso   1.000  H
  C38      1.0000 0.20010  0.99670  0.31480  Biso   1.000  C
  C39      1.0000 0.00270  0.84760  0.61800  Biso   1.000  C
  N9       1.0000 0.08880  0.90070  0.28380  Biso   1.000  N
  N10      1.0000 0.41860  0.24640  0.22690  Biso   1.000  N
  N11      1.0000 0.00260  0.83340  0.49620  Biso   1.000  N
  N12      1.0000 0.01430  0.87600  0.76300  Biso   1.000  N
  C40      1.0000 0.86930  0.73490  0.09640  Biso   1.000  C
  H37      1.0000 0.86950  0.76200  0.01070  Biso   1.000  H
  C41      1.0000 0.91860  0.70610  0.34540  Biso   1.000  C
  H38      1.0000 0.95400  0.71220  0.43510  Biso   1.000  H
  C42      1.0000 0.86840  0.65530  0.34250  Biso   1.000  C
  H39      1.0000 0.86940  0.62900  0.43000  Biso   1.000  H
  C43      1.0000 0.81860  0.68480  0.08430  Biso   1.000  C
  H40      1.0000 0.78550  0.67860  0.99120  Biso   1.000  H
  C44      1.0000 0.81610  0.64350  0.20780  Biso   1.000  C
  C45      1.0000 0.75930  0.58910  0.19680  Biso   1.000  C
  H41      1.0000 0.71110  0.60940  0.16710  Biso   1.000  H
  H42      1.0000 0.76560  0.55940  0.11310  Biso   1.000  H
  C46      1.0000 0.75940  0.54890  0.33440  Biso   1.000  C
  H43      1.0000 0.75350  0.57810  0.41930  Biso   1.000  H
  H44      1.0000 0.80680  0.52720  0.36330  Biso   1.000  H
  C47      1.0000 0.58320  0.45840  0.35220  Biso   1.000  C
  H45      1.0000 0.54090  0.46650  0.39120  Biso   1.000  H
  C48      1.0000 0.65040  0.39080  0.23040  Biso   1.000  C
  H46      1.0000 0.65560  0.35110  0.17900  Biso   1.000  H
  C49      1.0000 0.63610  0.50730  0.36950  Biso   1.000  C
  H47      1.0000 0.62880  0.54730  0.41780  Biso   1.000  H
  C50      1.0000 0.70670  0.43650  0.24750  Biso   1.000  C
  H48      1.0000 0.74960  0.42610  0.21270  Biso   1.000  H
  C51      1.0000 0.70010  0.49670  0.31480  Biso   1.000  C
  C52      1.0000 0.50270  0.34760  0.61800  Biso   1.000  C
  N13      1.0000 0.58880  0.40070  0.28380  Biso   1.000  N
  N14      1.0000 0.91860  0.74640  0.22690  Biso   1.000  N
  N15      1.0000 0.50260  0.33340  0.49620  Biso   1.000  N
  N16      1.0000 0.51430  0.37600  0.76300  Biso   1.000  N
  Zn1      1.0000 0.00000  0.82512  0.25000  Biso   1.000  Zn
  Zn2      1.0000 0.50000  0.32512  0.25000  Biso   1.000  Zn
  C53      1.0000 0.36930  0.76510  0.59640  Biso   1.000  C
  H49      1.0000 0.36950  0.73800  0.51070  Biso   1.000  H
  C54      1.0000 0.41860  0.79390  0.84540  Biso   1.000  C
  H50      1.0000 0.45400  0.78780  0.93510  Biso   1.000  H
  C55      1.0000 0.36840  0.84470  0.84250  Biso   1.000  C
  H51      1.0000 0.36940  0.87100  0.93000  Biso   1.000  H
  C56      1.0000 0.31860  0.81520  0.58430  Biso   1.000  C
  H52      1.0000 0.28550  0.82140  0.49120  Biso   1.000  H
  C57      1.0000 0.31610  0.85650  0.70780  Biso   1.000  C
  C58      1.0000 0.25930  0.91090  0.69680  Biso   1.000  C
  H53      1.0000 0.21110  0.89060  0.66710  Biso   1.000  H
  H54      1.0000 0.26560  0.94060  0.61310  Biso   1.000  H
  C59      1.0000 0.25940  0.95110  0.83440  Biso   1.000  C
  H55      1.0000 0.25350  0.92190  0.91930  Biso   1.000  H
  H56      1.0000 0.30680  0.97280  0.86330  Biso   1.000  H
  C60      1.0000 0.08320  0.04160  0.85220  Biso   1.000  C
  H57      1.0000 0.04090  0.03350  0.89120  Biso   1.000  H
  C61      1.0000 0.15040  0.10920  0.73040  Biso   1.000  C
  H58      1.0000 0.15560  0.14890  0.67900  Biso   1.000  H
  C62      1.0000 0.13610  0.99270  0.86950  Biso   1.000  C
  H59      1.0000 0.12880  0.95270  0.91780  Biso   1.000  H
  C63      1.0000 0.20670  0.06350  0.74750  Biso   1.000  C
  H60      1.0000 0.24960  0.07390  0.71270  Biso   1.000  H
  C64      1.0000 0.20010  0.00330  0.81480  Biso   1.000  C
  C65      1.0000 0.00270  0.15240  0.11800  Biso   1.000  C
  N17      1.0000 0.08880  0.09930  0.78380  Biso   1.000  N
  N18      1.0000 0.41860  0.75360  0.72690  Biso   1.000  N
  N19      1.0000 0.00260  0.16660  0.99620  Biso   1.000  N
  N20      1.0000 0.01430  0.12400  0.26300  Biso   1.000  N
  C66      1.0000 0.86930  0.26510  0.59640  Biso   1.000  C
  H61      1.0000 0.86950  0.23800  0.51070  Biso   1.000  H
  C67      1.0000 0.91860  0.29390  0.84540  Biso   1.000  C
  H62      1.0000 0.95400  0.28780  0.93510  Biso   1.000  H
  C68      1.0000 0.86840  0.34470  0.84250  Biso   1.000  C
  H63      1.0000 0.86940  0.37100  0.93000  Biso   1.000  H
  C69      1.0000 0.81860  0.31520  0.58430  Biso   1.000  C
  H64      1.0000 0.78550  0.32140  0.49120  Biso   1.000  H
  C70      1.0000 0.81610  0.35650  0.70780  Biso   1.000  C
  C71      1.0000 0.75930  0.41090  0.69680  Biso   1.000  C
  H65      1.0000 0.71110  0.39060  0.66710  Biso   1.000  H
  H66      1.0000 0.76560  0.44060  0.61310  Biso   1.000  H
  C72      1.0000 0.75940  0.45110  0.83440  Biso   1.000  C
  H67      1.0000 0.75350  0.42190  0.91930  Biso   1.000  H
  H68      1.0000 0.80680  0.47280  0.86330  Biso   1.000  H
  C73      1.0000 0.58320  0.54160  0.85220  Biso   1.000  C
  H69      1.0000 0.54090  0.53350  0.89120  Biso   1.000  H
  C74      1.0000 0.65040  0.60920  0.73040  Biso   1.000  C
  H70      1.0000 0.65560  0.64890  0.67900  Biso   1.000  H
  C75      1.0000 0.63610  0.49270  0.86950  Biso   1.000  C
  H71      1.0000 0.62880  0.45270  0.91780  Biso   1.000  H
  C76      1.0000 0.70670  0.56350  0.74750  Biso   1.000  C
  H72      1.0000 0.74960  0.57390  0.71270  Biso   1.000  H
  C77      1.0000 0.70010  0.50330  0.81480  Biso   1.000  C
  C78      1.0000 0.50270  0.65240  0.11800  Biso   1.000  C
  N21      1.0000 0.58880  0.59930  0.78380  Biso   1.000  N
  N22      1.0000 0.91860  0.25360  0.72690  Biso   1.000  N
  N23      1.0000 0.50260  0.66660  0.99620  Biso   1.000  N
  N24      1.0000 0.51430  0.62400  0.26300  Biso   1.000  N
  C79      1.0000 0.63070  0.76510  0.90360  Biso   1.000  C
  H73      1.0000 0.63050  0.73800  0.98930  Biso   1.000  H
  C80      1.0000 0.58140  0.79390  0.65460  Biso   1.000  C
  H74      1.0000 0.54600  0.78780  0.56490  Biso   1.000  H
  C81      1.0000 0.63160  0.84470  0.65750  Biso   1.000  C
  H75      1.0000 0.63060  0.87100  0.57000  Biso   1.000  H
  C82      1.0000 0.68140  0.81520  0.91570  Biso   1.000  C
  H76      1.0000 0.71450  0.82140  0.00880  Biso   1.000  H
  C83      1.0000 0.68390  0.85650  0.79220  Biso   1.000  C
  C84      1.0000 0.74070  0.91090  0.80320  Biso   1.000  C
  H77      1.0000 0.78890  0.89060  0.83290  Biso   1.000  H
  H78      1.0000 0.73440  0.94060  0.88690  Biso   1.000  H
  C85      1.0000 0.74060  0.95110  0.66560  Biso   1.000  C
  H79      1.0000 0.74650  0.92190  0.58070  Biso   1.000  H
  H80      1.0000 0.69320  0.97280  0.63670  Biso   1.000  H
  C86      1.0000 0.91680  0.04160  0.64780  Biso   1.000  C
  H81      1.0000 0.95910  0.03350  0.60880  Biso   1.000  H
  C87      1.0000 0.84960  0.10920  0.76960  Biso   1.000  C
  H82      1.0000 0.84440  0.14890  0.82100  Biso   1.000  H
  C88      1.0000 0.86390  0.99270  0.63050  Biso   1.000  C
  H83      1.0000 0.87120  0.95270  0.58220  Biso   1.000  H
  C89      1.0000 0.79330  0.06350  0.75250  Biso   1.000  C
  H84      1.0000 0.75040  0.07390  0.78730  Biso   1.000  H
  C90      1.0000 0.79990  0.00330  0.68520  Biso   1.000  C
  C91      1.0000 0.99730  0.15240  0.38200  Biso   1.000  C
  N25      1.0000 0.91120  0.09930  0.71620  Biso   1.000  N
  N26      1.0000 0.58140  0.75360  0.77310  Biso   1.000  N
  N27      1.0000 0.99740  0.16660  0.50380  Biso   1.000  N
  N28      1.0000 0.98570  0.12400  0.23700  Biso   1.000  N
  C92      1.0000 0.13070  0.26510  0.90360  Biso   1.000  C
  H85      1.0000 0.13050  0.23800  0.98930  Biso   1.000  H
  C93      1.0000 0.08140  0.29390  0.65460  Biso   1.000  C
  H86      1.0000 0.04600  0.28780  0.56490  Biso   1.000  H
  C94      1.0000 0.13160  0.34470  0.65750  Biso   1.000  C
  H87      1.0000 0.13060  0.37100  0.57000  Biso   1.000  H
  C95      1.0000 0.18140  0.31520  0.91570  Biso   1.000  C
  H88      1.0000 0.21450  0.32140  0.00880  Biso   1.000  H
  C96      1.0000 0.18390  0.35650  0.79220  Biso   1.000  C
  C97      1.0000 0.24070  0.41090  0.80320  Biso   1.000  C
  H89      1.0000 0.28890  0.39060  0.83290  Biso   1.000  H
  H90      1.0000 0.23440  0.44060  0.88690  Biso   1.000  H
  C98      1.0000 0.24060  0.45110  0.66560  Biso   1.000  C
  H91      1.0000 0.24650  0.42190  0.58070  Biso   1.000  H
  H92      1.0000 0.19320  0.47280  0.63670  Biso   1.000  H
  C99      1.0000 0.41680  0.54160  0.64780  Biso   1.000  C
  H93      1.0000 0.45910  0.53350  0.60880  Biso   1.000  H
  C100     1.0000 0.34960  0.60920  0.76960  Biso   1.000  C
  H94      1.0000 0.34440  0.64890  0.82100  Biso   1.000  H
  C101     1.0000 0.36390  0.49270  0.63050  Biso   1.000  C
  H95      1.0000 0.37120  0.45270  0.58220  Biso   1.000  H
  C102     1.0000 0.29330  0.56350  0.75250  Biso   1.000  C
  H96      1.0000 0.25040  0.57390  0.78730  Biso   1.000  H
  C103     1.0000 0.29990  0.50330  0.68520  Biso   1.000  C
  C104     1.0000 0.49730  0.65240  0.38200  Biso   1.000  C
  N29      1.0000 0.41120  0.59930  0.71620  Biso   1.000  N
  N30      1.0000 0.08140  0.25360  0.77310  Biso   1.000  N
  N31      1.0000 0.49740  0.66660  0.50380  Biso   1.000  N
  N32      1.0000 0.48570  0.62400  0.23700  Biso   1.000  N
  Zn3      1.0000 0.00000  0.17488  0.75000  Biso   1.000  Zn
  Zn4      1.0000 0.50000  0.67488  0.75000  Biso   1.000  Zn
