data_image0
_cell_length_a       18.7806
_cell_length_b       19.9045
_cell_length_c       8.7871
_cell_angle_alpha    90
_cell_angle_beta     100.981
_cell_angle_gamma    90

_symmetry_space_group_name_H-M    "P 1"
_symmetry_int_tables_number       1

loop_
  _symmetry_equiv_pos_as_xyz
  'x, y, z'

loop_
  _atom_site_label
  _atom_site_occupancy
  _atom_site_fract_x
  _atom_site_fract_y
  _atom_site_fract_z
  _atom_site_thermal_displace_type
  _atom_site_B_iso_or_equiv
  _atom_site_type_symbol
  C1       1.0000 0.35100  0.38960  0.27100  Biso   1.000  C
  H1       1.0000 0.34550  0.34900  0.31970  Biso   1.000  H
  C2       1.0000 0.41710  0.45960  0.14800  Biso   1.000  C
  H2       1.0000 0.45860  0.46810  0.10770  Biso   1.000  H
  C3       1.0000 0.36500  0.50850  0.13260  Biso   1.000  C
  H3       1.0000 0.37190  0.54890  0.08410  Biso   1.000  H
  C4       1.0000 0.30250  0.49800  0.18890  Biso   1.000  C
  C5       1.0000 0.29600  0.43670  0.25630  Biso   1.000  C
  H4       1.0000 0.25390  0.42670  0.29280  Biso   1.000  H
  C6       1.0000 0.24310  0.59060  0.30730  Biso   1.000  C
  H5       1.0000 0.29030  0.61180  0.33410  Biso   1.000  H
  H6       1.0000 0.23770  0.56140  0.39270  Biso   1.000  H
  C7       1.0000 0.08330  0.70570  0.15720  Biso   1.000  C
  H7       1.0000 0.04870  0.71180  0.06730  Biso   1.000  H
  C8       1.0000 0.13380  0.65530  0.15830  Biso   1.000  C
  H8       1.0000 0.13340  0.62890  0.07090  Biso   1.000  H
  C9       1.0000 0.18130  0.68600  0.41810  Biso   1.000  C
  H9       1.0000 0.21360  0.68030  0.51150  Biso   1.000  H
  C10      1.0000 0.12990  0.73470  0.40510  Biso   1.000  C
  H10      1.0000 0.12850  0.76170  0.49080  Biso   1.000  H
  C11      1.0000 0.99830  0.84790  0.88100  Biso   1.000  C
  C12      1.0000 0.24230  0.54910  0.17010  Biso   1.000  C
  H11      1.0000 0.24600  0.57810  0.08320  Biso   1.000  H
  H12      1.0000 0.19610  0.52590  0.14550  Biso   1.000  H
  C13      1.0000 0.18610  0.64460  0.29390  Biso   1.000  C
  N1       1.0000 0.08110  0.74570  0.27520  Biso   1.000  N
  N2       1.0000 0.41240  0.40120  0.21640  Biso   1.000  N
  N3       1.0000 0.99760  0.83250  0.00360  Biso   1.000  N
  N4       1.0000 0.01400  0.87490  0.75500  Biso   1.000  N
  C14      1.0000 0.85100  0.88960  0.27100  Biso   1.000  C
  H13      1.0000 0.84550  0.84900  0.31970  Biso   1.000  H
  C15      1.0000 0.91710  0.95960  0.14800  Biso   1.000  C
  H14      1.0000 0.95860  0.96810  0.10770  Biso   1.000  H
  C16      1.0000 0.86500  0.00850  0.13260  Biso   1.000  C
  H15      1.0000 0.87190  0.04890  0.08410  Biso   1.000  H
  C17      1.0000 0.80250  0.99800  0.18890  Biso   1.000  C
  C18      1.0000 0.79600  0.93670  0.25630  Biso   1.000  C
  H16      1.0000 0.75390  0.92670  0.29280  Biso   1.000  H
  C19      1.0000 0.74310  0.09060  0.30730  Biso   1.000  C
  H17      1.0000 0.79030  0.11180  0.33410  Biso   1.000  H
  H18      1.0000 0.73770  0.06140  0.39270  Biso   1.000  H
  C20      1.0000 0.58330  0.20570  0.15720  Biso   1.000  C
  H19      1.0000 0.54870  0.21180  0.06730  Biso   1.000  H
  C21      1.0000 0.63380  0.15530  0.15830  Biso   1.000  C
  H20      1.0000 0.63340  0.12890  0.07090  Biso   1.000  H
  C22      1.0000 0.68130  0.18600  0.41810  Biso   1.000  C
  H21      1.0000 0.71360  0.18030  0.51150  Biso   1.000  H
  C23      1.0000 0.62990  0.23470  0.40510  Biso   1.000  C
  H22      1.0000 0.62850  0.26170  0.49080  Biso   1.000  H
  C24      1.0000 0.49830  0.34790  0.88100  Biso   1.000  C
  C25      1.0000 0.74230  0.04910  0.17010  Biso   1.000  C
  H23      1.0000 0.74600  0.07810  0.08320  Biso   1.000  H
  H24      1.0000 0.69610  0.02590  0.14550  Biso   1.000  H
  C26      1.0000 0.68610  0.14460  0.29390  Biso   1.000  C
  N5       1.0000 0.58110  0.24570  0.27520  Biso   1.000  N
  N6       1.0000 0.91240  0.90120  0.21640  Biso   1.000  N
  N7       1.0000 0.49760  0.33250  0.00360  Biso   1.000  N
  N8       1.0000 0.51400  0.37490  0.75500  Biso   1.000  N
  C27      1.0000 0.64900  0.38960  0.22900  Biso   1.000  C
  H25      1.0000 0.65450  0.34900  0.18030  Biso   1.000  H
  C28      1.0000 0.58290  0.45960  0.35200  Biso   1.000  C
  H26      1.0000 0.54140  0.46810  0.39230  Biso   1.000  H
  C29      1.0000 0.63500  0.50850  0.36740  Biso   1.000  C
  H27      1.0000 0.62810  0.54890  0.41590  Biso   1.000  H
  C30      1.0000 0.69750  0.49800  0.31110  Biso   1.000  C
  C31      1.0000 0.70400  0.43670  0.24370  Biso   1.000  C
  H28      1.0000 0.74610  0.42670  0.20720  Biso   1.000  H
  C32      1.0000 0.75690  0.59060  0.19270  Biso   1.000  C
  H29      1.0000 0.70970  0.61180  0.16590  Biso   1.000  H
  H30      1.0000 0.76230  0.56140  0.10730  Biso   1.000  H
  C33      1.0000 0.91670  0.70570  0.34280  Biso   1.000  C
  H31      1.0000 0.95130  0.71180  0.43270  Biso   1.000  H
  C34      1.0000 0.86620  0.65530  0.34170  Biso   1.000  C
  H32      1.0000 0.86660  0.62890  0.42910  Biso   1.000  H
  C35      1.0000 0.81870  0.68600  0.08190  Biso   1.000  C
  H33      1.0000 0.78640  0.68030  0.98850  Biso   1.000  H
  C36      1.0000 0.87010  0.73470  0.09490  Biso   1.000  C
  H34      1.0000 0.87150  0.76170  0.00920  Biso   1.000  H
  C37      1.0000 0.00170  0.84790  0.61900  Biso   1.000  C
  C38      1.0000 0.75770  0.54910  0.32990  Biso   1.000  C
  H35      1.0000 0.75400  0.57810  0.41680  Biso   1.000  H
  H36      1.0000 0.80390  0.52590  0.35450  Biso   1.000  H
  C39      1.0000 0.81390  0.64460  0.20610  Biso   1.000  C
  N9       1.0000 0.91890  0.74570  0.22480  Biso   1.000  N
  N10      1.0000 0.58760  0.40120  0.28360  Biso   1.000  N
  N11      1.0000 0.00240  0.83250  0.49640  Biso   1.000  N
  N12      1.0000 0.98600  0.87490  0.74500  Biso   1.000  N
  C40      1.0000 0.14900  0.88960  0.22900  Biso   1.000  C
  H37      1.0000 0.15450  0.84900  0.18030  Biso   1.000  H
  C41      1.0000 0.08290  0.95960  0.35200  Biso   1.000  C
  H38      1.0000 0.04140  0.96810  0.39230  Biso   1.000  H
  C42      1.0000 0.13500  0.00850  0.36740  Biso   1.000  C
  H39      1.0000 0.12810  0.04890  0.41590  Biso   1.000  H
  C43      1.0000 0.19750  0.99800  0.31110  Biso   1.000  C
  C44      1.0000 0.20400  0.93670  0.24370  Biso   1.000  C
  H40      1.0000 0.24610  0.92670  0.20720  Biso   1.000  H
  C45      1.0000 0.25690  0.09060  0.19270  Biso   1.000  C
  H41      1.0000 0.20970  0.11180  0.16590  Biso   1.000  H
  H42      1.0000 0.26230  0.06140  0.10730  Biso   1.000  H
  C46      1.0000 0.41670  0.20570  0.34280  Biso   1.000  C
  H43      1.0000 0.45130  0.21180  0.43270  Biso   1.000  H
  C47      1.0000 0.36620  0.15530  0.34170  Biso   1.000  C
  H44      1.0000 0.36660  0.12890  0.42910  Biso   1.000  H
  C48      1.0000 0.31870  0.18600  0.08190  Biso   1.000  C
  H45      1.0000 0.28640  0.18030  0.98850  Biso   1.000  H
  C49      1.0000 0.37010  0.23470  0.09490  Biso   1.000  C
  H46      1.0000 0.37150  0.26170  0.00920  Biso   1.000  H
  C50      1.0000 0.50170  0.34790  0.61900  Biso   1.000  C
  C51      1.0000 0.25770  0.04910  0.32990  Biso   1.000  C
  H47      1.0000 0.25400  0.07810  0.41680  Biso   1.000  H
  H48      1.0000 0.30390  0.02590  0.35450  Biso   1.000  H
  C52      1.0000 0.31390  0.14460  0.20610  Biso   1.000  C
  N13      1.0000 0.41890  0.24570  0.22480  Biso   1.000  N
  N14      1.0000 0.08760  0.90120  0.28360  Biso   1.000  N
  N15      1.0000 0.50240  0.33250  0.49640  Biso   1.000  N
  N16      1.0000 0.48600  0.37490  0.74500  Biso   1.000  N
  Zn1      1.0000 0.00000  0.82488  0.25000  Biso   1.000  Zn
  Zn2      1.0000 0.50000  0.32488  0.25000  Biso   1.000  Zn
  C53      1.0000 0.64900  0.61040  0.72900  Biso   1.000  C
  H49      1.0000 0.65450  0.65100  0.68030  Biso   1.000  H
  C54      1.0000 0.58290  0.54040  0.85200  Biso   1.000  C
  H50      1.0000 0.54140  0.53190  0.89230  Biso   1.000  H
  C55      1.0000 0.63500  0.49150  0.86740  Biso   1.000  C
  H51      1.0000 0.62810  0.45110  0.91590  Biso   1.000  H
  C56      1.0000 0.69750  0.50200  0.81110  Biso   1.000  C
  C57      1.0000 0.70400  0.56330  0.74370  Biso   1.000  C
  H52      1.0000 0.74610  0.57330  0.70720  Biso   1.000  H
  C58      1.0000 0.75690  0.40940  0.69270  Biso   1.000  C
  H53      1.0000 0.70970  0.38820  0.66590  Biso   1.000  H
  H54      1.0000 0.76230  0.43860  0.60730  Biso   1.000  H
  C59      1.0000 0.91670  0.29430  0.84280  Biso   1.000  C
  H55      1.0000 0.95130  0.28820  0.93270  Biso   1.000  H
  C60      1.0000 0.86620  0.34470  0.84170  Biso   1.000  C
  H56      1.0000 0.86660  0.37110  0.92910  Biso   1.000  H
  C61      1.0000 0.81870  0.31400  0.58190  Biso   1.000  C
  H57      1.0000 0.78640  0.31970  0.48850  Biso   1.000  H
  C62      1.0000 0.87010  0.26530  0.59490  Biso   1.000  C
  H58      1.0000 0.87150  0.23830  0.50920  Biso   1.000  H
  C63      1.0000 0.00170  0.15210  0.11900  Biso   1.000  C
  C64      1.0000 0.75770  0.45090  0.82990  Biso   1.000  C
  H59      1.0000 0.75400  0.42190  0.91680  Biso   1.000  H
  H60      1.0000 0.80390  0.47410  0.85450  Biso   1.000  H
  C65      1.0000 0.81390  0.35540  0.70610  Biso   1.000  C
  N17      1.0000 0.91890  0.25430  0.72480  Biso   1.000  N
  N18      1.0000 0.58760  0.59880  0.78360  Biso   1.000  N
  N19      1.0000 0.00240  0.16750  0.99640  Biso   1.000  N
  N20      1.0000 0.98600  0.12510  0.24500  Biso   1.000  N
  C66      1.0000 0.14900  0.11040  0.72900  Biso   1.000  C
  H61      1.0000 0.15450  0.15100  0.68030  Biso   1.000  H
  C67      1.0000 0.08290  0.04040  0.85200  Biso   1.000  C
  H62      1.0000 0.04140  0.03190  0.89230  Biso   1.000  H
  C68      1.0000 0.13500  0.99150  0.86740  Biso   1.000  C
  H63      1.0000 0.12810  0.95110  0.91590  Biso   1.000  H
  C69      1.0000 0.19750  0.00200  0.81110  Biso   1.000  C
  C70      1.0000 0.20400  0.06330  0.74370  Biso   1.000  C
  H64      1.0000 0.24610  0.07330  0.70720  Biso   1.000  H
  C71      1.0000 0.25690  0.90940  0.69270  Biso   1.000  C
  H65      1.0000 0.20970  0.88820  0.66590  Biso   1.000  H
  H66      1.0000 0.26230  0.93860  0.60730  Biso   1.000  H
  C72      1.0000 0.41670  0.79430  0.84280  Biso   1.000  C
  H67      1.0000 0.45130  0.78820  0.93270  Biso   1.000  H
  C73      1.0000 0.36620  0.84470  0.84170  Biso   1.000  C
  H68      1.0000 0.36660  0.87110  0.92910  Biso   1.000  H
  C74      1.0000 0.31870  0.81400  0.58190  Biso   1.000  C
  H69      1.0000 0.28640  0.81970  0.48850  Biso   1.000  H
  C75      1.0000 0.37010  0.76530  0.59490  Biso   1.000  C
  H70      1.0000 0.37150  0.73830  0.50920  Biso   1.000  H
  C76      1.0000 0.50170  0.65210  0.11900  Biso   1.000  C
  C77      1.0000 0.25770  0.95090  0.82990  Biso   1.000  C
  H71      1.0000 0.25400  0.92190  0.91680  Biso   1.000  H
  H72      1.0000 0.30390  0.97410  0.85450  Biso   1.000  H
  C78      1.0000 0.31390  0.85540  0.70610  Biso   1.000  C
  N21      1.0000 0.41890  0.75430  0.72480  Biso   1.000  N
  N22      1.0000 0.08760  0.09880  0.78360  Biso   1.000  N
  N23      1.0000 0.50240  0.66750  0.99640  Biso   1.000  N
  N24      1.0000 0.48600  0.62510  0.24500  Biso   1.000  N
  C79      1.0000 0.35100  0.61040  0.77100  Biso   1.000  C
  H73      1.0000 0.34550  0.65100  0.81970  Biso   1.000  H
  C80      1.0000 0.41710  0.54040  0.64800  Biso   1.000  C
  H74      1.0000 0.45860  0.53190  0.60770  Biso   1.000  H
  C81      1.0000 0.36500  0.49150  0.63260  Biso   1.000  C
  H75      1.0000 0.37190  0.45110  0.58410  Biso   1.000  H
  C82      1.0000 0.30250  0.50200  0.68890  Biso   1.000  C
  C83      1.0000 0.29600  0.56330  0.75630  Biso   1.000  C
  H76      1.0000 0.25390  0.57330  0.79280  Biso   1.000  H
  C84      1.0000 0.24310  0.40940  0.80730  Biso   1.000  C
  H77      1.0000 0.29030  0.38820  0.83410  Biso   1.000  H
  H78      1.0000 0.23770  0.43860  0.89270  Biso   1.000  H
  C85      1.0000 0.08330  0.29430  0.65720  Biso   1.000  C
  H79      1.0000 0.04870  0.28820  0.56730  Biso   1.000  H
  C86      1.0000 0.13380  0.34470  0.65830  Biso   1.000  C
  H80      1.0000 0.13340  0.37110  0.57090  Biso   1.000  H
  C87      1.0000 0.18130  0.31400  0.91810  Biso   1.000  C
  H81      1.0000 0.21360  0.31970  0.01150  Biso   1.000  H
  C88      1.0000 0.12990  0.26530  0.90510  Biso   1.000  C
  H82      1.0000 0.12850  0.23830  0.99080  Biso   1.000  H
  C89      1.0000 0.99830  0.15210  0.38100  Biso   1.000  C
  C90      1.0000 0.24230  0.45090  0.67010  Biso   1.000  C
  H83      1.0000 0.24600  0.42190  0.58320  Biso   1.000  H
  H84      1.0000 0.19610  0.47410  0.64550  Biso   1.000  H
  C91      1.0000 0.18610  0.35540  0.79390  Biso   1.000  C
  N25      1.0000 0.08110  0.25430  0.77520  Biso   1.000  N
  N26      1.0000 0.41240  0.59880  0.71640  Biso   1.000  N
  N27      1.0000 0.99760  0.16750  0.50360  Biso   1.000  N
  N28      1.0000 0.01400  0.12510  0.25500  Biso   1.000  N
  C92      1.0000 0.85100  0.11040  0.77100  Biso   1.000  C
  H85      1.0000 0.84550  0.15100  0.81970  Biso   1.000  H
  C93      1.0000 0.91710  0.04040  0.64800  Biso   1.000  C
  H86      1.0000 0.95860  0.03190  0.60770  Biso   1.000  H
  C94      1.0000 0.86500  0.99150  0.63260  Biso   1.000  C
  H87      1.0000 0.87190  0.95110  0.58410  Biso   1.000  H
  C95      1.0000 0.80250  0.00200  0.68890  Biso   1.000  C
  C96      1.0000 0.79600  0.06330  0.75630  Biso   1.000  C
  H88      1.0000 0.75390  0.07330  0.79280  Biso   1.000  H
  C97      1.0000 0.74310  0.90940  0.80730  Biso   1.000  C
  H89      1.0000 0.79030  0.88820  0.83410  Biso   1.000  H
  H90      1.0000 0.73770  0.93860  0.89270  Biso   1.000  H
  C98      1.0000 0.58330  0.79430  0.65720  Biso   1.000  C
  H91      1.0000 0.54870  0.78820  0.56730  Biso   1.000  H
  C99      1.0000 0.63380  0.84470  0.65830  Biso   1.000  C
  H92      1.0000 0.63340  0.87110  0.57090  Biso   1.000  H
  C100     1.0000 0.68130  0.81400  0.91810  Biso   1.000  C
  H93      1.0000 0.71360  0.81970  0.01150  Biso   1.000  H
  C101     1.0000 0.62990  0.76530  0.90510  Biso   1.000  C
  H94      1.0000 0.62850  0.73830  0.99080  Biso   1.000  H
  C102     1.0000 0.49830  0.65210  0.38100  Biso   1.000  C
  C103     1.0000 0.74230  0.95090  0.67010  Biso   1.000  C
  H95      1.0000 0.74600  0.92190  0.58320  Biso   1.000  H
  H96      1.0000 0.69610  0.97410  0.64550  Biso   1.000  H
  C104     1.0000 0.68610  0.85540  0.79390  Biso   1.000  C
  N29      1.0000 0.58110  0.75430  0.77520  Biso   1.000  N
  N30      1.0000 0.91240  0.09880  0.71640  Biso   1.000  N
  N31      1.0000 0.49760  0.66750  0.50360  Biso   1.000  N
  N32      1.0000 0.51400  0.62510  0.25500  Biso   1.000  N
  Zn3      1.0000 0.00000  0.17512  0.75000  Biso   1.000  Zn
  Zn4      1.0000 0.50000  0.67512  0.75000  Biso   1.000  Zn
