data_image0
_cell_length_a       18.7769
_cell_length_b       19.8686
_cell_length_c       8.7734
_cell_angle_alpha    90
_cell_angle_beta     100.967
_cell_angle_gamma    90

_symmetry_space_group_name_H-M    "P 1"
_symmetry_int_tables_number       1

loop_
  _symmetry_equiv_pos_as_xyz
  'x, y, z'

loop_
  _atom_site_label
  _atom_site_occupancy
  _atom_site_fract_x
  _atom_site_fract_y
  _atom_site_fract_z
  _atom_site_thermal_displace_type
  _atom_site_B_iso_or_equiv
  _atom_site_type_symbol
  N1       1.0000 0.08740  0.59900  0.28280  Biso   1.000  N
  C1       1.0000 0.20450  0.56330  0.24540  Biso   1.000  C
  H1       1.0000 0.24700  0.57320  0.21000  Biso   1.000  H
  N2       1.0000 0.41870  0.25400  0.22480  Biso   1.000  N
  C2       1.0000 0.31510  0.35550  0.20800  Biso   1.000  C
  C3       1.0000 0.13500  0.49140  0.36580  Biso   1.000  C
  H2       1.0000 0.12740  0.45020  0.41040  Biso   1.000  H
  N3       1.0000 0.99680  0.66770  0.00380  Biso   1.000  N
  C4       1.0000 0.14840  0.60990  0.22840  Biso   1.000  C
  H3       1.0000 0.15340  0.65020  0.17730  Biso   1.000  H
  C5       1.0000 0.37040  0.26470  0.09560  Biso   1.000  C
  H4       1.0000 0.37170  0.23760  0.00980  Biso   1.000  H
  C6       1.0000 0.36800  0.34610  0.33780  Biso   1.000  C
  H5       1.0000 0.37050  0.37480  0.42250  Biso   1.000  H
  N4       1.0000 0.98500  0.62480  0.73900  Biso   1.000  N
  C7       1.0000 0.19700  0.50250  0.31480  Biso   1.000  C
  C8       1.0000 0.08310  0.54020  0.35240  Biso   1.000  C
  H6       1.0000 0.04220  0.53180  0.39470  Biso   1.000  H
  C9       1.0000 0.31840  0.31430  0.08350  Biso   1.000  C
  H7       1.0000 0.28550  0.32010  0.99090  Biso   1.000  H
  C10      1.0000 0.25850  0.40890  0.19610  Biso   1.000  C
  H8       1.0000 0.26420  0.43890  0.11200  Biso   1.000  H
  H9       1.0000 0.21140  0.38750  0.16700  Biso   1.000  H
  C11      1.0000 0.41710  0.29480  0.34290  Biso   1.000  C
  H10      1.0000 0.45090  0.28840  0.43390  Biso   1.000  H
  C12      1.0000 0.99750  0.65220  0.88210  Biso   1.000  C
  C13      1.0000 0.25770  0.44900  0.33120  Biso   1.000  C
  H11      1.0000 0.30410  0.47160  0.35890  Biso   1.000  H
  H12      1.0000 0.25290  0.41920  0.41630  Biso   1.000  H
  N5       1.0000 0.58740  0.09900  0.28280  Biso   1.000  N
  C14      1.0000 0.70450  0.06330  0.24540  Biso   1.000  C
  H13      1.0000 0.74700  0.07320  0.21000  Biso   1.000  H
  N6       1.0000 0.91870  0.75400  0.22480  Biso   1.000  N
  C15      1.0000 0.81510  0.85550  0.20800  Biso   1.000  C
  C16      1.0000 0.63500  0.99140  0.36580  Biso   1.000  C
  H14      1.0000 0.62740  0.95020  0.41040  Biso   1.000  H
  N7       1.0000 0.49680  0.16770  0.00380  Biso   1.000  N
  C17      1.0000 0.64840  0.10990  0.22840  Biso   1.000  C
  H15      1.0000 0.65340  0.15020  0.17730  Biso   1.000  H
  C18      1.0000 0.87040  0.76470  0.09560  Biso   1.000  C
  H16      1.0000 0.87170  0.73760  0.00980  Biso   1.000  H
  C19      1.0000 0.86800  0.84610  0.33780  Biso   1.000  C
  H17      1.0000 0.87050  0.87480  0.42250  Biso   1.000  H
  N8       1.0000 0.48500  0.12480  0.73900  Biso   1.000  N
  C20      1.0000 0.69700  0.00250  0.31480  Biso   1.000  C
  C21      1.0000 0.58310  0.04020  0.35240  Biso   1.000  C
  H18      1.0000 0.54220  0.03180  0.39470  Biso   1.000  H
  C22      1.0000 0.81840  0.81430  0.08350  Biso   1.000  C
  H19      1.0000 0.78550  0.82010  0.99090  Biso   1.000  H
  C23      1.0000 0.75850  0.90890  0.19610  Biso   1.000  C
  H20      1.0000 0.76420  0.93890  0.11200  Biso   1.000  H
  H21      1.0000 0.71140  0.88750  0.16700  Biso   1.000  H
  C24      1.0000 0.91710  0.79480  0.34290  Biso   1.000  C
  H22      1.0000 0.95090  0.78840  0.43390  Biso   1.000  H
  C25      1.0000 0.49750  0.15220  0.88210  Biso   1.000  C
  C26      1.0000 0.75770  0.94900  0.33120  Biso   1.000  C
  H23      1.0000 0.80410  0.97160  0.35890  Biso   1.000  H
  H24      1.0000 0.75290  0.91920  0.41630  Biso   1.000  H
  N9       1.0000 0.91260  0.59900  0.21720  Biso   1.000  N
  C27      1.0000 0.79550  0.56330  0.25460  Biso   1.000  C
  H25      1.0000 0.75300  0.57320  0.29000  Biso   1.000  H
  N10      1.0000 0.58130  0.25400  0.27520  Biso   1.000  N
  C28      1.0000 0.68490  0.35550  0.29200  Biso   1.000  C
  C29      1.0000 0.86500  0.49140  0.13420  Biso   1.000  C
  H26      1.0000 0.87260  0.45020  0.08960  Biso   1.000  H
  N11      1.0000 0.00320  0.66770  0.49620  Biso   1.000  N
  C30      1.0000 0.85160  0.60990  0.27160  Biso   1.000  C
  H27      1.0000 0.84660  0.65020  0.32270  Biso   1.000  H
  C31      1.0000 0.62960  0.26470  0.40440  Biso   1.000  C
  H28      1.0000 0.62830  0.23760  0.49020  Biso   1.000  H
  C32      1.0000 0.63200  0.34610  0.16220  Biso   1.000  C
  H29      1.0000 0.62950  0.37480  0.07750  Biso   1.000  H
  N12      1.0000 0.01500  0.62480  0.76100  Biso   1.000  N
  C33      1.0000 0.80300  0.50250  0.18520  Biso   1.000  C
  C34      1.0000 0.91690  0.54020  0.14760  Biso   1.000  C
  H30      1.0000 0.95780  0.53180  0.10530  Biso   1.000  H
  C35      1.0000 0.68160  0.31430  0.41650  Biso   1.000  C
  H31      1.0000 0.71450  0.32010  0.50910  Biso   1.000  H
  C36      1.0000 0.74150  0.40890  0.30390  Biso   1.000  C
  H32      1.0000 0.73580  0.43890  0.38800  Biso   1.000  H
  H33      1.0000 0.78860  0.38750  0.33300  Biso   1.000  H
  C37      1.0000 0.58290  0.29480  0.15710  Biso   1.000  C
  H34      1.0000 0.54910  0.28840  0.06610  Biso   1.000  H
  C38      1.0000 0.00250  0.65220  0.61790  Biso   1.000  C
  C39      1.0000 0.74230  0.44900  0.16880  Biso   1.000  C
  H35      1.0000 0.69590  0.47160  0.14110  Biso   1.000  H
  H36      1.0000 0.74710  0.41920  0.08370  Biso   1.000  H
  N13      1.0000 0.41260  0.09900  0.21720  Biso   1.000  N
  C40      1.0000 0.29550  0.06330  0.25460  Biso   1.000  C
  H37      1.0000 0.25300  0.07320  0.29000  Biso   1.000  H
  N14      1.0000 0.08130  0.75400  0.27520  Biso   1.000  N
  C41      1.0000 0.18490  0.85550  0.29200  Biso   1.000  C
  C42      1.0000 0.36500  0.99140  0.13420  Biso   1.000  C
  H38      1.0000 0.37260  0.95020  0.08960  Biso   1.000  H
  N15      1.0000 0.50320  0.16770  0.49620  Biso   1.000  N
  C43      1.0000 0.35160  0.10990  0.27160  Biso   1.000  C
  H39      1.0000 0.34660  0.15020  0.32270  Biso   1.000  H
  C44      1.0000 0.12960  0.76470  0.40440  Biso   1.000  C
  H40      1.0000 0.12830  0.73760  0.49020  Biso   1.000  H
  C45      1.0000 0.13200  0.84610  0.16220  Biso   1.000  C
  H41      1.0000 0.12950  0.87480  0.07750  Biso   1.000  H
  N16      1.0000 0.51500  0.12480  0.76100  Biso   1.000  N
  C46      1.0000 0.30300  0.00250  0.18520  Biso   1.000  C
  C47      1.0000 0.41690  0.04020  0.14760  Biso   1.000  C
  H42      1.0000 0.45780  0.03180  0.10530  Biso   1.000  H
  C48      1.0000 0.18160  0.81430  0.41650  Biso   1.000  C
  H43      1.0000 0.21450  0.82010  0.50910  Biso   1.000  H
  C49      1.0000 0.24150  0.90890  0.30390  Biso   1.000  C
  H44      1.0000 0.23580  0.93890  0.38800  Biso   1.000  H
  H45      1.0000 0.28860  0.88750  0.33300  Biso   1.000  H
  C50      1.0000 0.08290  0.79480  0.15710  Biso   1.000  C
  H46      1.0000 0.04910  0.78840  0.06610  Biso   1.000  H
  C51      1.0000 0.50250  0.15220  0.61790  Biso   1.000  C
  C52      1.0000 0.24230  0.94900  0.16880  Biso   1.000  C
  H47      1.0000 0.19590  0.97160  0.14110  Biso   1.000  H
  H48      1.0000 0.24710  0.91920  0.08370  Biso   1.000  H
  Zn1      1.0000 0.00000  0.67525  0.25000  Biso   1.000  Zn
  Zn2      1.0000 0.50000  0.17525  0.25000  Biso   1.000  Zn
  N17      1.0000 0.91260  0.40100  0.71720  Biso   1.000  N
  C53      1.0000 0.79550  0.43670  0.75460  Biso   1.000  C
  H49      1.0000 0.75300  0.42680  0.79000  Biso   1.000  H
  N18      1.0000 0.58130  0.74600  0.77520  Biso   1.000  N
  C54      1.0000 0.68490  0.64450  0.79200  Biso   1.000  C
  C55      1.0000 0.86500  0.50860  0.63420  Biso   1.000  C
  H50      1.0000 0.87260  0.54980  0.58960  Biso   1.000  H
  N19      1.0000 0.00320  0.33230  0.99620  Biso   1.000  N
  C56      1.0000 0.85160  0.39010  0.77160  Biso   1.000  C
  H51      1.0000 0.84660  0.34980  0.82270  Biso   1.000  H
  C57      1.0000 0.62960  0.73530  0.90440  Biso   1.000  C
  H52      1.0000 0.62830  0.76240  0.99020  Biso   1.000  H
  C58      1.0000 0.63200  0.65390  0.66220  Biso   1.000  C
  H53      1.0000 0.62950  0.62520  0.57750  Biso   1.000  H
  N20      1.0000 0.01500  0.37520  0.26100  Biso   1.000  N
  C59      1.0000 0.80300  0.49750  0.68520  Biso   1.000  C
  C60      1.0000 0.91690  0.45980  0.64760  Biso   1.000  C
  H54      1.0000 0.95780  0.46820  0.60530  Biso   1.000  H
  C61      1.0000 0.68160  0.68570  0.91650  Biso   1.000  C
  H55      1.0000 0.71450  0.67990  0.00910  Biso   1.000  H
  C62      1.0000 0.74150  0.59110  0.80390  Biso   1.000  C
  H56      1.0000 0.73580  0.56110  0.88800  Biso   1.000  H
  H57      1.0000 0.78860  0.61250  0.83300  Biso   1.000  H
  C63      1.0000 0.58290  0.70520  0.65710  Biso   1.000  C
  H58      1.0000 0.54910  0.71160  0.56610  Biso   1.000  H
  C64      1.0000 0.00250  0.34780  0.11790  Biso   1.000  C
  C65      1.0000 0.74230  0.55100  0.66880  Biso   1.000  C
  H59      1.0000 0.69590  0.52840  0.64110  Biso   1.000  H
  H60      1.0000 0.74710  0.58080  0.58370  Biso   1.000  H
  N21      1.0000 0.41260  0.90100  0.71720  Biso   1.000  N
  C66      1.0000 0.29550  0.93670  0.75460  Biso   1.000  C
  H61      1.0000 0.25300  0.92680  0.79000  Biso   1.000  H
  N22      1.0000 0.08130  0.24600  0.77520  Biso   1.000  N
  C67      1.0000 0.18490  0.14450  0.79200  Biso   1.000  C
  C68      1.0000 0.36500  0.00860  0.63420  Biso   1.000  C
  H62      1.0000 0.37260  0.04980  0.58960  Biso   1.000  H
  N23      1.0000 0.50320  0.83230  0.99620  Biso   1.000  N
  C69      1.0000 0.35160  0.89010  0.77160  Biso   1.000  C
  H63      1.0000 0.34660  0.84980  0.82270  Biso   1.000  H
  C70      1.0000 0.12960  0.23530  0.90440  Biso   1.000  C
  H64      1.0000 0.12830  0.26240  0.99020  Biso   1.000  H
  C71      1.0000 0.13200  0.15390  0.66220  Biso   1.000  C
  H65      1.0000 0.12950  0.12520  0.57750  Biso   1.000  H
  N24      1.0000 0.51500  0.87520  0.26100  Biso   1.000  N
  C72      1.0000 0.30300  0.99750  0.68520  Biso   1.000  C
  C73      1.0000 0.41690  0.95980  0.64760  Biso   1.000  C
  H66      1.0000 0.45780  0.96820  0.60530  Biso   1.000  H
  C74      1.0000 0.18160  0.18570  0.91650  Biso   1.000  C
  H67      1.0000 0.21450  0.17990  0.00910  Biso   1.000  H
  C75      1.0000 0.24150  0.09110  0.80390  Biso   1.000  C
  H68      1.0000 0.23580  0.06110  0.88800  Biso   1.000  H
  H69      1.0000 0.28860  0.11250  0.83300  Biso   1.000  H
  C76      1.0000 0.08290  0.20520  0.65710  Biso   1.000  C
  H70      1.0000 0.04910  0.21160  0.56610  Biso   1.000  H
  C77      1.0000 0.50250  0.84780  0.11790  Biso   1.000  C
  C78      1.0000 0.24230  0.05100  0.66880  Biso   1.000  C
  H71      1.0000 0.19590  0.02840  0.64110  Biso   1.000  H
  H72      1.0000 0.24710  0.08080  0.58370  Biso   1.000  H
  N25      1.0000 0.08740  0.40100  0.78280  Biso   1.000  N
  C79      1.0000 0.20450  0.43670  0.74540  Biso   1.000  C
  H73      1.0000 0.24700  0.42680  0.71000  Biso   1.000  H
  N26      1.0000 0.41870  0.74600  0.72480  Biso   1.000  N
  C80      1.0000 0.31510  0.64450  0.70800  Biso   1.000  C
  C81      1.0000 0.13500  0.50860  0.86580  Biso   1.000  C
  H74      1.0000 0.12740  0.54980  0.91040  Biso   1.000  H
  N27      1.0000 0.99680  0.33230  0.50380  Biso   1.000  N
  C82      1.0000 0.14840  0.39010  0.72840  Biso   1.000  C
  H75      1.0000 0.15340  0.34980  0.67730  Biso   1.000  H
  C83      1.0000 0.37040  0.73530  0.59560  Biso   1.000  C
  H76      1.0000 0.37170  0.76240  0.50980  Biso   1.000  H
  C84      1.0000 0.36800  0.65390  0.83780  Biso   1.000  C
  H77      1.0000 0.37050  0.62520  0.92250  Biso   1.000  H
  N28      1.0000 0.98500  0.37520  0.23900  Biso   1.000  N
  C85      1.0000 0.19700  0.49750  0.81480  Biso   1.000  C
  C86      1.0000 0.08310  0.45980  0.85240  Biso   1.000  C
  H78      1.0000 0.04220  0.46820  0.89470  Biso   1.000  H
  C87      1.0000 0.31840  0.68570  0.58350  Biso   1.000  C
  H79      1.0000 0.28550  0.67990  0.49090  Biso   1.000  H
  C88      1.0000 0.25850  0.59110  0.69610  Biso   1.000  C
  H80      1.0000 0.26420  0.56110  0.61200  Biso   1.000  H
  H81      1.0000 0.21140  0.61250  0.66700  Biso   1.000  H
  C89      1.0000 0.41710  0.70520  0.84290  Biso   1.000  C
  H82      1.0000 0.45090  0.71160  0.93390  Biso   1.000  H
  C90      1.0000 0.99750  0.34780  0.38210  Biso   1.000  C
  C91      1.0000 0.25770  0.55100  0.83120  Biso   1.000  C
  H83      1.0000 0.30410  0.52840  0.85890  Biso   1.000  H
  H84      1.0000 0.25290  0.58080  0.91630  Biso   1.000  H
  N29      1.0000 0.58740  0.90100  0.78280  Biso   1.000  N
  C92      1.0000 0.70450  0.93670  0.74540  Biso   1.000  C
  H85      1.0000 0.74700  0.92680  0.71000  Biso   1.000  H
  N30      1.0000 0.91870  0.24600  0.72480  Biso   1.000  N
  C93      1.0000 0.81510  0.14450  0.70800  Biso   1.000  C
  C94      1.0000 0.63500  0.00860  0.86580  Biso   1.000  C
  H86      1.0000 0.62740  0.04980  0.91040  Biso   1.000  H
  N31      1.0000 0.49680  0.83230  0.50380  Biso   1.000  N
  C95      1.0000 0.64840  0.89010  0.72840  Biso   1.000  C
  H87      1.0000 0.65340  0.84980  0.67730  Biso   1.000  H
  C96      1.0000 0.87040  0.23530  0.59560  Biso   1.000  C
  H88      1.0000 0.87170  0.26240  0.50980  Biso   1.000  H
  C97      1.0000 0.86800  0.15390  0.83780  Biso   1.000  C
  H89      1.0000 0.87050  0.12520  0.92250  Biso   1.000  H
  N32      1.0000 0.48500  0.87520  0.23900  Biso   1.000  N
  C98      1.0000 0.69700  0.99750  0.81480  Biso   1.000  C
  C99      1.0000 0.58310  0.95980  0.85240  Biso   1.000  C
  H90      1.0000 0.54220  0.96820  0.89470  Biso   1.000  H
  C100     1.0000 0.81840  0.18570  0.58350  Biso   1.000  C
  H91      1.0000 0.78550  0.17990  0.49090  Biso   1.000  H
  C101     1.0000 0.75850  0.09110  0.69610  Biso   1.000  C
  H92      1.0000 0.76420  0.06110  0.61200  Biso   1.000  H
  H93      1.0000 0.71140  0.11250  0.66700  Biso   1.000  H
  C102     1.0000 0.91710  0.20520  0.84290  Biso   1.000  C
  H94      1.0000 0.95090  0.21160  0.93390  Biso   1.000  H
  C103     1.0000 0.49750  0.84780  0.38210  Biso   1.000  C
  C104     1.0000 0.75770  0.05100  0.83120  Biso   1.000  C
  H95      1.0000 0.80410  0.02840  0.85890  Biso   1.000  H
  H96      1.0000 0.75290  0.08080  0.91630  Biso   1.000  H
  Zn3      1.0000 0.00000  0.32475  0.75000  Biso   1.000  Zn
  Zn4      1.0000 0.50000  0.82475  0.75000  Biso   1.000  Zn
