data_image0
_cell_length_a       18.5114
_cell_length_b       20.0115
_cell_length_c       8.7093
_cell_angle_alpha    90
_cell_angle_beta     100.555
_cell_angle_gamma    90

_symmetry_space_group_name_H-M    "P 1"
_symmetry_int_tables_number       1

loop_
  _symmetry_equiv_pos_as_xyz
  'x, y, z'

loop_
  _atom_site_label
  _atom_site_occupancy
  _atom_site_fract_x
  _atom_site_fract_y
  _atom_site_fract_z
  _atom_site_thermal_displace_type
  _atom_site_B_iso_or_equiv
  _atom_site_type_symbol
  N1       1.0000 0.91967  0.25373  0.72440  Biso   1.000  N
  N2       1.0000 0.00115  0.16809  0.99250  Biso   1.000  N
  N3       1.0000 0.58795  0.60039  0.78450  Biso   1.000  N
  C1       1.0000 0.86973  0.26450  0.59500  Biso   1.000  C
  H1       1.0000 0.86980  0.23670  0.50950  Biso   1.000  H
  C2       1.0000 0.91918  0.29613  0.84210  Biso   1.000  C
  H2       1.0000 0.95450  0.29090  0.93210  Biso   1.000  H
  C3       1.0000 0.81820  0.31475  0.58230  Biso   1.000  C
  H3       1.0000 0.78490  0.32030  0.48930  Biso   1.000  H
  C4       1.0000 0.81560  0.35669  0.70600  Biso   1.000  C
  C5       1.0000 0.64993  0.61052  0.73250  Biso   1.000  C
  H4       1.0000 0.65580  0.65080  0.68290  Biso   1.000  H
  C6       1.0000 0.86910  0.34736  0.83760  Biso   1.000  C
  H5       1.0000 0.87120  0.37560  0.92300  Biso   1.000  H
  C7       1.0000 0.58207  0.54224  0.85690  Biso   1.000  C
  H6       1.0000 0.54040  0.53470  0.89990  Biso   1.000  H
  C8       1.0000 0.69830  0.50257  0.81650  Biso   1.000  C
  C9       1.0000 0.63510  0.49270  0.87080  Biso   1.000  C
  H7       1.0000 0.62730  0.45230  0.91780  Biso   1.000  H
  C10      1.0000 0.00040  0.15246  0.11640  Biso   1.000  C
  N4       1.0000 0.01480  0.12530  0.25450  Biso   1.000  N
  C11      1.0000 0.75650  0.44910  0.83640  Biso   1.000  C
  H8       1.0000 0.80420  0.46990  0.86910  Biso   1.000  H
  H9       1.0000 0.74840  0.41900  0.91890  Biso   1.000  H
  C12      1.0000 0.70660  0.56420  0.74820  Biso   1.000  C
  H10      1.0000 0.74980  0.57440  0.71320  Biso   1.000  H
  C13      1.0000 0.75760  0.41000  0.69340  Biso   1.000  C
  H11      1.0000 0.76430  0.44060  0.61080  Biso   1.000  H
  H12      1.0000 0.70990  0.38900  0.66220  Biso   1.000  H
  N5       1.0000 0.41967  0.75373  0.72440  Biso   1.000  N
  N6       1.0000 0.50115  0.66809  0.99250  Biso   1.000  N
  N7       1.0000 0.08795  0.10039  0.78450  Biso   1.000  N
  C14      1.0000 0.36973  0.76450  0.59500  Biso   1.000  C
  H13      1.0000 0.36980  0.73670  0.50950  Biso   1.000  H
  C15      1.0000 0.41918  0.79613  0.84210  Biso   1.000  C
  H14      1.0000 0.45450  0.79090  0.93210  Biso   1.000  H
  C16      1.0000 0.31820  0.81475  0.58230  Biso   1.000  C
  H15      1.0000 0.28490  0.82030  0.48930  Biso   1.000  H
  C17      1.0000 0.31560  0.85669  0.70600  Biso   1.000  C
  C18      1.0000 0.14993  0.11052  0.73250  Biso   1.000  C
  H16      1.0000 0.15580  0.15080  0.68290  Biso   1.000  H
  C19      1.0000 0.36910  0.84736  0.83760  Biso   1.000  C
  H17      1.0000 0.37120  0.87560  0.92300  Biso   1.000  H
  C20      1.0000 0.08207  0.04224  0.85690  Biso   1.000  C
  H18      1.0000 0.04040  0.03470  0.89990  Biso   1.000  H
  C21      1.0000 0.19830  0.00257  0.81650  Biso   1.000  C
  C22      1.0000 0.13510  0.99270  0.87080  Biso   1.000  C
  H19      1.0000 0.12730  0.95230  0.91780  Biso   1.000  H
  C23      1.0000 0.50040  0.65246  0.11640  Biso   1.000  C
  N8       1.0000 0.51480  0.62530  0.25450  Biso   1.000  N
  C24      1.0000 0.25650  0.94910  0.83640  Biso   1.000  C
  H20      1.0000 0.30420  0.96990  0.86910  Biso   1.000  H
  H21      1.0000 0.24840  0.91900  0.91890  Biso   1.000  H
  C25      1.0000 0.20660  0.06420  0.74820  Biso   1.000  C
  H22      1.0000 0.24980  0.07440  0.71320  Biso   1.000  H
  C26      1.0000 0.25760  0.91000  0.69340  Biso   1.000  C
  H23      1.0000 0.26430  0.94060  0.61080  Biso   1.000  H
  H24      1.0000 0.20990  0.88900  0.66220  Biso   1.000  H
  N9       1.0000 0.08033  0.25373  0.77560  Biso   1.000  N
  N10      1.0000 0.99885  0.16809  0.50750  Biso   1.000  N
  N11      1.0000 0.41205  0.60039  0.71550  Biso   1.000  N
  C27      1.0000 0.13027  0.26450  0.90500  Biso   1.000  C
  H25      1.0000 0.13020  0.23670  0.99050  Biso   1.000  H
  C28      1.0000 0.08082  0.29613  0.65790  Biso   1.000  C
  H26      1.0000 0.04550  0.29090  0.56790  Biso   1.000  H
  C29      1.0000 0.18180  0.31475  0.91770  Biso   1.000  C
  H27      1.0000 0.21510  0.32030  0.01070  Biso   1.000  H
  C30      1.0000 0.18440  0.35669  0.79400  Biso   1.000  C
  C31      1.0000 0.35007  0.61052  0.76750  Biso   1.000  C
  H28      1.0000 0.34420  0.65080  0.81710  Biso   1.000  H
  C32      1.0000 0.13090  0.34736  0.66240  Biso   1.000  C
  H29      1.0000 0.12880  0.37560  0.57700  Biso   1.000  H
  C33      1.0000 0.41793  0.54224  0.64310  Biso   1.000  C
  H30      1.0000 0.45960  0.53470  0.60010  Biso   1.000  H
  C34      1.0000 0.30170  0.50257  0.68350  Biso   1.000  C
  C35      1.0000 0.36490  0.49270  0.62920  Biso   1.000  C
  H31      1.0000 0.37270  0.45230  0.58220  Biso   1.000  H
  C36      1.0000 0.99960  0.15246  0.38360  Biso   1.000  C
  N12      1.0000 0.98520  0.12530  0.24550  Biso   1.000  N
  C37      1.0000 0.24350  0.44910  0.66360  Biso   1.000  C
  H32      1.0000 0.19580  0.46990  0.63090  Biso   1.000  H
  H33      1.0000 0.25160  0.41900  0.58110  Biso   1.000  H
  C38      1.0000 0.29340  0.56420  0.75180  Biso   1.000  C
  H34      1.0000 0.25020  0.57440  0.78680  Biso   1.000  H
  C39      1.0000 0.24240  0.41000  0.80660  Biso   1.000  C
  H35      1.0000 0.23570  0.44060  0.88920  Biso   1.000  H
  H36      1.0000 0.29010  0.38900  0.83780  Biso   1.000  H
  N13      1.0000 0.58033  0.75373  0.77560  Biso   1.000  N
  N14      1.0000 0.49885  0.66809  0.50750  Biso   1.000  N
  N15      1.0000 0.91205  0.10039  0.71550  Biso   1.000  N
  C40      1.0000 0.63027  0.76450  0.90500  Biso   1.000  C
  H37      1.0000 0.63020  0.73670  0.99050  Biso   1.000  H
  C41      1.0000 0.58082  0.79613  0.65790  Biso   1.000  C
  H38      1.0000 0.54550  0.79090  0.56790  Biso   1.000  H
  C42      1.0000 0.68180  0.81475  0.91770  Biso   1.000  C
  H39      1.0000 0.71510  0.82030  0.01070  Biso   1.000  H
  C43      1.0000 0.68440  0.85669  0.79400  Biso   1.000  C
  C44      1.0000 0.85007  0.11052  0.76750  Biso   1.000  C
  H40      1.0000 0.84420  0.15080  0.81710  Biso   1.000  H
  C45      1.0000 0.63090  0.84736  0.66240  Biso   1.000  C
  H41      1.0000 0.62880  0.87560  0.57700  Biso   1.000  H
  C46      1.0000 0.91793  0.04224  0.64310  Biso   1.000  C
  H42      1.0000 0.95960  0.03470  0.60010  Biso   1.000  H
  C47      1.0000 0.80170  0.00257  0.68350  Biso   1.000  C
  C48      1.0000 0.86490  0.99270  0.62920  Biso   1.000  C
  H43      1.0000 0.87270  0.95230  0.58220  Biso   1.000  H
  C49      1.0000 0.49960  0.65246  0.38360  Biso   1.000  C
  N16      1.0000 0.48520  0.62530  0.24550  Biso   1.000  N
  C50      1.0000 0.74350  0.94910  0.66360  Biso   1.000  C
  H44      1.0000 0.69580  0.96990  0.63090  Biso   1.000  H
  H45      1.0000 0.75160  0.91900  0.58110  Biso   1.000  H
  C51      1.0000 0.79340  0.06420  0.75180  Biso   1.000  C
  H46      1.0000 0.75020  0.07440  0.78680  Biso   1.000  H
  C52      1.0000 0.74240  0.91000  0.80660  Biso   1.000  C
  H47      1.0000 0.73570  0.94060  0.88920  Biso   1.000  H
  H48      1.0000 0.79010  0.88900  0.83780  Biso   1.000  H
  Co1      1.0000 0.00000  0.17504  0.75000  Biso   1.000  Co
  Co2      1.0000 0.50000  0.67504  0.75000  Biso   1.000  Co
  N17      1.0000 0.08033  0.74627  0.27560  Biso   1.000  N
  N18      1.0000 0.99885  0.83191  0.00750  Biso   1.000  N
  N19      1.0000 0.41205  0.39961  0.21550  Biso   1.000  N
  C53      1.0000 0.13027  0.73550  0.40500  Biso   1.000  C
  H49      1.0000 0.13020  0.76330  0.49050  Biso   1.000  H
  C54      1.0000 0.08082  0.70387  0.15790  Biso   1.000  C
  H50      1.0000 0.04550  0.70910  0.06790  Biso   1.000  H
  C55      1.0000 0.18180  0.68525  0.41770  Biso   1.000  C
  H51      1.0000 0.21510  0.67970  0.51070  Biso   1.000  H
  C56      1.0000 0.18440  0.64331  0.29400  Biso   1.000  C
  C57      1.0000 0.35007  0.38948  0.26750  Biso   1.000  C
  H52      1.0000 0.34420  0.34920  0.31710  Biso   1.000  H
  C58      1.0000 0.13090  0.65264  0.16240  Biso   1.000  C
  H53      1.0000 0.12880  0.62440  0.07700  Biso   1.000  H
  C59      1.0000 0.41793  0.45776  0.14310  Biso   1.000  C
  H54      1.0000 0.45960  0.46530  0.10010  Biso   1.000  H
  C60      1.0000 0.30170  0.49743  0.18350  Biso   1.000  C
  C61      1.0000 0.36490  0.50730  0.12920  Biso   1.000  C
  H55      1.0000 0.37270  0.54770  0.08220  Biso   1.000  H
  C62      1.0000 0.99960  0.84754  0.88360  Biso   1.000  C
  N20      1.0000 0.98520  0.87470  0.74550  Biso   1.000  N
  C63      1.0000 0.24350  0.55090  0.16360  Biso   1.000  C
  H56      1.0000 0.19580  0.53010  0.13090  Biso   1.000  H
  H57      1.0000 0.25160  0.58100  0.08110  Biso   1.000  H
  C64      1.0000 0.29340  0.43580  0.25180  Biso   1.000  C
  H58      1.0000 0.25020  0.42560  0.28680  Biso   1.000  H
  C65      1.0000 0.24240  0.59000  0.30660  Biso   1.000  C
  H59      1.0000 0.23570  0.55940  0.38920  Biso   1.000  H
  H60      1.0000 0.29010  0.61100  0.33780  Biso   1.000  H
  N21      1.0000 0.58033  0.24627  0.27560  Biso   1.000  N
  N22      1.0000 0.49885  0.33191  0.00750  Biso   1.000  N
  N23      1.0000 0.91205  0.89961  0.21550  Biso   1.000  N
  C66      1.0000 0.63027  0.23550  0.40500  Biso   1.000  C
  H61      1.0000 0.63020  0.26330  0.49050  Biso   1.000  H
  C67      1.0000 0.58082  0.20387  0.15790  Biso   1.000  C
  H62      1.0000 0.54550  0.20910  0.06790  Biso   1.000  H
  C68      1.0000 0.68180  0.18525  0.41770  Biso   1.000  C
  H63      1.0000 0.71510  0.17970  0.51070  Biso   1.000  H
  C69      1.0000 0.68440  0.14331  0.29400  Biso   1.000  C
  C70      1.0000 0.85007  0.88948  0.26750  Biso   1.000  C
  H64      1.0000 0.84420  0.84920  0.31710  Biso   1.000  H
  C71      1.0000 0.63090  0.15264  0.16240  Biso   1.000  C
  H65      1.0000 0.62880  0.12440  0.07700  Biso   1.000  H
  C72      1.0000 0.91793  0.95776  0.14310  Biso   1.000  C
  H66      1.0000 0.95960  0.96530  0.10010  Biso   1.000  H
  C73      1.0000 0.80170  0.99743  0.18350  Biso   1.000  C
  C74      1.0000 0.86490  0.00730  0.12920  Biso   1.000  C
  H67      1.0000 0.87270  0.04770  0.08220  Biso   1.000  H
  C75      1.0000 0.49960  0.34754  0.88360  Biso   1.000  C
  N24      1.0000 0.48520  0.37470  0.74550  Biso   1.000  N
  C76      1.0000 0.74350  0.05090  0.16360  Biso   1.000  C
  H68      1.0000 0.69580  0.03010  0.13090  Biso   1.000  H
  H69      1.0000 0.75160  0.08100  0.08110  Biso   1.000  H
  C77      1.0000 0.79340  0.93580  0.25180  Biso   1.000  C
  H70      1.0000 0.75020  0.92560  0.28680  Biso   1.000  H
  C78      1.0000 0.74240  0.09000  0.30660  Biso   1.000  C
  H71      1.0000 0.73570  0.05940  0.38920  Biso   1.000  H
  H72      1.0000 0.79010  0.11100  0.33780  Biso   1.000  H
  N25      1.0000 0.91967  0.74627  0.22440  Biso   1.000  N
  N26      1.0000 0.00115  0.83191  0.49250  Biso   1.000  N
  N27      1.0000 0.58795  0.39961  0.28450  Biso   1.000  N
  C79      1.0000 0.86973  0.73550  0.09500  Biso   1.000  C
  H73      1.0000 0.86980  0.76330  0.00950  Biso   1.000  H
  C80      1.0000 0.91918  0.70387  0.34210  Biso   1.000  C
  H74      1.0000 0.95450  0.70910  0.43210  Biso   1.000  H
  C81      1.0000 0.81820  0.68525  0.08230  Biso   1.000  C
  H75      1.0000 0.78490  0.67970  0.98930  Biso   1.000  H
  C82      1.0000 0.81560  0.64331  0.20600  Biso   1.000  C
  C83      1.0000 0.64993  0.38948  0.23250  Biso   1.000  C
  H76      1.0000 0.65580  0.34920  0.18290  Biso   1.000  H
  C84      1.0000 0.86910  0.65264  0.33760  Biso   1.000  C
  H77      1.0000 0.87120  0.62440  0.42300  Biso   1.000  H
  C85      1.0000 0.58207  0.45776  0.35690  Biso   1.000  C
  H78      1.0000 0.54040  0.46530  0.39990  Biso   1.000  H
  C86      1.0000 0.69830  0.49743  0.31650  Biso   1.000  C
  C87      1.0000 0.63510  0.50730  0.37080  Biso   1.000  C
  H79      1.0000 0.62730  0.54770  0.41780  Biso   1.000  H
  C88      1.0000 0.00040  0.84754  0.61640  Biso   1.000  C
  N28      1.0000 0.01480  0.87470  0.75450  Biso   1.000  N
  C89      1.0000 0.75650  0.55090  0.33640  Biso   1.000  C
  H80      1.0000 0.80420  0.53010  0.36910  Biso   1.000  H
  H81      1.0000 0.74840  0.58100  0.41890  Biso   1.000  H
  C90      1.0000 0.70660  0.43580  0.24820  Biso   1.000  C
  H82      1.0000 0.74980  0.42560  0.21320  Biso   1.000  H
  C91      1.0000 0.75760  0.59000  0.19340  Biso   1.000  C
  H83      1.0000 0.76430  0.55940  0.11080  Biso   1.000  H
  H84      1.0000 0.70990  0.61100  0.16220  Biso   1.000  H
  N29      1.0000 0.41967  0.24627  0.22440  Biso   1.000  N
  N30      1.0000 0.50115  0.33191  0.49250  Biso   1.000  N
  N31      1.0000 0.08795  0.89961  0.28450  Biso   1.000  N
  C92      1.0000 0.36973  0.23550  0.09500  Biso   1.000  C
  H85      1.0000 0.36980  0.26330  0.00950  Biso   1.000  H
  C93      1.0000 0.41918  0.20387  0.34210  Biso   1.000  C
  H86      1.0000 0.45450  0.20910  0.43210  Biso   1.000  H
  C94      1.0000 0.31820  0.18525  0.08230  Biso   1.000  C
  H87      1.0000 0.28490  0.17970  0.98930  Biso   1.000  H
  C95      1.0000 0.31560  0.14331  0.20600  Biso   1.000  C
  C96      1.0000 0.14993  0.88948  0.23250  Biso   1.000  C
  H88      1.0000 0.15580  0.84920  0.18290  Biso   1.000  H
  C97      1.0000 0.36910  0.15264  0.33760  Biso   1.000  C
  H89      1.0000 0.37120  0.12440  0.42300  Biso   1.000  H
  C98      1.0000 0.08207  0.95776  0.35690  Biso   1.000  C
  H90      1.0000 0.04040  0.96530  0.39990  Biso   1.000  H
  C99      1.0000 0.19830  0.99743  0.31650  Biso   1.000  C
  C100     1.0000 0.13510  0.00730  0.37080  Biso   1.000  C
  H91      1.0000 0.12730  0.04770  0.41780  Biso   1.000  H
  C101     1.0000 0.50040  0.34754  0.61640  Biso   1.000  C
  N32      1.0000 0.51480  0.37470  0.75450  Biso   1.000  N
  C102     1.0000 0.25650  0.05090  0.33640  Biso   1.000  C
  H92      1.0000 0.30420  0.03010  0.36910  Biso   1.000  H
  H93      1.0000 0.24840  0.08100  0.41890  Biso   1.000  H
  C103     1.0000 0.20660  0.93580  0.24820  Biso   1.000  C
  H94      1.0000 0.24980  0.92560  0.21320  Biso   1.000  H
  C104     1.0000 0.25760  0.09000  0.19340  Biso   1.000  C
  H95      1.0000 0.26430  0.05940  0.11080  Biso   1.000  H
  H96      1.0000 0.20990  0.11100  0.16220  Biso   1.000  H
  Co3      1.0000 0.00000  0.82496  0.25000  Biso   1.000  Co
  Co4      1.0000 0.50000  0.32496  0.25000  Biso   1.000  Co
