data_image0
_cell_length_a       11.1637
_cell_length_b       13.4231
_cell_length_c       19.713
_cell_angle_alpha    71.964
_cell_angle_beta     74.613
_cell_angle_gamma    75.764

_symmetry_space_group_name_H-M    "P 1"
_symmetry_int_tables_number       1

loop_
  _symmetry_equiv_pos_as_xyz
  'x, y, z'

loop_
  _atom_site_label
  _atom_site_occupancy
  _atom_site_fract_x
  _atom_site_fract_y
  _atom_site_fract_z
  _atom_site_thermal_displace_type
  _atom_site_B_iso_or_equiv
  _atom_site_type_symbol
  Tb1      1.0000 0.49274  0.10327  0.07806  Biso   1.000  Tb
  Co1      1.0000 0.78619  0.51451  0.42130  Biso   1.000  Co
  S1       1.0000 0.70025  0.32025  0.01753  Biso   1.000  S
  S2       1.0000 0.46843  0.83002  0.11823  Biso   1.000  S
  S3       1.0000 0.80489  0.83438  0.78272  Biso   1.000  S
  S4       1.0000 0.34486  0.99025  0.76084  Biso   1.000  S
  O1       1.0000 0.66570  0.21270  0.04270  Biso   1.000  O
  O2       1.0000 0.60920  0.40340  0.98176  Biso   1.000  O
  O3       1.0000 0.82840  0.31530  0.97309  Biso   1.000  O
  O4       1.0000 0.47070  0.83650  0.04353  Biso   1.000  O
  O5       1.0000 0.57510  0.76250  0.14150  Biso   1.000  O
  O6       1.0000 0.45100  0.94400  0.12332  Biso   1.000  O
  O7       1.0000 0.85920  0.91620  0.74310  Biso   1.000  O
  O8       1.0000 0.87600  0.75730  0.83480  Biso   1.000  O
  O9       1.0000 0.67830  0.87290  0.81540  Biso   1.000  O
  O10      1.0000 0.38140  0.90740  0.71610  Biso   1.000  O
  O11      1.0000 0.21310  0.02670  0.77850  Biso   1.000  O
  O12      1.0000 0.40350  0.95300  0.82243  Biso   1.000  O
  O13      1.0000 0.67660  0.99680  0.03810  Biso   1.000  O
  O14      1.0000 0.40400  0.29820  0.05170  Biso   1.000  O
  O15      1.0000 0.30170  0.11090  0.04644  Biso   1.000  O
  N1       1.0000 0.70130  0.40700  0.41390  Biso   1.000  N
  N2       1.0000 0.85560  0.54490  0.31582  Biso   1.000  N
  N3       1.0000 0.88490  0.61120  0.43040  Biso   1.000  N
  N4       1.0000 0.70840  0.49100  0.52463  Biso   1.000  N
  C1       1.0000 0.74670  0.43370  0.28242  Biso   1.000  C
  C2       1.0000 0.82120  0.50930  0.26567  Biso   1.000  C
  C3       1.0000 0.88790  0.55400  0.19403  Biso   1.000  C
  H1       1.0000 0.87980  0.54390  0.15100  Biso   1.000  H
  C4       1.0000 0.96250  0.61140  0.19960  Biso   1.000  C
  H2       1.0000 0.01670  0.64880  0.16110  Biso   1.000  H
  C5       1.0000 0.94620  0.60690  0.27508  Biso   1.000  C
  C6       1.0000 0.01260  0.65330  0.30529  Biso   1.000  C
  C7       1.0000 0.98250  0.65500  0.37650  Biso   1.000  C
  C8       1.0000 0.03640  0.71090  0.40620  Biso   1.000  C
  H3       1.0000 0.10550  0.74420  0.38210  Biso   1.000  H
  C9       1.0000 0.97230  0.70930  0.47620  Biso   1.000  C
  H4       1.0000 0.98650  0.74260  0.50750  Biso   1.000  H
  C10      1.0000 0.87770  0.64450  0.49046  Biso   1.000  C
  C11      1.0000 0.79230  0.62210  0.55724  Biso   1.000  C
  C12      1.0000 0.71300  0.55030  0.57152  Biso   1.000  C
  C13      1.0000 0.63290  0.51360  0.64128  Biso   1.000  C
  H5       1.0000 0.61800  0.53980  0.68180  Biso   1.000  H
  C14      1.0000 0.58550  0.43700  0.63688  Biso   1.000  C
  H6       1.0000 0.53020  0.39950  0.67450  Biso   1.000  H
  C15      1.0000 0.63000  0.41890  0.56674  Biso   1.000  C
  C16      1.0000 0.60320  0.33870  0.54376  Biso   1.000  C
  C17      1.0000 0.63790  0.33320  0.47131  Biso   1.000  C
  C18      1.0000 0.60230  0.26680  0.44260  Biso   1.000  C
  H7       1.0000 0.56020  0.21060  0.46960  Biso   1.000  H
  C19      1.0000 0.63630  0.29420  0.37190  Biso   1.000  C
  H8       1.0000 0.62050  0.26200  0.34040  Biso   1.000  H
  C20      1.0000 0.70090  0.38070  0.35070  Biso   1.000  C
  C21      1.0000 0.72850  0.40050  0.21928  Biso   1.000  C
  C22      1.0000 0.79060  0.30760  0.20256  Biso   1.000  C
  H9       1.0000 0.84370  0.26010  0.23210  Biso   1.000  H
  C23      1.0000 0.77640  0.28290  0.14320  Biso   1.000  C
  H10      1.0000 0.81870  0.21810  0.13380  Biso   1.000  H
  C24      1.0000 0.70130  0.35120  0.09718  Biso   1.000  C
  C25      1.0000 0.64240  0.44530  0.11190  Biso   1.000  C
  H11      1.0000 0.59690  0.49530  0.07910  Biso   1.000  H
  C26      1.0000 0.64780  0.46970  0.17500  Biso   1.000  C
  H12      1.0000 0.59850  0.53100  0.18710  Biso   1.000  H
  C27      1.0000 0.11600  0.70420  0.25434  Biso   1.000  C
  C28      1.0000 0.22060  0.64500  0.22080  Biso   1.000  C
  H13      1.0000 0.21980  0.57330  0.22840  Biso   1.000  H
  C29      1.0000 0.32290  0.68250  0.17830  Biso   1.000  C
  H14      1.0000 0.39060  0.63760  0.15760  Biso   1.000  H
  C30      1.0000 0.32710  0.78930  0.16520  Biso   1.000  C
  C31      1.0000 0.22240  0.85370  0.19730  Biso   1.000  C
  H15      1.0000 0.22320  0.92560  0.18910  Biso   1.000  H
  C32      1.0000 0.11520  0.81070  0.24230  Biso   1.000  C
  H16      1.0000 0.04560  0.85380  0.26320  Biso   1.000  H
  C33      1.0000 0.79000  0.67180  0.61422  Biso   1.000  C
  C34      1.0000 0.89050  0.64580  0.64863  Biso   1.000  C
  H17      1.0000 0.95740  0.59300  0.63670  Biso   1.000  H
  C35      1.0000 0.89670  0.69280  0.69850  Biso   1.000  C
  H18      1.0000 0.96860  0.67500  0.71810  Biso   1.000  H
  C36      1.0000 0.79640  0.76750  0.72050  Biso   1.000  C
  C37      1.0000 0.68910  0.78730  0.69300  Biso   1.000  C
  H19      1.0000 0.61760  0.83290  0.70960  Biso   1.000  H
  C38      1.0000 0.68800  0.73920  0.64090  Biso   1.000  C
  H20      1.0000 0.61470  0.75320  0.62310  Biso   1.000  H
  C39      1.0000 0.53670  0.25790  0.59808  Biso   1.000  C
  C40      1.0000 0.59420  0.18420  0.65190  Biso   1.000  C
  H21      1.0000 0.67520  0.18800  0.65390  Biso   1.000  H
  C41      1.0000 0.53460  0.10510  0.70260  Biso   1.000  C
  H22      1.0000 0.57670  0.05500  0.73700  Biso   1.000  H
  C42      1.0000 0.41630  0.10050  0.70210  Biso   1.000  C
  C43      1.0000 0.35350  0.17330  0.65290  Biso   1.000  C
  H23      1.0000 0.27090  0.17030  0.65340  Biso   1.000  H
  C44      1.0000 0.41350  0.25270  0.60150  Biso   1.000  C
  H24      1.0000 0.36920  0.30370  0.56850  Biso   1.000  H
  Tb2      1.0000 0.49872  0.11545  0.08896  Biso   1.000  Tb
  Tb3      1.0000 0.47090  0.15059  0.08564  Biso   1.000  Tb
  S5       1.0000 0.41800  0.89480  0.08620  Biso   1.000  S
  Tb4      1.0000 0.50726  0.89673  0.92194  Biso   1.000  Tb
  Co2      1.0000 0.21381  0.48549  0.57870  Biso   1.000  Co
  S6       1.0000 0.29975  0.67975  0.98247  Biso   1.000  S
  S7       1.0000 0.53157  0.16998  0.88177  Biso   1.000  S
  S8       1.0000 0.19511  0.16562  0.21728  Biso   1.000  S
  S9       1.0000 0.65514  0.00975  0.23916  Biso   1.000  S
  O16      1.0000 0.33430  0.78730  0.95730  Biso   1.000  O
  O17      1.0000 0.39080  0.59660  0.01824  Biso   1.000  O
  O18      1.0000 0.17160  0.68470  0.02691  Biso   1.000  O
  O19      1.0000 0.52930  0.16350  0.95647  Biso   1.000  O
  O20      1.0000 0.42490  0.23750  0.85850  Biso   1.000  O
  O21      1.0000 0.54900  0.05600  0.87668  Biso   1.000  O
  O22      1.0000 0.14080  0.08380  0.25690  Biso   1.000  O
  O23      1.0000 0.12400  0.24270  0.16520  Biso   1.000  O
  O24      1.0000 0.32170  0.12710  0.18460  Biso   1.000  O
  O25      1.0000 0.61860  0.09260  0.28390  Biso   1.000  O
  O26      1.0000 0.78690  0.97330  0.22150  Biso   1.000  O
  O27      1.0000 0.59650  0.04700  0.17757  Biso   1.000  O
  O28      1.0000 0.32340  0.00320  0.96190  Biso   1.000  O
  O29      1.0000 0.59600  0.70180  0.94830  Biso   1.000  O
  O30      1.0000 0.69830  0.88910  0.95356  Biso   1.000  O
  N5       1.0000 0.29870  0.59300  0.58610  Biso   1.000  N
  N6       1.0000 0.14440  0.45510  0.68418  Biso   1.000  N
  N7       1.0000 0.11510  0.38880  0.56960  Biso   1.000  N
  N8       1.0000 0.29160  0.50900  0.47537  Biso   1.000  N
  C45      1.0000 0.25330  0.56630  0.71758  Biso   1.000  C
  C46      1.0000 0.17880  0.49070  0.73433  Biso   1.000  C
  C47      1.0000 0.11210  0.44600  0.80597  Biso   1.000  C
  H25      1.0000 0.12020  0.45610  0.84900  Biso   1.000  H
  C48      1.0000 0.03750  0.38860  0.80040  Biso   1.000  C
  H26      1.0000 0.98330  0.35120  0.83890  Biso   1.000  H
  C49      1.0000 0.05380  0.39310  0.72492  Biso   1.000  C
  C50      1.0000 0.98740  0.34670  0.69471  Biso   1.000  C
  C51      1.0000 0.01750  0.34500  0.62350  Biso   1.000  C
  C52      1.0000 0.96360  0.28910  0.59380  Biso   1.000  C
  H27      1.0000 0.89450  0.25580  0.61790  Biso   1.000  H
  C53      1.0000 0.02770  0.29070  0.52380  Biso   1.000  C
  H28      1.0000 0.01350  0.25740  0.49250  Biso   1.000  H
  C54      1.0000 0.12230  0.35550  0.50954  Biso   1.000  C
  C55      1.0000 0.20770  0.37790  0.44276  Biso   1.000  C
  C56      1.0000 0.28700  0.44970  0.42848  Biso   1.000  C
  C57      1.0000 0.36710  0.48640  0.35872  Biso   1.000  C
  H29      1.0000 0.38200  0.46020  0.31820  Biso   1.000  H
  C58      1.0000 0.41450  0.56300  0.36312  Biso   1.000  C
  H30      1.0000 0.46980  0.60050  0.32550  Biso   1.000  H
  C59      1.0000 0.37000  0.58110  0.43326  Biso   1.000  C
  C60      1.0000 0.39680  0.66130  0.45624  Biso   1.000  C
  C61      1.0000 0.36210  0.66680  0.52869  Biso   1.000  C
  C62      1.0000 0.39770  0.73320  0.55740  Biso   1.000  C
  H31      1.0000 0.43980  0.78940  0.53040  Biso   1.000  H
  C63      1.0000 0.36370  0.70580  0.62810  Biso   1.000  C
  H32      1.0000 0.37950  0.73800  0.65960  Biso   1.000  H
  C64      1.0000 0.29910  0.61930  0.64930  Biso   1.000  C
  C65      1.0000 0.27150  0.59950  0.78072  Biso   1.000  C
  C66      1.0000 0.20940  0.69240  0.79744  Biso   1.000  C
  H33      1.0000 0.15630  0.73990  0.76790  Biso   1.000  H
  C67      1.0000 0.22360  0.71710  0.85680  Biso   1.000  C
  H34      1.0000 0.18130  0.78190  0.86620  Biso   1.000  H
  C68      1.0000 0.29870  0.64880  0.90282  Biso   1.000  C
  C69      1.0000 0.35760  0.55470  0.88810  Biso   1.000  C
  H35      1.0000 0.40310  0.50470  0.92090  Biso   1.000  H
  C70      1.0000 0.35220  0.53030  0.82500  Biso   1.000  C
  H36      1.0000 0.40150  0.46900  0.81290  Biso   1.000  H
  C71      1.0000 0.88400  0.29580  0.74566  Biso   1.000  C
  C72      1.0000 0.77940  0.35500  0.77920  Biso   1.000  C
  H37      1.0000 0.78020  0.42670  0.77160  Biso   1.000  H
  C73      1.0000 0.67710  0.31750  0.82170  Biso   1.000  C
  H38      1.0000 0.60940  0.36240  0.84240  Biso   1.000  H
  C74      1.0000 0.67290  0.21070  0.83480  Biso   1.000  C
  C75      1.0000 0.77760  0.14630  0.80270  Biso   1.000  C
  H39      1.0000 0.77680  0.07440  0.81090  Biso   1.000  H
  C76      1.0000 0.88480  0.18930  0.75770  Biso   1.000  C
  H40      1.0000 0.95440  0.14620  0.73680  Biso   1.000  H
  C77      1.0000 0.21000  0.32820  0.38578  Biso   1.000  C
  C78      1.0000 0.10950  0.35420  0.35137  Biso   1.000  C
  H41      1.0000 0.04260  0.40700  0.36330  Biso   1.000  H
  C79      1.0000 0.10330  0.30720  0.30150  Biso   1.000  C
  H42      1.0000 0.03140  0.32500  0.28190  Biso   1.000  H
  C80      1.0000 0.20360  0.23250  0.27950  Biso   1.000  C
  C81      1.0000 0.31090  0.21270  0.30700  Biso   1.000  C
  H43      1.0000 0.38240  0.16710  0.29040  Biso   1.000  H
  C82      1.0000 0.31200  0.26080  0.35910  Biso   1.000  C
  H44      1.0000 0.38530  0.24680  0.37690  Biso   1.000  H
  C83      1.0000 0.46330  0.74210  0.40192  Biso   1.000  C
  C84      1.0000 0.40580  0.81580  0.34810  Biso   1.000  C
  H45      1.0000 0.32480  0.81200  0.34610  Biso   1.000  H
  C85      1.0000 0.46540  0.89490  0.29740  Biso   1.000  C
  H46      1.0000 0.42330  0.94500  0.26300  Biso   1.000  H
  C86      1.0000 0.58370  0.89950  0.29790  Biso   1.000  C
  C87      1.0000 0.64650  0.82670  0.34710  Biso   1.000  C
  H47      1.0000 0.72910  0.82970  0.34660  Biso   1.000  H
  C88      1.0000 0.58650  0.74730  0.39850  Biso   1.000  C
  H48      1.0000 0.63080  0.69630  0.43150  Biso   1.000  H
  Tb5      1.0000 0.50128  0.88455  0.91104  Biso   1.000  Tb
  Tb6      1.0000 0.52910  0.84941  0.91436  Biso   1.000  Tb
  S10      1.0000 0.58200  0.10520  0.91380  Biso   1.000  S
