data_image0
_cell_length_a       15.446
_cell_length_b       15.446
_cell_length_c       9.907
_cell_angle_alpha    90
_cell_angle_beta     90
_cell_angle_gamma    90

_symmetry_space_group_name_H-M    "P 1"
_symmetry_int_tables_number       1

loop_
  _symmetry_equiv_pos_as_xyz
  'x, y, z'

loop_
  _atom_site_label
  _atom_site_occupancy
  _atom_site_fract_x
  _atom_site_fract_y
  _atom_site_fract_z
  _atom_site_thermal_displace_type
  _atom_site_B_iso_or_equiv
  _atom_site_type_symbol
  O1       1.0000 0.62807  0.47006  0.12190  Biso   1.000  O
  C1       1.0000 0.75632  0.61610  0.88010  Biso   1.000  C
  H1       1.0000 0.73970  0.59080  0.79900  Biso   1.000  H
  C2       1.0000 0.80502  0.68993  0.88000  Biso   1.000  C
  H2       1.0000 0.82170  0.71460  0.79830  Biso   1.000  H
  O2       1.0000 0.37193  0.52994  0.12190  Biso   1.000  O
  C3       1.0000 0.24368  0.38390  0.88010  Biso   1.000  C
  H3       1.0000 0.26030  0.40920  0.79900  Biso   1.000  H
  C4       1.0000 0.19498  0.31007  0.88000  Biso   1.000  C
  H4       1.0000 0.17830  0.28540  0.79830  Biso   1.000  H
  O3       1.0000 0.52994  0.62807  0.12190  Biso   1.000  O
  C5       1.0000 0.38390  0.75632  0.88010  Biso   1.000  C
  H5       1.0000 0.40920  0.73970  0.79900  Biso   1.000  H
  C6       1.0000 0.31007  0.80502  0.88000  Biso   1.000  C
  H6       1.0000 0.28540  0.82170  0.79830  Biso   1.000  H
  O4       1.0000 0.47006  0.37193  0.12190  Biso   1.000  O
  C7       1.0000 0.61610  0.24368  0.88010  Biso   1.000  C
  H7       1.0000 0.59080  0.26030  0.79900  Biso   1.000  H
  C8       1.0000 0.68993  0.19498  0.88000  Biso   1.000  C
  H8       1.0000 0.71460  0.17830  0.79830  Biso   1.000  H
  O5       1.0000 0.37193  0.47006  0.37810  Biso   1.000  O
  C9       1.0000 0.24368  0.61610  0.61990  Biso   1.000  C
  H9       1.0000 0.26030  0.59080  0.70100  Biso   1.000  H
  C10      1.0000 0.19498  0.68993  0.62000  Biso   1.000  C
  H10      1.0000 0.17830  0.71460  0.70170  Biso   1.000  H
  O6       1.0000 0.62807  0.52994  0.37810  Biso   1.000  O
  C11      1.0000 0.75632  0.38390  0.61990  Biso   1.000  C
  H11      1.0000 0.73970  0.40920  0.70100  Biso   1.000  H
  C12      1.0000 0.80502  0.31007  0.62000  Biso   1.000  C
  H12      1.0000 0.82170  0.28540  0.70170  Biso   1.000  H
  O7       1.0000 0.47006  0.62807  0.37810  Biso   1.000  O
  C13      1.0000 0.61610  0.75632  0.61990  Biso   1.000  C
  H13      1.0000 0.59080  0.73970  0.70100  Biso   1.000  H
  C14      1.0000 0.68993  0.80502  0.62000  Biso   1.000  C
  H14      1.0000 0.71460  0.82170  0.70170  Biso   1.000  H
  O8       1.0000 0.52994  0.37193  0.37810  Biso   1.000  O
  C15      1.0000 0.38390  0.24368  0.61990  Biso   1.000  C
  H15      1.0000 0.40920  0.26030  0.70100  Biso   1.000  H
  C16      1.0000 0.31007  0.19498  0.62000  Biso   1.000  C
  H16      1.0000 0.28540  0.17830  0.70170  Biso   1.000  H
  O9       1.0000 0.37193  0.52994  0.87810  Biso   1.000  O
  C17      1.0000 0.24368  0.38390  0.11990  Biso   1.000  C
  H17      1.0000 0.26030  0.40920  0.20100  Biso   1.000  H
  C18      1.0000 0.19498  0.31007  0.12000  Biso   1.000  C
  H18      1.0000 0.17830  0.28540  0.20170  Biso   1.000  H
  O10      1.0000 0.62807  0.47006  0.87810  Biso   1.000  O
  C19      1.0000 0.75632  0.61610  0.11990  Biso   1.000  C
  H19      1.0000 0.73970  0.59080  0.20100  Biso   1.000  H
  C20      1.0000 0.80502  0.68993  0.12000  Biso   1.000  C
  H20      1.0000 0.82170  0.71460  0.20170  Biso   1.000  H
  O11      1.0000 0.47006  0.37193  0.87810  Biso   1.000  O
  C21      1.0000 0.61610  0.24368  0.11990  Biso   1.000  C
  H21      1.0000 0.59080  0.26030  0.20100  Biso   1.000  H
  C22      1.0000 0.68993  0.19498  0.12000  Biso   1.000  C
  H22      1.0000 0.71460  0.17830  0.20170  Biso   1.000  H
  O12      1.0000 0.52994  0.62807  0.87810  Biso   1.000  O
  C23      1.0000 0.38390  0.75632  0.11990  Biso   1.000  C
  H23      1.0000 0.40920  0.73970  0.20100  Biso   1.000  H
  C24      1.0000 0.31007  0.80502  0.12000  Biso   1.000  C
  H24      1.0000 0.28540  0.82170  0.20170  Biso   1.000  H
  O13      1.0000 0.62807  0.52994  0.62190  Biso   1.000  O
  C25      1.0000 0.75632  0.38390  0.38010  Biso   1.000  C
  H25      1.0000 0.73970  0.40920  0.29900  Biso   1.000  H
  C26      1.0000 0.80502  0.31007  0.38000  Biso   1.000  C
  H26      1.0000 0.82170  0.28540  0.29830  Biso   1.000  H
  O14      1.0000 0.37193  0.47006  0.62190  Biso   1.000  O
  C27      1.0000 0.24368  0.61610  0.38010  Biso   1.000  C
  H27      1.0000 0.26030  0.59080  0.29900  Biso   1.000  H
  C28      1.0000 0.19498  0.68993  0.38000  Biso   1.000  C
  H28      1.0000 0.17830  0.71460  0.29830  Biso   1.000  H
  O15      1.0000 0.52994  0.37193  0.62190  Biso   1.000  O
  C29      1.0000 0.38390  0.24368  0.38010  Biso   1.000  C
  H29      1.0000 0.40920  0.26030  0.29900  Biso   1.000  H
  C30      1.0000 0.31007  0.19498  0.38000  Biso   1.000  C
  H30      1.0000 0.28540  0.17830  0.29830  Biso   1.000  H
  O16      1.0000 0.47006  0.62807  0.62190  Biso   1.000  O
  C31      1.0000 0.61610  0.75632  0.38010  Biso   1.000  C
  H31      1.0000 0.59080  0.73970  0.29900  Biso   1.000  H
  C32      1.0000 0.68993  0.80502  0.38000  Biso   1.000  C
  H32      1.0000 0.71460  0.82170  0.29830  Biso   1.000  H
  Sm1      1.0000 0.50000  0.50000  0.25000  Biso   1.000  Sm
  Sm2      1.0000 0.50000  0.50000  0.75000  Biso   1.000  Sm
  Zn1      1.0000 0.00000  0.00000  0.96823  Biso   1.000  Zn
  Zn2      1.0000 0.00000  0.00000  0.53177  Biso   1.000  Zn
  Zn3      1.0000 0.00000  0.00000  0.03177  Biso   1.000  Zn
  Zn4      1.0000 0.00000  0.00000  0.46823  Biso   1.000  Zn
  S1       1.0000 0.68047  0.47637  0.00000  Biso   1.000  S
  N1       1.0000 0.87112  0.96958  0.00000  Biso   1.000  N
  O17      1.0000 0.74927  0.41352  0.00000  Biso   1.000  O
  C33      1.0000 0.73207  0.57967  0.00000  Biso   1.000  C
  C34      1.0000 0.82984  0.72846  0.00000  Biso   1.000  C
  C35      1.0000 0.88352  0.81189  0.00000  Biso   1.000  C
  C36      1.0000 0.83641  0.88959  0.00000  Biso   1.000  C
  C37      1.0000 0.74239  0.89506  0.00000  Biso   1.000  C
  H33      1.0000 0.70340  0.84920  0.00000  Biso   1.000  H
  C38      1.0000 0.72310  0.98070  0.00000  Biso   1.000  C
  H34      1.0000 0.66790  0.00470  0.00000  Biso   1.000  H
  C39      1.0000 0.80434  0.02850  0.00000  Biso   1.000  C
  S2       1.0000 0.31953  0.52363  0.00000  Biso   1.000  S
  N2       1.0000 0.12888  0.03042  0.00000  Biso   1.000  N
  O18      1.0000 0.25073  0.58648  0.00000  Biso   1.000  O
  C40      1.0000 0.26793  0.42033  0.00000  Biso   1.000  C
  C41      1.0000 0.17016  0.27154  0.00000  Biso   1.000  C
  C42      1.0000 0.11648  0.18811  0.00000  Biso   1.000  C
  C43      1.0000 0.16359  0.11041  0.00000  Biso   1.000  C
  C44      1.0000 0.25761  0.10494  0.00000  Biso   1.000  C
  H35      1.0000 0.29660  0.15080  0.00000  Biso   1.000  H
  C45      1.0000 0.27690  0.01930  0.00000  Biso   1.000  C
  H36      1.0000 0.33210  0.99530  0.00000  Biso   1.000  H
  C46      1.0000 0.19566  0.97150  0.00000  Biso   1.000  C
  S3       1.0000 0.52363  0.68047  0.00000  Biso   1.000  S
  N3       1.0000 0.03042  0.87112  0.00000  Biso   1.000  N
  O19      1.0000 0.58648  0.74927  0.00000  Biso   1.000  O
  C47      1.0000 0.42033  0.73207  0.00000  Biso   1.000  C
  C48      1.0000 0.27154  0.82984  0.00000  Biso   1.000  C
  C49      1.0000 0.18811  0.88352  0.00000  Biso   1.000  C
  C50      1.0000 0.11041  0.83641  0.00000  Biso   1.000  C
  C51      1.0000 0.10494  0.74239  0.00000  Biso   1.000  C
  H37      1.0000 0.15080  0.70340  0.00000  Biso   1.000  H
  C52      1.0000 0.01930  0.72310  0.00000  Biso   1.000  C
  H38      1.0000 0.99530  0.66790  0.00000  Biso   1.000  H
  C53      1.0000 0.97150  0.80434  0.00000  Biso   1.000  C
  S4       1.0000 0.47637  0.31953  0.00000  Biso   1.000  S
  N4       1.0000 0.96958  0.12888  0.00000  Biso   1.000  N
  O20      1.0000 0.41352  0.25073  0.00000  Biso   1.000  O
  C54      1.0000 0.57967  0.26793  0.00000  Biso   1.000  C
  C55      1.0000 0.72846  0.17016  0.00000  Biso   1.000  C
  C56      1.0000 0.81189  0.11648  0.00000  Biso   1.000  C
  C57      1.0000 0.88959  0.16359  0.00000  Biso   1.000  C
  C58      1.0000 0.89506  0.25761  0.00000  Biso   1.000  C
  H39      1.0000 0.84920  0.29660  0.00000  Biso   1.000  H
  C59      1.0000 0.98070  0.27690  0.00000  Biso   1.000  C
  H40      1.0000 0.00470  0.33210  0.00000  Biso   1.000  H
  C60      1.0000 0.02850  0.19566  0.00000  Biso   1.000  C
  S5       1.0000 0.31953  0.47637  0.50000  Biso   1.000  S
  N5       1.0000 0.12888  0.96958  0.50000  Biso   1.000  N
  O21      1.0000 0.25073  0.41352  0.50000  Biso   1.000  O
  C61      1.0000 0.26793  0.57967  0.50000  Biso   1.000  C
  C62      1.0000 0.17016  0.72846  0.50000  Biso   1.000  C
  C63      1.0000 0.11648  0.81189  0.50000  Biso   1.000  C
  C64      1.0000 0.16359  0.88959  0.50000  Biso   1.000  C
  C65      1.0000 0.25761  0.89506  0.50000  Biso   1.000  C
  H41      1.0000 0.29660  0.84920  0.50000  Biso   1.000  H
  C66      1.0000 0.27690  0.98070  0.50000  Biso   1.000  C
  H42      1.0000 0.33210  0.00470  0.50000  Biso   1.000  H
  C67      1.0000 0.19566  0.02850  0.50000  Biso   1.000  C
  S6       1.0000 0.68047  0.52363  0.50000  Biso   1.000  S
  N6       1.0000 0.87112  0.03042  0.50000  Biso   1.000  N
  O22      1.0000 0.74927  0.58648  0.50000  Biso   1.000  O
  C68      1.0000 0.73207  0.42033  0.50000  Biso   1.000  C
  C69      1.0000 0.82984  0.27154  0.50000  Biso   1.000  C
  C70      1.0000 0.88352  0.18811  0.50000  Biso   1.000  C
  C71      1.0000 0.83641  0.11041  0.50000  Biso   1.000  C
  C72      1.0000 0.74239  0.10494  0.50000  Biso   1.000  C
  H43      1.0000 0.70340  0.15080  0.50000  Biso   1.000  H
  C73      1.0000 0.72310  0.01930  0.50000  Biso   1.000  C
  H44      1.0000 0.66790  0.99530  0.50000  Biso   1.000  H
  C74      1.0000 0.80434  0.97150  0.50000  Biso   1.000  C
  S7       1.0000 0.47637  0.68047  0.50000  Biso   1.000  S
  N7       1.0000 0.96958  0.87112  0.50000  Biso   1.000  N
  O23      1.0000 0.41352  0.74927  0.50000  Biso   1.000  O
  C75      1.0000 0.57967  0.73207  0.50000  Biso   1.000  C
  C76      1.0000 0.72846  0.82984  0.50000  Biso   1.000  C
  C77      1.0000 0.81189  0.88352  0.50000  Biso   1.000  C
  C78      1.0000 0.88959  0.83641  0.50000  Biso   1.000  C
  C79      1.0000 0.89506  0.74239  0.50000  Biso   1.000  C
  H45      1.0000 0.84920  0.70340  0.50000  Biso   1.000  H
  C80      1.0000 0.98070  0.72310  0.50000  Biso   1.000  C
  H46      1.0000 0.00470  0.66790  0.50000  Biso   1.000  H
  C81      1.0000 0.02850  0.80434  0.50000  Biso   1.000  C
  S8       1.0000 0.52363  0.31953  0.50000  Biso   1.000  S
  N8       1.0000 0.03042  0.12888  0.50000  Biso   1.000  N
  O24      1.0000 0.58648  0.25073  0.50000  Biso   1.000  O
  C82      1.0000 0.42033  0.26793  0.50000  Biso   1.000  C
  C83      1.0000 0.27154  0.17016  0.50000  Biso   1.000  C
  C84      1.0000 0.18811  0.11648  0.50000  Biso   1.000  C
  C85      1.0000 0.11041  0.16359  0.50000  Biso   1.000  C
  C86      1.0000 0.10494  0.25761  0.50000  Biso   1.000  C
  H47      1.0000 0.15080  0.29660  0.50000  Biso   1.000  H
  C87      1.0000 0.01930  0.27690  0.50000  Biso   1.000  C
  H48      1.0000 0.99530  0.33210  0.50000  Biso   1.000  H
  C88      1.0000 0.97150  0.19566  0.50000  Biso   1.000  C
  O25      1.0000 0.00000  0.00000  0.75000  Biso   1.000  O
  O26      1.0000 0.00000  0.00000  0.25000  Biso   1.000  O
