data_image0
_cell_length_a       8.594
_cell_length_b       49.85
_cell_length_c       7.419
_cell_angle_alpha    90
_cell_angle_beta     92.7
_cell_angle_gamma    90

_symmetry_space_group_name_H-M    "P 1"
_symmetry_int_tables_number       1

loop_
  _symmetry_equiv_pos_as_xyz
  'x, y, z'

loop_
  _atom_site_label
  _atom_site_occupancy
  _atom_site_fract_x
  _atom_site_fract_y
  _atom_site_fract_z
  _atom_site_thermal_displace_type
  _atom_site_B_iso_or_equiv
  _atom_site_type_symbol
  Ag1      1.0000 0.36561  0.71686  0.87743  Biso   1.000  Ag
  Ag2      1.0000 0.26460  0.82126  0.79810  Biso   1.000  Ag
  Ag3      1.0000 0.33770  0.82279  0.87010  Biso   1.000  Ag
  Ag4      1.0000 0.07941  0.91651  0.67430  Biso   1.000  Ag
  Ag5      1.0000 0.19675  0.92568  0.87190  Biso   1.000  Ag
  Ag6      1.0000 0.09645  0.51537  0.85340  Biso   1.000  Ag
  Ag7      1.0000 0.03634  0.02063  0.83930  Biso   1.000  Ag
  Ag8      1.0000 0.74388  0.11249  0.63990  Biso   1.000  Ag
  Ag9      1.0000 0.12310  0.62053  0.70720  Biso   1.000  Ag
  N1       1.0000 0.61600  0.67030  0.48450  Biso   1.000  N
  C1       1.0000 0.74700  0.68490  0.45250  Biso   1.000  C
  C2       1.0000 0.89400  0.67490  0.50600  Biso   1.000  C
  C3       1.0000 0.90010  0.64990  0.59330  Biso   1.000  C
  N2       1.0000 0.90010  0.85010  0.09330  Biso   1.000  N
  C4       1.0000 0.77160  0.63866  0.61410  Biso   1.000  C
  C5       1.0000 0.63780  0.64870  0.56850  Biso   1.000  C
  C6       1.0000 0.61600  0.82970  0.98450  Biso   1.000  C
  C7       1.0000 0.83360  0.89864  0.56280  Biso   1.000  C
  C8       1.0000 0.74440  0.91671  0.47480  Biso   1.000  C
  C9       1.0000 0.59590  0.91208  0.43040  Biso   1.000  C
  C10      1.0000 0.52550  0.88981  0.47190  Biso   1.000  C
  C11      1.0000 0.60960  0.87081  0.56500  Biso   1.000  C
  C12      1.0000 0.76340  0.87546  0.61400  Biso   1.000  C
  C13      1.0000 0.44770  0.93773  0.96850  Biso   1.000  C
  C14      1.0000 0.57660  0.92369  0.93030  Biso   1.000  C
  C15      1.0000 0.72140  0.93361  0.97760  Biso   1.000  C
  C16      1.0000 0.73440  0.95780  0.06250  Biso   1.000  C
  C17      1.0000 0.60660  0.97082  0.09820  Biso   1.000  C
  C18      1.0000 0.46510  0.96068  0.05170  Biso   1.000  C
  N3       1.0000 0.34880  0.50531  0.95370  Biso   1.000  N
  C19      1.0000 0.65120  0.00531  0.54630  Biso   1.000  C
  C20      1.0000 0.41750  0.48195  0.90620  Biso   1.000  C
  C21      1.0000 0.43700  0.52323  0.04740  Biso   1.000  C
  C22      1.0000 0.33360  0.75887  0.85670  Biso   1.000  C
  C23      1.0000 0.31960  0.78105  0.84580  Biso   1.000  C
  C24      1.0000 0.23900  0.86182  0.80700  Biso   1.000  C
  C25      1.0000 0.20100  0.88293  0.79400  Biso   1.000  C
  C26      1.0000 0.06500  0.95944  0.76050  Biso   1.000  C
  C27      1.0000 0.03090  0.98011  0.75700  Biso   1.000  C
  N4       1.0000 0.10100  0.55753  0.76390  Biso   1.000  N
  C28      1.0000 0.89900  0.05753  0.73610  Biso   1.000  C
  C29      1.0000 0.13620  0.57789  0.77370  Biso   1.000  C
  N5       1.0000 0.86380  0.07789  0.72630  Biso   1.000  N
  N6       1.0000 0.25870  0.65647  0.81170  Biso   1.000  N
  C30      1.0000 0.74130  0.15647  0.68830  Biso   1.000  C
  C31      1.0000 0.29750  0.67725  0.83620  Biso   1.000  C
  N7       1.0000 0.70250  0.17725  0.66380  Biso   1.000  N
  H1       1.0000 0.50729  0.82465  0.94124  Biso   1.000  H
  H2       1.0000 0.72955  0.70176  0.38883  Biso   1.000  H
  H3       1.0000 0.97497  0.68744  0.47865  Biso   1.000  H
  H4       1.0000 0.99541  0.85890  0.13703  Biso   1.000  H
  H5       1.0000 0.76518  0.62106  0.66945  Biso   1.000  H
  H6       1.0000 0.54373  0.63921  0.60644  Biso   1.000  H
  H7       1.0000 0.94596  0.90166  0.58809  Biso   1.000  H
  H8       1.0000 0.79006  0.93403  0.44880  Biso   1.000  H
  H9       1.0000 0.54035  0.92619  0.35983  Biso   1.000  H
  H10      1.0000 0.41673  0.88700  0.43803  Biso   1.000  H
  H11      1.0000 0.56473  0.85364  0.59645  Biso   1.000  H
  H12      1.0000 0.82297  0.86248  0.68822  Biso   1.000  H
  H13      1.0000 0.34693  0.93098  0.93689  Biso   1.000  H
  H14      1.0000 0.57117  0.90647  0.86913  Biso   1.000  H
  H15      1.0000 0.81466  0.92374  0.95051  Biso   1.000  H
  H16      1.0000 0.83659  0.96518  0.09929  Biso   1.000  H
  H17      1.0000 0.61516  0.98802  0.16082  Biso   1.000  H
  H18      1.0000 0.37442  0.97140  0.06688  Biso   1.000  H
  H19      1.0000 0.75874  0.00866  0.57420  Biso   1.000  H
  H20      1.0000 0.35957  0.46896  0.83552  Biso   1.000  H
  H21      1.0000 0.39230  0.54031  0.07801  Biso   1.000  H
  N8       1.0000 0.16640  0.39864  0.93720  Biso   1.000  N
  N9       1.0000 0.66640  0.25887  0.64330  Biso   1.000  N
  N10      1.0000 0.76100  0.36182  0.69300  Biso   1.000  N
  N11      1.0000 0.93500  0.45944  0.73950  Biso   1.000  N
  Ag10     1.0000 0.63439  0.21686  0.62257  Biso   1.000  Ag
  Ag11     1.0000 0.73540  0.32126  0.70190  Biso   1.000  Ag
  Ag12     1.0000 0.66230  0.32279  0.62990  Biso   1.000  Ag
  Ag13     1.0000 0.92059  0.41651  0.82570  Biso   1.000  Ag
  Ag14     1.0000 0.80325  0.42568  0.62810  Biso   1.000  Ag
  Ag15     1.0000 0.90355  0.01537  0.64660  Biso   1.000  Ag
  Ag16     1.0000 0.96366  0.52063  0.66070  Biso   1.000  Ag
  Ag17     1.0000 0.25612  0.61249  0.86010  Biso   1.000  Ag
  Ag18     1.0000 0.87690  0.12053  0.79280  Biso   1.000  Ag
  N12      1.0000 0.38400  0.17030  0.01550  Biso   1.000  N
  C32      1.0000 0.25300  0.18490  0.04750  Biso   1.000  C
  C33      1.0000 0.10600  0.17490  0.99400  Biso   1.000  C
  C34      1.0000 0.09990  0.14990  0.90670  Biso   1.000  C
  N13      1.0000 0.09990  0.35010  0.40670  Biso   1.000  N
  C35      1.0000 0.22840  0.13866  0.88590  Biso   1.000  C
  C36      1.0000 0.36220  0.14870  0.93150  Biso   1.000  C
  C37      1.0000 0.38400  0.32970  0.51550  Biso   1.000  C
  C38      1.0000 0.25560  0.41671  0.02520  Biso   1.000  C
  C39      1.0000 0.40410  0.41208  0.06960  Biso   1.000  C
  C40      1.0000 0.47450  0.38981  0.02810  Biso   1.000  C
  C41      1.0000 0.39040  0.37081  0.93500  Biso   1.000  C
  C42      1.0000 0.23660  0.37546  0.88600  Biso   1.000  C
  C43      1.0000 0.55230  0.43773  0.53150  Biso   1.000  C
  C44      1.0000 0.42340  0.42369  0.56970  Biso   1.000  C
  C45      1.0000 0.27860  0.43361  0.52240  Biso   1.000  C
  C46      1.0000 0.26560  0.45780  0.43750  Biso   1.000  C
  C47      1.0000 0.39340  0.47082  0.40180  Biso   1.000  C
  C48      1.0000 0.53490  0.46068  0.44830  Biso   1.000  C
  C49      1.0000 0.58250  0.98195  0.59380  Biso   1.000  C
  C50      1.0000 0.56300  0.02323  0.45260  Biso   1.000  C
  C51      1.0000 0.68040  0.28105  0.65420  Biso   1.000  C
  C52      1.0000 0.79900  0.38293  0.70600  Biso   1.000  C
  C53      1.0000 0.96910  0.48011  0.74300  Biso   1.000  C
  H22      1.0000 0.49271  0.32465  0.55876  Biso   1.000  H
  H23      1.0000 0.27045  0.20176  0.11117  Biso   1.000  H
  H24      1.0000 0.02503  0.18744  0.02135  Biso   1.000  H
  H25      1.0000 0.00459  0.35890  0.36297  Biso   1.000  H
  H26      1.0000 0.23482  0.12106  0.83055  Biso   1.000  H
  H27      1.0000 0.45627  0.13921  0.89356  Biso   1.000  H
  H28      1.0000 0.05404  0.40166  0.91191  Biso   1.000  H
  H29      1.0000 0.20994  0.43403  0.05120  Biso   1.000  H
  H30      1.0000 0.45965  0.42619  0.14017  Biso   1.000  H
  H31      1.0000 0.58327  0.38700  0.06197  Biso   1.000  H
  H32      1.0000 0.43527  0.35364  0.90355  Biso   1.000  H
  H33      1.0000 0.17703  0.36248  0.81178  Biso   1.000  H
  H34      1.0000 0.65307  0.43098  0.56311  Biso   1.000  H
  H35      1.0000 0.42883  0.40647  0.63087  Biso   1.000  H
  H36      1.0000 0.18534  0.42374  0.54949  Biso   1.000  H
  H37      1.0000 0.16341  0.46518  0.40071  Biso   1.000  H
  H38      1.0000 0.38484  0.48802  0.33918  Biso   1.000  H
  H39      1.0000 0.62558  0.47140  0.43312  Biso   1.000  H
  H40      1.0000 0.24126  0.50866  0.92580  Biso   1.000  H
  H41      1.0000 0.64043  0.96896  0.66448  Biso   1.000  H
  H42      1.0000 0.60770  0.04031  0.42199  Biso   1.000  H
  Ag19     1.0000 0.63439  0.28314  0.12257  Biso   1.000  Ag
  Ag20     1.0000 0.73540  0.17874  0.20190  Biso   1.000  Ag
  Ag21     1.0000 0.66230  0.17721  0.12990  Biso   1.000  Ag
  Ag22     1.0000 0.92059  0.08349  0.32570  Biso   1.000  Ag
  Ag23     1.0000 0.80325  0.07432  0.12810  Biso   1.000  Ag
  Ag24     1.0000 0.90355  0.48463  0.14660  Biso   1.000  Ag
  Ag25     1.0000 0.96366  0.97937  0.16070  Biso   1.000  Ag
  Ag26     1.0000 0.25612  0.88751  0.36010  Biso   1.000  Ag
  Ag27     1.0000 0.87690  0.37947  0.29280  Biso   1.000  Ag
  C54      1.0000 0.25300  0.31510  0.54750  Biso   1.000  C
  C55      1.0000 0.10600  0.32510  0.49400  Biso   1.000  C
  C56      1.0000 0.22840  0.36134  0.38590  Biso   1.000  C
  C57      1.0000 0.36220  0.35130  0.43150  Biso   1.000  C
  C58      1.0000 0.16640  0.10136  0.43720  Biso   1.000  C
  C59      1.0000 0.25560  0.08329  0.52520  Biso   1.000  C
  C60      1.0000 0.40410  0.08792  0.56960  Biso   1.000  C
  C61      1.0000 0.47450  0.11019  0.52810  Biso   1.000  C
  C62      1.0000 0.39040  0.12919  0.43500  Biso   1.000  C
  C63      1.0000 0.23660  0.12454  0.38600  Biso   1.000  C
  C64      1.0000 0.55230  0.06227  0.03150  Biso   1.000  C
  C65      1.0000 0.42340  0.07631  0.06970  Biso   1.000  C
  C66      1.0000 0.27860  0.06639  0.02240  Biso   1.000  C
  C67      1.0000 0.26560  0.04220  0.93750  Biso   1.000  C
  C68      1.0000 0.39340  0.02918  0.90180  Biso   1.000  C
  C69      1.0000 0.53490  0.03932  0.94830  Biso   1.000  C
  N14      1.0000 0.65120  0.49469  0.04630  Biso   1.000  N
  C70      1.0000 0.34880  0.99469  0.45370  Biso   1.000  C
  C71      1.0000 0.58250  0.51805  0.09380  Biso   1.000  C
  C72      1.0000 0.56300  0.47677  0.95260  Biso   1.000  C
  C73      1.0000 0.66640  0.24113  0.14330  Biso   1.000  C
  C74      1.0000 0.68040  0.21895  0.15420  Biso   1.000  C
  C75      1.0000 0.76100  0.13818  0.19300  Biso   1.000  C
  C76      1.0000 0.79900  0.11707  0.20600  Biso   1.000  C
  C77      1.0000 0.93500  0.04056  0.23950  Biso   1.000  C
  C78      1.0000 0.96910  0.01989  0.24300  Biso   1.000  C
  N15      1.0000 0.89900  0.44247  0.23610  Biso   1.000  N
  C79      1.0000 0.10100  0.94247  0.26390  Biso   1.000  C
  C80      1.0000 0.86380  0.42211  0.22630  Biso   1.000  C
  N16      1.0000 0.13620  0.92211  0.27370  Biso   1.000  N
  N17      1.0000 0.74130  0.34353  0.18830  Biso   1.000  N
  C81      1.0000 0.25870  0.84353  0.31170  Biso   1.000  C
  C82      1.0000 0.70250  0.32275  0.16380  Biso   1.000  C
  N18      1.0000 0.29750  0.82275  0.33620  Biso   1.000  N
  H43      1.0000 0.49271  0.17535  0.05876  Biso   1.000  H
  H44      1.0000 0.27045  0.29824  0.61117  Biso   1.000  H
  H45      1.0000 0.02503  0.31256  0.52135  Biso   1.000  H
  H46      1.0000 0.00459  0.14110  0.86297  Biso   1.000  H
  H47      1.0000 0.23482  0.37894  0.33055  Biso   1.000  H
  H48      1.0000 0.45627  0.36079  0.39356  Biso   1.000  H
  H49      1.0000 0.05404  0.09834  0.41191  Biso   1.000  H
  H50      1.0000 0.20994  0.06597  0.55120  Biso   1.000  H
  H51      1.0000 0.45965  0.07381  0.64017  Biso   1.000  H
  H52      1.0000 0.58327  0.11300  0.56197  Biso   1.000  H
  H53      1.0000 0.43527  0.14636  0.40355  Biso   1.000  H
  H54      1.0000 0.17703  0.13752  0.31178  Biso   1.000  H
  H55      1.0000 0.65307  0.06902  0.06311  Biso   1.000  H
  H56      1.0000 0.42883  0.09353  0.13087  Biso   1.000  H
  H57      1.0000 0.18534  0.07626  0.04949  Biso   1.000  H
  H58      1.0000 0.16341  0.03482  0.90071  Biso   1.000  H
  H59      1.0000 0.38484  0.01198  0.83918  Biso   1.000  H
  H60      1.0000 0.62558  0.02860  0.93312  Biso   1.000  H
  H61      1.0000 0.24126  0.99134  0.42580  Biso   1.000  H
  H62      1.0000 0.64043  0.53104  0.16448  Biso   1.000  H
  H63      1.0000 0.60770  0.45969  0.92199  Biso   1.000  H
  N19      1.0000 0.83360  0.60136  0.06280  Biso   1.000  N
  N20      1.0000 0.33360  0.74113  0.35670  Biso   1.000  N
  N21      1.0000 0.23900  0.63818  0.30700  Biso   1.000  N
  N22      1.0000 0.06500  0.54056  0.26050  Biso   1.000  N
  Ag28     1.0000 0.36561  0.78314  0.37743  Biso   1.000  Ag
  Ag29     1.0000 0.26460  0.67874  0.29810  Biso   1.000  Ag
  Ag30     1.0000 0.33770  0.67721  0.37010  Biso   1.000  Ag
  Ag31     1.0000 0.07941  0.58349  0.17430  Biso   1.000  Ag
  Ag32     1.0000 0.19675  0.57432  0.37190  Biso   1.000  Ag
  Ag33     1.0000 0.09645  0.98463  0.35340  Biso   1.000  Ag
  Ag34     1.0000 0.03634  0.47937  0.33930  Biso   1.000  Ag
  Ag35     1.0000 0.74388  0.38751  0.13990  Biso   1.000  Ag
  Ag36     1.0000 0.12310  0.87947  0.20720  Biso   1.000  Ag
  C83      1.0000 0.74700  0.81510  0.95250  Biso   1.000  C
  C84      1.0000 0.89400  0.82510  0.00600  Biso   1.000  C
  C85      1.0000 0.77160  0.86134  0.11410  Biso   1.000  C
  C86      1.0000 0.63780  0.85130  0.06850  Biso   1.000  C
  C87      1.0000 0.74440  0.58329  0.97480  Biso   1.000  C
  C88      1.0000 0.59590  0.58792  0.93040  Biso   1.000  C
  C89      1.0000 0.52550  0.61019  0.97190  Biso   1.000  C
  C90      1.0000 0.60960  0.62919  0.06500  Biso   1.000  C
  C91      1.0000 0.76340  0.62454  0.11400  Biso   1.000  C
  C92      1.0000 0.44770  0.56227  0.46850  Biso   1.000  C
  C93      1.0000 0.57660  0.57631  0.43030  Biso   1.000  C
  C94      1.0000 0.72140  0.56639  0.47760  Biso   1.000  C
  C95      1.0000 0.73440  0.54220  0.56250  Biso   1.000  C
  C96      1.0000 0.60660  0.52918  0.59820  Biso   1.000  C
  C97      1.0000 0.46510  0.53932  0.55170  Biso   1.000  C
  C98      1.0000 0.41750  0.01805  0.40620  Biso   1.000  C
  C99      1.0000 0.43700  0.97677  0.54740  Biso   1.000  C
  C100     1.0000 0.31960  0.71895  0.34580  Biso   1.000  C
  C101     1.0000 0.20100  0.61707  0.29400  Biso   1.000  C
  C102     1.0000 0.03090  0.51989  0.25700  Biso   1.000  C
  H64      1.0000 0.50729  0.67535  0.44124  Biso   1.000  H
  H65      1.0000 0.72955  0.79824  0.88883  Biso   1.000  H
  H66      1.0000 0.97497  0.81256  0.97865  Biso   1.000  H
  H67      1.0000 0.99541  0.64110  0.63703  Biso   1.000  H
  H68      1.0000 0.76518  0.87894  0.16945  Biso   1.000  H
  H69      1.0000 0.54373  0.86079  0.10644  Biso   1.000  H
  H70      1.0000 0.94596  0.59834  0.08809  Biso   1.000  H
  H71      1.0000 0.79006  0.56597  0.94880  Biso   1.000  H
  H72      1.0000 0.54035  0.57381  0.85983  Biso   1.000  H
  H73      1.0000 0.41673  0.61300  0.93803  Biso   1.000  H
  H74      1.0000 0.56473  0.64636  0.09645  Biso   1.000  H
  H75      1.0000 0.82297  0.63752  0.18822  Biso   1.000  H
  H76      1.0000 0.34693  0.56902  0.43689  Biso   1.000  H
  H77      1.0000 0.57117  0.59353  0.36913  Biso   1.000  H
  H78      1.0000 0.81466  0.57626  0.45051  Biso   1.000  H
  H79      1.0000 0.83659  0.53482  0.59929  Biso   1.000  H
  H80      1.0000 0.61516  0.51198  0.66082  Biso   1.000  H
  H81      1.0000 0.37442  0.52860  0.56688  Biso   1.000  H
  H82      1.0000 0.75874  0.49134  0.07420  Biso   1.000  H
  H83      1.0000 0.35957  0.03104  0.33552  Biso   1.000  H
  H84      1.0000 0.39230  0.95969  0.57801  Biso   1.000  H
