data_image0
_cell_length_a       22.7053
_cell_length_b       12.3557
_cell_length_c       8.3931
_cell_angle_alpha    90
_cell_angle_beta     93.878
_cell_angle_gamma    90

_symmetry_space_group_name_H-M    "P 1"
_symmetry_int_tables_number       1

loop_
  _symmetry_equiv_pos_as_xyz
  'x, y, z'

loop_
  _atom_site_label
  _atom_site_occupancy
  _atom_site_fract_x
  _atom_site_fract_y
  _atom_site_fract_z
  _atom_site_thermal_displace_type
  _atom_site_B_iso_or_equiv
  _atom_site_type_symbol
  La1      1.0000 0.80996  0.04108  0.46540  Biso   1.000  La
  O1       1.0000 0.70008  0.08840  0.50650  Biso   1.000  O
  O2       1.0000 0.91620  0.08410  0.53860  Biso   1.000  O
  C1       1.0000 0.66164  0.16710  0.89740  Biso   1.000  C
  H1       1.0000 0.69350  0.12940  0.95940  Biso   1.000  H
  C2       1.0000 0.70101  0.07440  0.65570  Biso   1.000  C
  C3       1.0000 0.60921  0.17330  0.00420  Biso   1.000  C
  H2       1.0000 0.59550  0.10150  0.02510  Biso   1.000  H
  H3       1.0000 0.57780  0.21420  0.95090  Biso   1.000  H
  H4       1.0000 0.62160  0.20790  0.10320  Biso   1.000  H
  C4       1.0000 0.64658  0.09800  0.74670  Biso   1.000  C
  H5       1.0000 0.63400  0.02760  0.78640  Biso   1.000  H
  C5       1.0000 0.97440  0.09740  0.77820  Biso   1.000  C
  H6       1.0000 0.96880  0.08690  0.89200  Biso   1.000  H
  C6       1.0000 0.97960  0.01830  0.77520  Biso   1.000  C
  H7       1.0000 0.97460  0.02970  0.88910  Biso   1.000  H
  C7       1.0000 0.59389  0.13990  0.63950  Biso   1.000  C
  H8       1.0000 0.55890  0.13780  0.69740  Biso   1.000  H
  H9       1.0000 0.58850  0.09510  0.54620  Biso   1.000  H
  H10      1.0000 0.60140  0.21310  0.60800  Biso   1.000  H
  H11      1.0000 0.99710  0.88560  0.86190  Biso   1.000  H
  H12      1.0000 0.02820  0.85000  0.70920  Biso   1.000  H
  H13      1.0000 0.96210  0.88770  0.69440  Biso   1.000  H
  H14      1.0000 0.96940  0.26780  0.75960  Biso   1.000  H
  H15      1.0000 0.01430  0.21910  0.64510  Biso   1.000  H
  H16      1.0000 0.03180  0.22940  0.82830  Biso   1.000  H
  O3       1.0000 0.74725  0.03700  0.73060  Biso   1.000  O
  C8       1.0000 0.68462  0.28090  0.86380  Biso   1.000  C
  O4       1.0000 0.68999  0.34640  0.98060  Biso   1.000  O
  O5       1.0000 0.69867  0.30230  0.72410  Biso   1.000  O
  O6       1.0000 0.87270  0.01470  0.74180  Biso   1.000  O
  C9       1.0000 0.91990  0.03570  0.68200  Biso   1.000  C
  C10      1.0000 0.91650  0.07310  0.67900  Biso   1.000  C
  La2      1.0000 0.30996  0.54108  0.46540  Biso   1.000  La
  O7       1.0000 0.20008  0.58840  0.50650  Biso   1.000  O
  O8       1.0000 0.41620  0.58410  0.53860  Biso   1.000  O
  C11      1.0000 0.16164  0.66710  0.89740  Biso   1.000  C
  H17      1.0000 0.19350  0.62940  0.95940  Biso   1.000  H
  C12      1.0000 0.20101  0.57440  0.65570  Biso   1.000  C
  C13      1.0000 0.10921  0.67330  0.00420  Biso   1.000  C
  H18      1.0000 0.09550  0.60150  0.02510  Biso   1.000  H
  H19      1.0000 0.07780  0.71420  0.95090  Biso   1.000  H
  H20      1.0000 0.12160  0.70790  0.10320  Biso   1.000  H
  C14      1.0000 0.14658  0.59800  0.74670  Biso   1.000  C
  H21      1.0000 0.13400  0.52760  0.78640  Biso   1.000  H
  C15      1.0000 0.47440  0.59740  0.77820  Biso   1.000  C
  H22      1.0000 0.46880  0.58690  0.89200  Biso   1.000  H
  C16      1.0000 0.47960  0.51830  0.77520  Biso   1.000  C
  H23      1.0000 0.47460  0.52970  0.88910  Biso   1.000  H
  C17      1.0000 0.09389  0.63990  0.63950  Biso   1.000  C
  H24      1.0000 0.05890  0.63780  0.69740  Biso   1.000  H
  H25      1.0000 0.08850  0.59510  0.54620  Biso   1.000  H
  H26      1.0000 0.10140  0.71310  0.60800  Biso   1.000  H
  H27      1.0000 0.49710  0.38560  0.86190  Biso   1.000  H
  H28      1.0000 0.52820  0.35000  0.70920  Biso   1.000  H
  H29      1.0000 0.46210  0.38770  0.69440  Biso   1.000  H
  H30      1.0000 0.46940  0.76780  0.75960  Biso   1.000  H
  H31      1.0000 0.51430  0.71910  0.64510  Biso   1.000  H
  H32      1.0000 0.53180  0.72940  0.82830  Biso   1.000  H
  O9       1.0000 0.24725  0.53700  0.73060  Biso   1.000  O
  C18      1.0000 0.18462  0.78090  0.86380  Biso   1.000  C
  O10      1.0000 0.18999  0.84640  0.98060  Biso   1.000  O
  O11      1.0000 0.19867  0.80230  0.72410  Biso   1.000  O
  O12      1.0000 0.37270  0.51470  0.74180  Biso   1.000  O
  C19      1.0000 0.41990  0.53570  0.68200  Biso   1.000  C
  C20      1.0000 0.41650  0.57310  0.67900  Biso   1.000  C
  La3      1.0000 0.19004  0.04108  0.03460  Biso   1.000  La
  O13      1.0000 0.29992  0.08840  0.99350  Biso   1.000  O
  O14      1.0000 0.08380  0.08410  0.96140  Biso   1.000  O
  C21      1.0000 0.33836  0.16710  0.60260  Biso   1.000  C
  H33      1.0000 0.30650  0.12940  0.54060  Biso   1.000  H
  C22      1.0000 0.29899  0.07440  0.84430  Biso   1.000  C
  C23      1.0000 0.39079  0.17330  0.49580  Biso   1.000  C
  H34      1.0000 0.40450  0.10150  0.47490  Biso   1.000  H
  H35      1.0000 0.42220  0.21420  0.54910  Biso   1.000  H
  H36      1.0000 0.37840  0.20790  0.39680  Biso   1.000  H
  C24      1.0000 0.35342  0.09800  0.75330  Biso   1.000  C
  H37      1.0000 0.36600  0.02760  0.71360  Biso   1.000  H
  C25      1.0000 0.02560  0.09740  0.72180  Biso   1.000  C
  H38      1.0000 0.03120  0.08690  0.60800  Biso   1.000  H
  C26      1.0000 0.02040  0.01830  0.72480  Biso   1.000  C
  H39      1.0000 0.02540  0.02970  0.61090  Biso   1.000  H
  C27      1.0000 0.40611  0.13990  0.86050  Biso   1.000  C
  H40      1.0000 0.44110  0.13780  0.80260  Biso   1.000  H
  H41      1.0000 0.41150  0.09510  0.95380  Biso   1.000  H
  H42      1.0000 0.39860  0.21310  0.89200  Biso   1.000  H
  H43      1.0000 0.00290  0.88560  0.63810  Biso   1.000  H
  H44      1.0000 0.97180  0.85000  0.79080  Biso   1.000  H
  H45      1.0000 0.03790  0.88770  0.80560  Biso   1.000  H
  H46      1.0000 0.03060  0.26780  0.74040  Biso   1.000  H
  H47      1.0000 0.98570  0.21910  0.85490  Biso   1.000  H
  H48      1.0000 0.96820  0.22940  0.67170  Biso   1.000  H
  O15      1.0000 0.25275  0.03700  0.76940  Biso   1.000  O
  C28      1.0000 0.31538  0.28090  0.63620  Biso   1.000  C
  O16      1.0000 0.31001  0.34640  0.51940  Biso   1.000  O
  O17      1.0000 0.30133  0.30230  0.77590  Biso   1.000  O
  O18      1.0000 0.12730  0.01470  0.75820  Biso   1.000  O
  C29      1.0000 0.08010  0.03570  0.81800  Biso   1.000  C
  C30      1.0000 0.08350  0.07310  0.82100  Biso   1.000  C
  La4      1.0000 0.69004  0.54108  0.03460  Biso   1.000  La
  O19      1.0000 0.79992  0.58840  0.99350  Biso   1.000  O
  O20      1.0000 0.58380  0.58410  0.96140  Biso   1.000  O
  C31      1.0000 0.83836  0.66710  0.60260  Biso   1.000  C
  H49      1.0000 0.80650  0.62940  0.54060  Biso   1.000  H
  C32      1.0000 0.79899  0.57440  0.84430  Biso   1.000  C
  C33      1.0000 0.89079  0.67330  0.49580  Biso   1.000  C
  H50      1.0000 0.90450  0.60150  0.47490  Biso   1.000  H
  H51      1.0000 0.92220  0.71420  0.54910  Biso   1.000  H
  H52      1.0000 0.87840  0.70790  0.39680  Biso   1.000  H
  C34      1.0000 0.85342  0.59800  0.75330  Biso   1.000  C
  H53      1.0000 0.86600  0.52760  0.71360  Biso   1.000  H
  C35      1.0000 0.52560  0.59740  0.72180  Biso   1.000  C
  H54      1.0000 0.53120  0.58690  0.60800  Biso   1.000  H
  C36      1.0000 0.52040  0.51830  0.72480  Biso   1.000  C
  H55      1.0000 0.52540  0.52970  0.61090  Biso   1.000  H
  C37      1.0000 0.90611  0.63990  0.86050  Biso   1.000  C
  H56      1.0000 0.94110  0.63780  0.80260  Biso   1.000  H
  H57      1.0000 0.91150  0.59510  0.95380  Biso   1.000  H
  H58      1.0000 0.89860  0.71310  0.89200  Biso   1.000  H
  H59      1.0000 0.50290  0.38560  0.63810  Biso   1.000  H
  H60      1.0000 0.47180  0.35000  0.79080  Biso   1.000  H
  H61      1.0000 0.53790  0.38770  0.80560  Biso   1.000  H
  H62      1.0000 0.53060  0.76780  0.74040  Biso   1.000  H
  H63      1.0000 0.48570  0.71910  0.85490  Biso   1.000  H
  H64      1.0000 0.46820  0.72940  0.67170  Biso   1.000  H
  O21      1.0000 0.75275  0.53700  0.76940  Biso   1.000  O
  C38      1.0000 0.81538  0.78090  0.63620  Biso   1.000  C
  O22      1.0000 0.81001  0.84640  0.51940  Biso   1.000  O
  O23      1.0000 0.80133  0.80230  0.77590  Biso   1.000  O
  O24      1.0000 0.62730  0.51470  0.75820  Biso   1.000  O
  C39      1.0000 0.58010  0.53570  0.81800  Biso   1.000  C
  C40      1.0000 0.58350  0.57310  0.82100  Biso   1.000  C
  La5      1.0000 0.19004  0.95892  0.53460  Biso   1.000  La
  O25      1.0000 0.29992  0.91160  0.49350  Biso   1.000  O
  O26      1.0000 0.08380  0.91590  0.46140  Biso   1.000  O
  C41      1.0000 0.33836  0.83290  0.10260  Biso   1.000  C
  H65      1.0000 0.30650  0.87060  0.04060  Biso   1.000  H
  C42      1.0000 0.29899  0.92560  0.34430  Biso   1.000  C
  C43      1.0000 0.39079  0.82670  0.99580  Biso   1.000  C
  H66      1.0000 0.40450  0.89850  0.97490  Biso   1.000  H
  H67      1.0000 0.42220  0.78580  0.04910  Biso   1.000  H
  H68      1.0000 0.37840  0.79210  0.89680  Biso   1.000  H
  C44      1.0000 0.35342  0.90200  0.25330  Biso   1.000  C
  H69      1.0000 0.36600  0.97240  0.21360  Biso   1.000  H
  C45      1.0000 0.02560  0.90260  0.22180  Biso   1.000  C
  H70      1.0000 0.03120  0.91310  0.10800  Biso   1.000  H
  C46      1.0000 0.02040  0.98170  0.22480  Biso   1.000  C
  H71      1.0000 0.02540  0.97030  0.11090  Biso   1.000  H
  C47      1.0000 0.40611  0.86010  0.36050  Biso   1.000  C
  H72      1.0000 0.44110  0.86220  0.30260  Biso   1.000  H
  H73      1.0000 0.41150  0.90490  0.45380  Biso   1.000  H
  H74      1.0000 0.39860  0.78690  0.39200  Biso   1.000  H
  H75      1.0000 0.00290  0.11440  0.13810  Biso   1.000  H
  H76      1.0000 0.97180  0.15000  0.29080  Biso   1.000  H
  H77      1.0000 0.03790  0.11230  0.30560  Biso   1.000  H
  H78      1.0000 0.03060  0.73220  0.24040  Biso   1.000  H
  H79      1.0000 0.98570  0.78090  0.35490  Biso   1.000  H
  H80      1.0000 0.96820  0.77060  0.17170  Biso   1.000  H
  O27      1.0000 0.25275  0.96300  0.26940  Biso   1.000  O
  C48      1.0000 0.31538  0.71910  0.13620  Biso   1.000  C
  O28      1.0000 0.31001  0.65360  0.01940  Biso   1.000  O
  O29      1.0000 0.30133  0.69770  0.27590  Biso   1.000  O
  O30      1.0000 0.12730  0.98530  0.25820  Biso   1.000  O
  C49      1.0000 0.08010  0.96430  0.31800  Biso   1.000  C
  C50      1.0000 0.08350  0.92690  0.32100  Biso   1.000  C
  La6      1.0000 0.69004  0.45892  0.53460  Biso   1.000  La
  O31      1.0000 0.79992  0.41160  0.49350  Biso   1.000  O
  O32      1.0000 0.58380  0.41590  0.46140  Biso   1.000  O
  C51      1.0000 0.83836  0.33290  0.10260  Biso   1.000  C
  H81      1.0000 0.80650  0.37060  0.04060  Biso   1.000  H
  C52      1.0000 0.79899  0.42560  0.34430  Biso   1.000  C
  C53      1.0000 0.89079  0.32670  0.99580  Biso   1.000  C
  H82      1.0000 0.90450  0.39850  0.97490  Biso   1.000  H
  H83      1.0000 0.92220  0.28580  0.04910  Biso   1.000  H
  H84      1.0000 0.87840  0.29210  0.89680  Biso   1.000  H
  C54      1.0000 0.85342  0.40200  0.25330  Biso   1.000  C
  H85      1.0000 0.86600  0.47240  0.21360  Biso   1.000  H
  C55      1.0000 0.52560  0.40260  0.22180  Biso   1.000  C
  H86      1.0000 0.53120  0.41310  0.10800  Biso   1.000  H
  C56      1.0000 0.52040  0.48170  0.22480  Biso   1.000  C
  H87      1.0000 0.52540  0.47030  0.11090  Biso   1.000  H
  C57      1.0000 0.90611  0.36010  0.36050  Biso   1.000  C
  H88      1.0000 0.94110  0.36220  0.30260  Biso   1.000  H
  H89      1.0000 0.91150  0.40490  0.45380  Biso   1.000  H
  H90      1.0000 0.89860  0.28690  0.39200  Biso   1.000  H
  H91      1.0000 0.50290  0.61440  0.13810  Biso   1.000  H
  H92      1.0000 0.47180  0.65000  0.29080  Biso   1.000  H
  H93      1.0000 0.53790  0.61230  0.30560  Biso   1.000  H
  H94      1.0000 0.53060  0.23220  0.24040  Biso   1.000  H
  H95      1.0000 0.48570  0.28090  0.35490  Biso   1.000  H
  H96      1.0000 0.46820  0.27060  0.17170  Biso   1.000  H
  O33      1.0000 0.75275  0.46300  0.26940  Biso   1.000  O
  C58      1.0000 0.81538  0.21910  0.13620  Biso   1.000  C
  O34      1.0000 0.81001  0.15360  0.01940  Biso   1.000  O
  O35      1.0000 0.80133  0.19770  0.27590  Biso   1.000  O
  O36      1.0000 0.62730  0.48530  0.25820  Biso   1.000  O
  C59      1.0000 0.58010  0.46430  0.31800  Biso   1.000  C
  C60      1.0000 0.58350  0.42690  0.32100  Biso   1.000  C
  La7      1.0000 0.80996  0.95892  0.96540  Biso   1.000  La
  O37      1.0000 0.70008  0.91160  0.00650  Biso   1.000  O
  O38      1.0000 0.91620  0.91590  0.03860  Biso   1.000  O
  C61      1.0000 0.66164  0.83290  0.39740  Biso   1.000  C
  H97      1.0000 0.69350  0.87060  0.45940  Biso   1.000  H
  C62      1.0000 0.70101  0.92560  0.15570  Biso   1.000  C
  C63      1.0000 0.60921  0.82670  0.50420  Biso   1.000  C
  H98      1.0000 0.59550  0.89850  0.52510  Biso   1.000  H
  H99      1.0000 0.57780  0.78580  0.45090  Biso   1.000  H
  H100     1.0000 0.62160  0.79210  0.60320  Biso   1.000  H
  C64      1.0000 0.64658  0.90200  0.24670  Biso   1.000  C
  H101     1.0000 0.63400  0.97240  0.28640  Biso   1.000  H
  C65      1.0000 0.97440  0.90260  0.27820  Biso   1.000  C
  H102     1.0000 0.96880  0.91310  0.39200  Biso   1.000  H
  C66      1.0000 0.97960  0.98170  0.27520  Biso   1.000  C
  H103     1.0000 0.97460  0.97030  0.38910  Biso   1.000  H
  C67      1.0000 0.59389  0.86010  0.13950  Biso   1.000  C
  H104     1.0000 0.55890  0.86220  0.19740  Biso   1.000  H
  H105     1.0000 0.58850  0.90490  0.04620  Biso   1.000  H
  H106     1.0000 0.60140  0.78690  0.10800  Biso   1.000  H
  H107     1.0000 0.99710  0.11440  0.36190  Biso   1.000  H
  H108     1.0000 0.02820  0.15000  0.20920  Biso   1.000  H
  H109     1.0000 0.96210  0.11230  0.19440  Biso   1.000  H
  H110     1.0000 0.96940  0.73220  0.25960  Biso   1.000  H
  H111     1.0000 0.01430  0.78090  0.14510  Biso   1.000  H
  H112     1.0000 0.03180  0.77060  0.32830  Biso   1.000  H
  O39      1.0000 0.74725  0.96300  0.23060  Biso   1.000  O
  C68      1.0000 0.68462  0.71910  0.36380  Biso   1.000  C
  O40      1.0000 0.68999  0.65360  0.48060  Biso   1.000  O
  O41      1.0000 0.69867  0.69770  0.22410  Biso   1.000  O
  O42      1.0000 0.87270  0.98530  0.24180  Biso   1.000  O
  C69      1.0000 0.91990  0.96430  0.18200  Biso   1.000  C
  C70      1.0000 0.91650  0.92690  0.17900  Biso   1.000  C
  La8      1.0000 0.30996  0.45892  0.96540  Biso   1.000  La
  O43      1.0000 0.20008  0.41160  0.00650  Biso   1.000  O
  O44      1.0000 0.41620  0.41590  0.03860  Biso   1.000  O
  C71      1.0000 0.16164  0.33290  0.39740  Biso   1.000  C
  H113     1.0000 0.19350  0.37060  0.45940  Biso   1.000  H
  C72      1.0000 0.20101  0.42560  0.15570  Biso   1.000  C
  C73      1.0000 0.10921  0.32670  0.50420  Biso   1.000  C
  H114     1.0000 0.09550  0.39850  0.52510  Biso   1.000  H
  H115     1.0000 0.07780  0.28580  0.45090  Biso   1.000  H
  H116     1.0000 0.12160  0.29210  0.60320  Biso   1.000  H
  C74      1.0000 0.14658  0.40200  0.24670  Biso   1.000  C
  H117     1.0000 0.13400  0.47240  0.28640  Biso   1.000  H
  C75      1.0000 0.47440  0.40260  0.27820  Biso   1.000  C
  H118     1.0000 0.46880  0.41310  0.39200  Biso   1.000  H
  C76      1.0000 0.47960  0.48170  0.27520  Biso   1.000  C
  H119     1.0000 0.47460  0.47030  0.38910  Biso   1.000  H
  C77      1.0000 0.09389  0.36010  0.13950  Biso   1.000  C
  H120     1.0000 0.05890  0.36220  0.19740  Biso   1.000  H
  H121     1.0000 0.08850  0.40490  0.04620  Biso   1.000  H
  H122     1.0000 0.10140  0.28690  0.10800  Biso   1.000  H
  H123     1.0000 0.49710  0.61440  0.36190  Biso   1.000  H
  H124     1.0000 0.52820  0.65000  0.20920  Biso   1.000  H
  H125     1.0000 0.46210  0.61230  0.19440  Biso   1.000  H
  H126     1.0000 0.46940  0.23220  0.25960  Biso   1.000  H
  H127     1.0000 0.51430  0.28090  0.14510  Biso   1.000  H
  H128     1.0000 0.53180  0.27060  0.32830  Biso   1.000  H
  O45      1.0000 0.24725  0.46300  0.23060  Biso   1.000  O
  C78      1.0000 0.18462  0.21910  0.36380  Biso   1.000  C
  O46      1.0000 0.18999  0.15360  0.48060  Biso   1.000  O
  O47      1.0000 0.19867  0.19770  0.22410  Biso   1.000  O
  O48      1.0000 0.37270  0.48530  0.24180  Biso   1.000  O
  C79      1.0000 0.41990  0.46430  0.18200  Biso   1.000  C
  C80      1.0000 0.41650  0.42690  0.17900  Biso   1.000  C
  C81      1.0000 0.00000  0.89890  0.75000  Biso   1.000  C
  C82      1.0000 0.00000  0.21510  0.75000  Biso   1.000  C
  C83      1.0000 0.50000  0.39890  0.75000  Biso   1.000  C
  C84      1.0000 0.50000  0.71510  0.75000  Biso   1.000  C
  C85      1.0000 0.00000  0.10110  0.25000  Biso   1.000  C
  C86      1.0000 0.00000  0.78490  0.25000  Biso   1.000  C
  C87      1.0000 0.50000  0.60110  0.25000  Biso   1.000  C
  C88      1.0000 0.50000  0.28490  0.25000  Biso   1.000  C
