data_image0
_cell_length_a       13.9152
_cell_length_b       13.9152
_cell_length_c       13.9152
_cell_angle_alpha    90
_cell_angle_beta     90
_cell_angle_gamma    90

_symmetry_space_group_name_H-M    "P 1"
_symmetry_int_tables_number       1

loop_
  _symmetry_equiv_pos_as_xyz
  'x, y, z'

loop_
  _atom_site_label
  _atom_site_occupancy
  _atom_site_fract_x
  _atom_site_fract_y
  _atom_site_fract_z
  _atom_site_thermal_displace_type
  _atom_site_B_iso_or_equiv
  _atom_site_type_symbol
  C1       1.0000 0.65430  0.28970  0.20820  Biso   1.000  C
  C2       1.0000 0.15430  0.78970  0.70820  Biso   1.000  C
  C3       1.0000 0.34570  0.71030  0.20820  Biso   1.000  C
  C4       1.0000 0.84570  0.21030  0.70820  Biso   1.000  C
  C5       1.0000 0.34570  0.28970  0.79180  Biso   1.000  C
  C6       1.0000 0.84570  0.78970  0.29180  Biso   1.000  C
  C7       1.0000 0.65430  0.71030  0.79180  Biso   1.000  C
  C8       1.0000 0.15430  0.21030  0.29180  Biso   1.000  C
  C9       1.0000 0.20820  0.65430  0.28970  Biso   1.000  C
  C10      1.0000 0.70820  0.15430  0.78970  Biso   1.000  C
  C11      1.0000 0.20820  0.34570  0.71030  Biso   1.000  C
  C12      1.0000 0.70820  0.84570  0.21030  Biso   1.000  C
  C13      1.0000 0.79180  0.34570  0.28970  Biso   1.000  C
  C14      1.0000 0.29180  0.84570  0.78970  Biso   1.000  C
  C15      1.0000 0.79180  0.65430  0.71030  Biso   1.000  C
  C16      1.0000 0.29180  0.15430  0.21030  Biso   1.000  C
  C17      1.0000 0.28970  0.20820  0.65430  Biso   1.000  C
  C18      1.0000 0.78970  0.70820  0.15430  Biso   1.000  C
  C19      1.0000 0.71030  0.20820  0.34570  Biso   1.000  C
  C20      1.0000 0.21030  0.70820  0.84570  Biso   1.000  C
  C21      1.0000 0.28970  0.79180  0.34570  Biso   1.000  C
  C22      1.0000 0.78970  0.29180  0.84570  Biso   1.000  C
  C23      1.0000 0.71030  0.79180  0.65430  Biso   1.000  C
  C24      1.0000 0.21030  0.29180  0.15430  Biso   1.000  C
  C25      1.0000 0.28970  0.65430  0.79180  Biso   1.000  C
  C26      1.0000 0.78970  0.15430  0.29180  Biso   1.000  C
  C27      1.0000 0.71030  0.34570  0.79180  Biso   1.000  C
  C28      1.0000 0.21030  0.84570  0.29180  Biso   1.000  C
  C29      1.0000 0.28970  0.34570  0.20820  Biso   1.000  C
  C30      1.0000 0.78970  0.84570  0.70820  Biso   1.000  C
  C31      1.0000 0.71030  0.65430  0.20820  Biso   1.000  C
  C32      1.0000 0.21030  0.15430  0.70820  Biso   1.000  C
  C33      1.0000 0.65430  0.20820  0.71030  Biso   1.000  C
  C34      1.0000 0.15430  0.70820  0.21030  Biso   1.000  C
  C35      1.0000 0.34570  0.20820  0.28970  Biso   1.000  C
  C36      1.0000 0.84570  0.70820  0.78970  Biso   1.000  C
  C37      1.0000 0.34570  0.79180  0.71030  Biso   1.000  C
  C38      1.0000 0.84570  0.29180  0.21030  Biso   1.000  C
  C39      1.0000 0.65430  0.79180  0.28970  Biso   1.000  C
  C40      1.0000 0.15430  0.29180  0.78970  Biso   1.000  C
  C41      1.0000 0.20820  0.28970  0.34570  Biso   1.000  C
  C42      1.0000 0.70820  0.78970  0.84570  Biso   1.000  C
  C43      1.0000 0.20820  0.71030  0.65430  Biso   1.000  C
  C44      1.0000 0.70820  0.21030  0.15430  Biso   1.000  C
  C45      1.0000 0.79180  0.28970  0.65430  Biso   1.000  C
  C46      1.0000 0.29180  0.78970  0.15430  Biso   1.000  C
  C47      1.0000 0.79180  0.71030  0.34570  Biso   1.000  C
  C48      1.0000 0.29180  0.21030  0.84570  Biso   1.000  C
  C49      1.0000 0.34570  0.71030  0.79180  Biso   1.000  C
  C50      1.0000 0.84570  0.21030  0.29180  Biso   1.000  C
  C51      1.0000 0.65430  0.28970  0.79180  Biso   1.000  C
  C52      1.0000 0.15430  0.78970  0.29180  Biso   1.000  C
  C53      1.0000 0.65430  0.71030  0.20820  Biso   1.000  C
  C54      1.0000 0.15430  0.21030  0.70820  Biso   1.000  C
  C55      1.0000 0.34570  0.28970  0.20820  Biso   1.000  C
  C56      1.0000 0.84570  0.78970  0.70820  Biso   1.000  C
  C57      1.0000 0.79180  0.34570  0.71030  Biso   1.000  C
  C58      1.0000 0.29180  0.84570  0.21030  Biso   1.000  C
  C59      1.0000 0.79180  0.65430  0.28970  Biso   1.000  C
  C60      1.0000 0.29180  0.15430  0.78970  Biso   1.000  C
  C61      1.0000 0.20820  0.65430  0.71030  Biso   1.000  C
  C62      1.0000 0.70820  0.15430  0.21030  Biso   1.000  C
  C63      1.0000 0.20820  0.34570  0.28970  Biso   1.000  C
  C64      1.0000 0.70820  0.84570  0.78970  Biso   1.000  C
  C65      1.0000 0.71030  0.79180  0.34570  Biso   1.000  C
  C66      1.0000 0.21030  0.29180  0.84570  Biso   1.000  C
  C67      1.0000 0.28970  0.79180  0.65430  Biso   1.000  C
  C68      1.0000 0.78970  0.29180  0.15430  Biso   1.000  C
  C69      1.0000 0.71030  0.20820  0.65430  Biso   1.000  C
  C70      1.0000 0.21030  0.70820  0.15430  Biso   1.000  C
  C71      1.0000 0.28970  0.20820  0.34570  Biso   1.000  C
  C72      1.0000 0.78970  0.70820  0.84570  Biso   1.000  C
  C73      1.0000 0.71030  0.34570  0.20820  Biso   1.000  C
  C74      1.0000 0.21030  0.84570  0.70820  Biso   1.000  C
  C75      1.0000 0.28970  0.65430  0.20820  Biso   1.000  C
  C76      1.0000 0.78970  0.15430  0.70820  Biso   1.000  C
  C77      1.0000 0.71030  0.65430  0.79180  Biso   1.000  C
  C78      1.0000 0.21030  0.15430  0.29180  Biso   1.000  C
  C79      1.0000 0.28970  0.34570  0.79180  Biso   1.000  C
  C80      1.0000 0.78970  0.84570  0.29180  Biso   1.000  C
  C81      1.0000 0.34570  0.79180  0.28970  Biso   1.000  C
  C82      1.0000 0.84570  0.29180  0.78970  Biso   1.000  C
  C83      1.0000 0.65430  0.79180  0.71030  Biso   1.000  C
  C84      1.0000 0.15430  0.29180  0.21030  Biso   1.000  C
  C85      1.0000 0.65430  0.20820  0.28970  Biso   1.000  C
  C86      1.0000 0.15430  0.70820  0.78970  Biso   1.000  C
  C87      1.0000 0.34570  0.20820  0.71030  Biso   1.000  C
  C88      1.0000 0.84570  0.70820  0.21030  Biso   1.000  C
  C89      1.0000 0.79180  0.71030  0.65430  Biso   1.000  C
  C90      1.0000 0.29180  0.21030  0.15430  Biso   1.000  C
  C91      1.0000 0.79180  0.28970  0.34570  Biso   1.000  C
  C92      1.0000 0.29180  0.78970  0.84570  Biso   1.000  C
  C93      1.0000 0.20820  0.71030  0.34570  Biso   1.000  C
  C94      1.0000 0.70820  0.21030  0.84570  Biso   1.000  C
  C95      1.0000 0.20820  0.28970  0.65430  Biso   1.000  C
  C96      1.0000 0.70820  0.78970  0.15430  Biso   1.000  C
  I1       1.0000 0.72216  0.50000  0.50000  Biso   1.000  I
  I2       1.0000 0.22216  0.00000  0.00000  Biso   1.000  I
  I3       1.0000 0.27784  0.50000  0.50000  Biso   1.000  I
  I4       1.0000 0.77784  0.00000  0.00000  Biso   1.000  I
  I5       1.0000 0.50000  0.72216  0.50000  Biso   1.000  I
  I6       1.0000 0.00000  0.22216  0.00000  Biso   1.000  I
  I7       1.0000 0.50000  0.27784  0.50000  Biso   1.000  I
  I8       1.0000 0.00000  0.77784  0.00000  Biso   1.000  I
  I9       1.0000 0.50000  0.50000  0.72216  Biso   1.000  I
  I10      1.0000 0.00000  0.00000  0.22216  Biso   1.000  I
  I11      1.0000 0.50000  0.50000  0.27784  Biso   1.000  I
  I12      1.0000 0.00000  0.00000  0.77784  Biso   1.000  I
  Cu1      1.0000 0.60844  0.39156  0.39156  Biso   1.000  Cu
  N1       1.0000 0.69520  0.30480  0.30480  Biso   1.000  N
  Cu2      1.0000 0.10844  0.89156  0.89156  Biso   1.000  Cu
  N2       1.0000 0.19520  0.80480  0.80480  Biso   1.000  N
  Cu3      1.0000 0.39156  0.60844  0.39156  Biso   1.000  Cu
  N3       1.0000 0.30480  0.69520  0.30480  Biso   1.000  N
  Cu4      1.0000 0.89156  0.10844  0.89156  Biso   1.000  Cu
  N4       1.0000 0.80480  0.19520  0.80480  Biso   1.000  N
  Cu5      1.0000 0.39156  0.39156  0.60844  Biso   1.000  Cu
  N5       1.0000 0.30480  0.30480  0.69520  Biso   1.000  N
  Cu6      1.0000 0.89156  0.89156  0.10844  Biso   1.000  Cu
  N6       1.0000 0.80480  0.80480  0.19520  Biso   1.000  N
  Cu7      1.0000 0.60844  0.60844  0.60844  Biso   1.000  Cu
  N7       1.0000 0.69520  0.69520  0.69520  Biso   1.000  N
  Cu8      1.0000 0.10844  0.10844  0.10844  Biso   1.000  Cu
  N8       1.0000 0.19520  0.19520  0.19520  Biso   1.000  N
  Cu9      1.0000 0.39156  0.60844  0.60844  Biso   1.000  Cu
  N9       1.0000 0.30480  0.69520  0.69520  Biso   1.000  N
  Cu10     1.0000 0.89156  0.10844  0.10844  Biso   1.000  Cu
  N10      1.0000 0.80480  0.19520  0.19520  Biso   1.000  N
  Cu11     1.0000 0.60844  0.39156  0.60844  Biso   1.000  Cu
  N11      1.0000 0.69520  0.30480  0.69520  Biso   1.000  N
  Cu12     1.0000 0.10844  0.89156  0.10844  Biso   1.000  Cu
  N12      1.0000 0.19520  0.80480  0.19520  Biso   1.000  N
  Cu13     1.0000 0.39156  0.39156  0.39156  Biso   1.000  Cu
  N13      1.0000 0.30480  0.30480  0.30480  Biso   1.000  N
  Cu14     1.0000 0.89156  0.89156  0.89156  Biso   1.000  Cu
  N14      1.0000 0.80480  0.80480  0.80480  Biso   1.000  N
  Cu15     1.0000 0.60844  0.60844  0.39156  Biso   1.000  Cu
  N15      1.0000 0.69520  0.69520  0.30480  Biso   1.000  N
  Cu16     1.0000 0.10844  0.10844  0.89156  Biso   1.000  Cu
  N16      1.0000 0.19520  0.19520  0.80480  Biso   1.000  N
  C97      1.0000 0.75300  0.24700  0.36800  Biso   1.000  C
  C98      1.0000 0.25300  0.74700  0.86800  Biso   1.000  C
  C99      1.0000 0.24700  0.75300  0.36800  Biso   1.000  C
  C100     1.0000 0.74700  0.25300  0.86800  Biso   1.000  C
  C101     1.0000 0.24700  0.24700  0.63200  Biso   1.000  C
  C102     1.0000 0.74700  0.74700  0.13200  Biso   1.000  C
  C103     1.0000 0.75300  0.75300  0.63200  Biso   1.000  C
  C104     1.0000 0.25300  0.25300  0.13200  Biso   1.000  C
  C105     1.0000 0.36800  0.75300  0.24700  Biso   1.000  C
  C106     1.0000 0.86800  0.25300  0.74700  Biso   1.000  C
  C107     1.0000 0.36800  0.24700  0.75300  Biso   1.000  C
  C108     1.0000 0.86800  0.74700  0.25300  Biso   1.000  C
  C109     1.0000 0.63200  0.24700  0.24700  Biso   1.000  C
  C110     1.0000 0.13200  0.74700  0.74700  Biso   1.000  C
  C111     1.0000 0.63200  0.75300  0.75300  Biso   1.000  C
  C112     1.0000 0.13200  0.25300  0.25300  Biso   1.000  C
  C113     1.0000 0.24700  0.36800  0.75300  Biso   1.000  C
  C114     1.0000 0.74700  0.86800  0.25300  Biso   1.000  C
  C115     1.0000 0.75300  0.36800  0.24700  Biso   1.000  C
  C116     1.0000 0.25300  0.86800  0.74700  Biso   1.000  C
  C117     1.0000 0.24700  0.63200  0.24700  Biso   1.000  C
  C118     1.0000 0.74700  0.13200  0.74700  Biso   1.000  C
  C119     1.0000 0.75300  0.63200  0.75300  Biso   1.000  C
  C120     1.0000 0.25300  0.13200  0.25300  Biso   1.000  C
  C121     1.0000 0.24700  0.75300  0.63200  Biso   1.000  C
  C122     1.0000 0.74700  0.25300  0.13200  Biso   1.000  C
  C123     1.0000 0.75300  0.24700  0.63200  Biso   1.000  C
  C124     1.0000 0.25300  0.74700  0.13200  Biso   1.000  C
  C125     1.0000 0.24700  0.24700  0.36800  Biso   1.000  C
  C126     1.0000 0.74700  0.74700  0.86800  Biso   1.000  C
  C127     1.0000 0.75300  0.75300  0.36800  Biso   1.000  C
  C128     1.0000 0.25300  0.25300  0.86800  Biso   1.000  C
  C129     1.0000 0.75300  0.36800  0.75300  Biso   1.000  C
  C130     1.0000 0.25300  0.86800  0.25300  Biso   1.000  C
  C131     1.0000 0.24700  0.36800  0.24700  Biso   1.000  C
  C132     1.0000 0.74700  0.86800  0.74700  Biso   1.000  C
  C133     1.0000 0.24700  0.63200  0.75300  Biso   1.000  C
  C134     1.0000 0.74700  0.13200  0.25300  Biso   1.000  C
  C135     1.0000 0.75300  0.63200  0.24700  Biso   1.000  C
  C136     1.0000 0.25300  0.13200  0.74700  Biso   1.000  C
  C137     1.0000 0.36800  0.24700  0.24700  Biso   1.000  C
  C138     1.0000 0.86800  0.74700  0.74700  Biso   1.000  C
  C139     1.0000 0.36800  0.75300  0.75300  Biso   1.000  C
  C140     1.0000 0.86800  0.25300  0.25300  Biso   1.000  C
  C141     1.0000 0.63200  0.24700  0.75300  Biso   1.000  C
  C142     1.0000 0.13200  0.74700  0.25300  Biso   1.000  C
  C143     1.0000 0.63200  0.75300  0.24700  Biso   1.000  C
  C144     1.0000 0.13200  0.25300  0.74700  Biso   1.000  C
