data_image0
_cell_length_a       10.1661
_cell_length_b       21.4687
_cell_length_c       20.113
_cell_angle_alpha    90
_cell_angle_beta     97.091
_cell_angle_gamma    90

_symmetry_space_group_name_H-M    "P 1"
_symmetry_int_tables_number       1

loop_
  _symmetry_equiv_pos_as_xyz
  'x, y, z'

loop_
  _atom_site_label
  _atom_site_occupancy
  _atom_site_fract_x
  _atom_site_fract_y
  _atom_site_fract_z
  _atom_site_thermal_displace_type
  _atom_site_B_iso_or_equiv
  _atom_site_type_symbol
  K1       1.0000 0.12642  0.13019  0.85712  Biso   1.000  K
  K2       1.0000 0.63551  0.11240  0.84982  Biso   1.000  K
  K3       1.0000 0.06432  0.41052  0.96627  Biso   1.000  K
  C1       1.0000 0.15850  0.28206  0.74408  Biso   1.000  C
  N1       1.0000 0.16730  0.23854  0.77706  Biso   1.000  N
  N2       1.0000 0.18720  0.43359  0.84497  Biso   1.000  N
  C2       1.0000 0.17260  0.41867  0.79005  Biso   1.000  C
  C3       1.0000 0.13240  0.50144  0.66392  Biso   1.000  C
  N3       1.0000 0.13280  0.55505  0.66513  Biso   1.000  N
  C4       1.0000 0.09730  0.41402  0.53936  Biso   1.000  C
  N4       1.0000 0.08690  0.42621  0.48383  Biso   1.000  N
  C5       1.0000 0.10890  0.27880  0.59177  Biso   1.000  C
  N5       1.0000 0.09810  0.23329  0.56161  Biso   1.000  N
  C6       1.0000 0.14570  0.33526  0.70170  Biso   1.000  C
  C7       1.0000 0.15220  0.39808  0.72239  Biso   1.000  C
  C8       1.0000 0.13270  0.43540  0.66429  Biso   1.000  C
  C9       1.0000 0.11470  0.39574  0.60806  Biso   1.000  C
  C10      1.0000 0.12260  0.33399  0.63140  Biso   1.000  C
  C11      1.0000 0.93230  0.27247  0.05804  Biso   1.000  C
  N6       1.0000 0.92520  0.31780  0.02796  Biso   1.000  N
  C12      1.0000 0.90180  0.14212  0.99723  Biso   1.000  C
  N7       1.0000 0.87950  0.13233  0.94116  Biso   1.000  N
  C13      1.0000 0.94140  0.04604  0.11410  Biso   1.000  C
  N8       1.0000 0.93330  0.99322  0.11255  Biso   1.000  N
  C14      1.0000 0.00110  0.11909  0.24504  Biso   1.000  C
  N9       1.0000 0.02320  0.09840  0.29750  Biso   1.000  N
  C15      1.0000 0.99560  0.25839  0.21221  Biso   1.000  C
  N10      1.0000 0.01700  0.29719  0.25111  Biso   1.000  N
  C16      1.0000 0.94270  0.21577  0.09487  Biso   1.000  C
  C17      1.0000 0.97440  0.14551  0.17965  Biso   1.000  C
  C18      1.0000 0.92960  0.15572  0.06674  Biso   1.000  C
  C19      1.0000 0.94890  0.11215  0.11950  Biso   1.000  C
  C20      1.0000 0.97090  0.20941  0.16461  Biso   1.000  C
  C21      1.0000 0.27290  0.29181  0.09864  Biso   1.000  C
  N11      1.0000 0.25320  0.33473  0.06491  Biso   1.000  N
  N12      1.0000 0.22410  0.14337  0.99325  Biso   1.000  N
  C22      1.0000 0.25030  0.15713  0.04800  Biso   1.000  C
  N13      1.0000 0.29660  0.01632  0.16760  Biso   1.000  N
  C23      1.0000 0.29930  0.06978  0.16997  Biso   1.000  C
  C24      1.0000 0.35850  0.15053  0.29645  Biso   1.000  C
  N14      1.0000 0.38560  0.13156  0.34958  Biso   1.000  N
  N15      1.0000 0.36010  0.33291  0.28403  Biso   1.000  N
  C25      1.0000 0.34300  0.28932  0.25141  Biso   1.000  C
  C26      1.0000 0.29350  0.23756  0.13912  Biso   1.000  C
  C27      1.0000 0.28140  0.17562  0.11622  Biso   1.000  C
  C28      1.0000 0.30290  0.13608  0.17188  Biso   1.000  C
  C29      1.0000 0.32820  0.17326  0.22968  Biso   1.000  C
  C30      1.0000 0.32280  0.23584  0.20933  Biso   1.000  C
  N16      1.0000 0.27960  0.52463  0.00680  Biso   1.000  N
  O1       1.0000 0.32880  0.47304  0.00538  Biso   1.000  O
  O2       1.0000 0.16220  0.53454  0.98820  Biso   1.000  O
  C31      1.0000 0.36390  0.57793  0.03230  Biso   1.000  C
  H1       1.0000 0.34640  0.58820  0.07790  Biso   1.000  H
  H2       1.0000 0.34350  0.61410  0.00310  Biso   1.000  H
  H3       1.0000 0.45750  0.56670  0.03280  Biso   1.000  H
  N17      1.0000 0.48860  0.24480  0.90270  Biso   1.000  N
  O3       1.0000 0.60190  0.25505  0.89480  Biso   1.000  O
  O4       1.0000 0.43690  0.19370  0.89690  Biso   1.000  O
  C32      1.0000 0.40730  0.29860  0.91640  Biso   1.000  C
  H4       1.0000 0.42170  0.33250  0.88540  Biso   1.000  H
  H5       1.0000 0.43240  0.31260  0.96260  Biso   1.000  H
  H6       1.0000 0.31350  0.28670  0.91030  Biso   1.000  H
  N18      1.0000 0.31250  0.26600  0.91080  Biso   1.000  N
  O5       1.0000 0.35290  0.21480  0.89600  Biso   1.000  O
  O6       1.0000 0.19580  0.27690  0.91530  Biso   1.000  O
  C33      1.0000 0.40830  0.31410  0.92130  Biso   1.000  C
  H7       1.0000 0.44310  0.32340  0.87900  Biso   1.000  H
  H8       1.0000 0.48100  0.30070  0.95480  Biso   1.000  H
  H9       1.0000 0.36710  0.35160  0.93730  Biso   1.000  H
  K4       1.0000 0.37358  0.63019  0.64288  Biso   1.000  K
  K5       1.0000 0.86449  0.61240  0.65018  Biso   1.000  K
  K6       1.0000 0.43568  0.91052  0.53373  Biso   1.000  K
  C34      1.0000 0.34150  0.78206  0.75592  Biso   1.000  C
  N19      1.0000 0.33270  0.73854  0.72294  Biso   1.000  N
  N20      1.0000 0.31280  0.93359  0.65503  Biso   1.000  N
  C35      1.0000 0.32740  0.91867  0.70995  Biso   1.000  C
  C36      1.0000 0.36760  0.00144  0.83608  Biso   1.000  C
  N21      1.0000 0.36720  0.05505  0.83487  Biso   1.000  N
  C37      1.0000 0.40270  0.91402  0.96064  Biso   1.000  C
  N22      1.0000 0.41310  0.92621  0.01617  Biso   1.000  N
  C38      1.0000 0.39110  0.77880  0.90823  Biso   1.000  C
  N23      1.0000 0.40190  0.73329  0.93839  Biso   1.000  N
  C39      1.0000 0.35430  0.83526  0.79830  Biso   1.000  C
  C40      1.0000 0.34780  0.89808  0.77761  Biso   1.000  C
  C41      1.0000 0.36730  0.93540  0.83571  Biso   1.000  C
  C42      1.0000 0.38530  0.89574  0.89194  Biso   1.000  C
  C43      1.0000 0.37740  0.83399  0.86860  Biso   1.000  C
  C44      1.0000 0.56770  0.77247  0.44196  Biso   1.000  C
  N24      1.0000 0.57480  0.81780  0.47204  Biso   1.000  N
  C45      1.0000 0.59820  0.64212  0.50277  Biso   1.000  C
  N25      1.0000 0.62050  0.63233  0.55884  Biso   1.000  N
  C46      1.0000 0.55860  0.54604  0.38590  Biso   1.000  C
  N26      1.0000 0.56670  0.49322  0.38745  Biso   1.000  N
  C47      1.0000 0.49890  0.61909  0.25496  Biso   1.000  C
  N27      1.0000 0.47680  0.59840  0.20250  Biso   1.000  N
  C48      1.0000 0.50440  0.75839  0.28779  Biso   1.000  C
  N28      1.0000 0.48300  0.79719  0.24889  Biso   1.000  N
  C49      1.0000 0.55730  0.71577  0.40513  Biso   1.000  C
  C50      1.0000 0.52560  0.64551  0.32035  Biso   1.000  C
  C51      1.0000 0.57040  0.65572  0.43326  Biso   1.000  C
  C52      1.0000 0.55110  0.61215  0.38050  Biso   1.000  C
  C53      1.0000 0.52910  0.70941  0.33539  Biso   1.000  C
  C54      1.0000 0.22710  0.79181  0.40136  Biso   1.000  C
  N29      1.0000 0.24680  0.83473  0.43509  Biso   1.000  N
  N30      1.0000 0.27590  0.64337  0.50675  Biso   1.000  N
  C55      1.0000 0.24970  0.65713  0.45200  Biso   1.000  C
  N31      1.0000 0.20340  0.51632  0.33240  Biso   1.000  N
  C56      1.0000 0.20070  0.56978  0.33003  Biso   1.000  C
  C57      1.0000 0.14150  0.65053  0.20355  Biso   1.000  C
  N32      1.0000 0.11440  0.63156  0.15042  Biso   1.000  N
  N33      1.0000 0.13990  0.83291  0.21597  Biso   1.000  N
  C58      1.0000 0.15700  0.78932  0.24859  Biso   1.000  C
  C59      1.0000 0.20650  0.73756  0.36088  Biso   1.000  C
  C60      1.0000 0.21860  0.67562  0.38378  Biso   1.000  C
  C61      1.0000 0.19710  0.63608  0.32812  Biso   1.000  C
  C62      1.0000 0.17180  0.67326  0.27032  Biso   1.000  C
  C63      1.0000 0.17720  0.73584  0.29067  Biso   1.000  C
  N34      1.0000 0.22040  0.02463  0.49320  Biso   1.000  N
  O7       1.0000 0.17120  0.97304  0.49462  Biso   1.000  O
  O8       1.0000 0.33780  0.03454  0.51180  Biso   1.000  O
  C64      1.0000 0.13610  0.07793  0.46770  Biso   1.000  C
  H10      1.0000 0.15360  0.08820  0.42210  Biso   1.000  H
  H11      1.0000 0.15650  0.11410  0.49690  Biso   1.000  H
  H12      1.0000 0.04250  0.06670  0.46720  Biso   1.000  H
  N35      1.0000 0.01140  0.74480  0.59730  Biso   1.000  N
  O9       1.0000 0.89810  0.75505  0.60520  Biso   1.000  O
  O10      1.0000 0.06310  0.69370  0.60310  Biso   1.000  O
  C65      1.0000 0.09270  0.79860  0.58360  Biso   1.000  C
  H13      1.0000 0.07830  0.83250  0.61460  Biso   1.000  H
  H14      1.0000 0.06760  0.81260  0.53740  Biso   1.000  H
  H15      1.0000 0.18650  0.78670  0.58970  Biso   1.000  H
  N36      1.0000 0.18750  0.76600  0.58920  Biso   1.000  N
  O11      1.0000 0.14710  0.71480  0.60400  Biso   1.000  O
  O12      1.0000 0.30420  0.77690  0.58470  Biso   1.000  O
  C66      1.0000 0.09170  0.81410  0.57870  Biso   1.000  C
  H16      1.0000 0.05690  0.82340  0.62100  Biso   1.000  H
  H17      1.0000 0.01900  0.80070  0.54520  Biso   1.000  H
  H18      1.0000 0.13290  0.85160  0.56270  Biso   1.000  H
  K7       1.0000 0.87358  0.86981  0.14288  Biso   1.000  K
  K8       1.0000 0.36449  0.88760  0.15018  Biso   1.000  K
  K9       1.0000 0.93568  0.58948  0.03373  Biso   1.000  K
  C67      1.0000 0.84150  0.71794  0.25592  Biso   1.000  C
  N37      1.0000 0.83270  0.76146  0.22294  Biso   1.000  N
  N38      1.0000 0.81280  0.56641  0.15503  Biso   1.000  N
  C68      1.0000 0.82740  0.58133  0.20995  Biso   1.000  C
  C69      1.0000 0.86760  0.49856  0.33608  Biso   1.000  C
  N39      1.0000 0.86720  0.44495  0.33487  Biso   1.000  N
  C70      1.0000 0.90270  0.58598  0.46064  Biso   1.000  C
  N40      1.0000 0.91310  0.57379  0.51617  Biso   1.000  N
  C71      1.0000 0.89110  0.72120  0.40823  Biso   1.000  C
  N41      1.0000 0.90190  0.76671  0.43839  Biso   1.000  N
  C72      1.0000 0.85430  0.66474  0.29830  Biso   1.000  C
  C73      1.0000 0.84780  0.60192  0.27761  Biso   1.000  C
  C74      1.0000 0.86730  0.56460  0.33571  Biso   1.000  C
  C75      1.0000 0.88530  0.60426  0.39194  Biso   1.000  C
  C76      1.0000 0.87740  0.66601  0.36860  Biso   1.000  C
  C77      1.0000 0.06770  0.72753  0.94196  Biso   1.000  C
  N42      1.0000 0.07480  0.68220  0.97204  Biso   1.000  N
  C78      1.0000 0.09820  0.85788  0.00277  Biso   1.000  C
  N43      1.0000 0.12050  0.86767  0.05884  Biso   1.000  N
  C79      1.0000 0.05860  0.95396  0.88590  Biso   1.000  C
  N44      1.0000 0.06670  0.00678  0.88745  Biso   1.000  N
  C80      1.0000 0.99890  0.88091  0.75496  Biso   1.000  C
  N45      1.0000 0.97680  0.90160  0.70250  Biso   1.000  N
  C81      1.0000 0.00440  0.74161  0.78779  Biso   1.000  C
  N46      1.0000 0.98300  0.70281  0.74889  Biso   1.000  N
  C82      1.0000 0.05730  0.78423  0.90513  Biso   1.000  C
  C83      1.0000 0.02560  0.85449  0.82035  Biso   1.000  C
  C84      1.0000 0.07040  0.84428  0.93326  Biso   1.000  C
  C85      1.0000 0.05110  0.88785  0.88050  Biso   1.000  C
  C86      1.0000 0.02910  0.79059  0.83539  Biso   1.000  C
  C87      1.0000 0.72710  0.70819  0.90136  Biso   1.000  C
  N47      1.0000 0.74680  0.66527  0.93509  Biso   1.000  N
  N48      1.0000 0.77590  0.85663  0.00675  Biso   1.000  N
  C88      1.0000 0.74970  0.84287  0.95200  Biso   1.000  C
  N49      1.0000 0.70340  0.98368  0.83240  Biso   1.000  N
  C89      1.0000 0.70070  0.93022  0.83003  Biso   1.000  C
  C90      1.0000 0.64150  0.84947  0.70355  Biso   1.000  C
  N50      1.0000 0.61440  0.86844  0.65042  Biso   1.000  N
  N51      1.0000 0.63990  0.66709  0.71597  Biso   1.000  N
  C91      1.0000 0.65700  0.71068  0.74859  Biso   1.000  C
  C92      1.0000 0.70650  0.76244  0.86088  Biso   1.000  C
  C93      1.0000 0.71860  0.82438  0.88378  Biso   1.000  C
  C94      1.0000 0.69710  0.86392  0.82812  Biso   1.000  C
  C95      1.0000 0.67180  0.82674  0.77032  Biso   1.000  C
  C96      1.0000 0.67720  0.76416  0.79067  Biso   1.000  C
  N52      1.0000 0.72040  0.47537  0.99320  Biso   1.000  N
  O13      1.0000 0.67120  0.52696  0.99462  Biso   1.000  O
  O14      1.0000 0.83780  0.46546  0.01180  Biso   1.000  O
  C97      1.0000 0.63610  0.42207  0.96770  Biso   1.000  C
  H19      1.0000 0.65360  0.41180  0.92210  Biso   1.000  H
  H20      1.0000 0.65650  0.38590  0.99690  Biso   1.000  H
  H21      1.0000 0.54250  0.43330  0.96720  Biso   1.000  H
  N53      1.0000 0.51140  0.75520  0.09730  Biso   1.000  N
  O15      1.0000 0.39810  0.74495  0.10520  Biso   1.000  O
  O16      1.0000 0.56310  0.80630  0.10310  Biso   1.000  O
  C98      1.0000 0.59270  0.70140  0.08360  Biso   1.000  C
  H22      1.0000 0.57830  0.66750  0.11460  Biso   1.000  H
  H23      1.0000 0.56760  0.68740  0.03740  Biso   1.000  H
  H24      1.0000 0.68650  0.71330  0.08970  Biso   1.000  H
  N54      1.0000 0.68750  0.73400  0.08920  Biso   1.000  N
  O17      1.0000 0.64710  0.78520  0.10400  Biso   1.000  O
  O18      1.0000 0.80420  0.72310  0.08470  Biso   1.000  O
  C99      1.0000 0.59170  0.68590  0.07870  Biso   1.000  C
  H25      1.0000 0.55690  0.67660  0.12100  Biso   1.000  H
  H26      1.0000 0.51900  0.69930  0.04520  Biso   1.000  H
  H27      1.0000 0.63290  0.64840  0.06270  Biso   1.000  H
  K10      1.0000 0.62642  0.36981  0.35712  Biso   1.000  K
  K11      1.0000 0.13551  0.38760  0.34982  Biso   1.000  K
  K12      1.0000 0.56432  0.08948  0.46627  Biso   1.000  K
  C100     1.0000 0.65850  0.21794  0.24408  Biso   1.000  C
  N55      1.0000 0.66730  0.26146  0.27706  Biso   1.000  N
  N56      1.0000 0.68720  0.06641  0.34497  Biso   1.000  N
  C101     1.0000 0.67260  0.08133  0.29005  Biso   1.000  C
  C102     1.0000 0.63240  0.99856  0.16392  Biso   1.000  C
  N57      1.0000 0.63280  0.94495  0.16513  Biso   1.000  N
  C103     1.0000 0.59730  0.08598  0.03936  Biso   1.000  C
  N58      1.0000 0.58690  0.07379  0.98383  Biso   1.000  N
  C104     1.0000 0.60890  0.22120  0.09177  Biso   1.000  C
  N59      1.0000 0.59810  0.26671  0.06161  Biso   1.000  N
  C105     1.0000 0.64570  0.16474  0.20170  Biso   1.000  C
  C106     1.0000 0.65220  0.10192  0.22239  Biso   1.000  C
  C107     1.0000 0.63270  0.06460  0.16429  Biso   1.000  C
  C108     1.0000 0.61470  0.10426  0.10806  Biso   1.000  C
  C109     1.0000 0.62260  0.16601  0.13140  Biso   1.000  C
  C110     1.0000 0.43230  0.22753  0.55804  Biso   1.000  C
  N60      1.0000 0.42520  0.18220  0.52796  Biso   1.000  N
  C111     1.0000 0.40180  0.35788  0.49723  Biso   1.000  C
  N61      1.0000 0.37950  0.36767  0.44116  Biso   1.000  N
  C112     1.0000 0.44140  0.45396  0.61410  Biso   1.000  C
  N62      1.0000 0.43330  0.50678  0.61255  Biso   1.000  N
  C113     1.0000 0.50110  0.38091  0.74504  Biso   1.000  C
  N63      1.0000 0.52320  0.40160  0.79750  Biso   1.000  N
  C114     1.0000 0.49560  0.24161  0.71221  Biso   1.000  C
  N64      1.0000 0.51700  0.20281  0.75111  Biso   1.000  N
  C115     1.0000 0.44270  0.28423  0.59487  Biso   1.000  C
  C116     1.0000 0.47440  0.35449  0.67965  Biso   1.000  C
  C117     1.0000 0.42960  0.34428  0.56674  Biso   1.000  C
  C118     1.0000 0.44890  0.38785  0.61950  Biso   1.000  C
  C119     1.0000 0.47090  0.29059  0.66461  Biso   1.000  C
  C120     1.0000 0.77290  0.20819  0.59864  Biso   1.000  C
  N65      1.0000 0.75320  0.16527  0.56491  Biso   1.000  N
  N66      1.0000 0.72410  0.35663  0.49325  Biso   1.000  N
  C121     1.0000 0.75030  0.34287  0.54800  Biso   1.000  C
  N67      1.0000 0.79660  0.48368  0.66760  Biso   1.000  N
  C122     1.0000 0.79930  0.43022  0.66997  Biso   1.000  C
  C123     1.0000 0.85850  0.34947  0.79645  Biso   1.000  C
  N68      1.0000 0.88560  0.36844  0.84958  Biso   1.000  N
  N69      1.0000 0.86010  0.16709  0.78403  Biso   1.000  N
  C124     1.0000 0.84300  0.21068  0.75141  Biso   1.000  C
  C125     1.0000 0.79350  0.26244  0.63912  Biso   1.000  C
  C126     1.0000 0.78140  0.32438  0.61622  Biso   1.000  C
  C127     1.0000 0.80290  0.36392  0.67188  Biso   1.000  C
  C128     1.0000 0.82820  0.32674  0.72968  Biso   1.000  C
  C129     1.0000 0.82280  0.26416  0.70933  Biso   1.000  C
  N70      1.0000 0.77960  0.97537  0.50680  Biso   1.000  N
  O19      1.0000 0.82880  0.02696  0.50538  Biso   1.000  O
  O20      1.0000 0.66220  0.96546  0.48820  Biso   1.000  O
  C130     1.0000 0.86390  0.92207  0.53230  Biso   1.000  C
  H28      1.0000 0.84640  0.91180  0.57790  Biso   1.000  H
  H29      1.0000 0.84350  0.88590  0.50310  Biso   1.000  H
  H30      1.0000 0.95750  0.93330  0.53280  Biso   1.000  H
  N71      1.0000 0.98860  0.25520  0.40270  Biso   1.000  N
  O21      1.0000 0.10190  0.24495  0.39480  Biso   1.000  O
  O22      1.0000 0.93690  0.30630  0.39690  Biso   1.000  O
  C131     1.0000 0.90730  0.20140  0.41640  Biso   1.000  C
  H31      1.0000 0.92170  0.16750  0.38540  Biso   1.000  H
  H32      1.0000 0.93240  0.18740  0.46260  Biso   1.000  H
  H33      1.0000 0.81350  0.21330  0.41030  Biso   1.000  H
  N72      1.0000 0.81250  0.23400  0.41080  Biso   1.000  N
  O23      1.0000 0.85290  0.28520  0.39600  Biso   1.000  O
  O24      1.0000 0.69580  0.22310  0.41530  Biso   1.000  O
  C132     1.0000 0.90830  0.18590  0.42130  Biso   1.000  C
  H34      1.0000 0.94310  0.17660  0.37900  Biso   1.000  H
  H35      1.0000 0.98100  0.19930  0.45480  Biso   1.000  H
  H36      1.0000 0.86710  0.14840  0.43730  Biso   1.000  H
