data_image0
_cell_length_a       21.9415
_cell_length_b       7.7878
_cell_length_c       19.6649
_cell_angle_alpha    90
_cell_angle_beta     90
_cell_angle_gamma    90

_symmetry_space_group_name_H-M    "P 1"
_symmetry_int_tables_number       1

loop_
  _symmetry_equiv_pos_as_xyz
  'x, y, z'

loop_
  _atom_site_label
  _atom_site_occupancy
  _atom_site_fract_x
  _atom_site_fract_y
  _atom_site_fract_z
  _atom_site_thermal_displace_type
  _atom_site_B_iso_or_equiv
  _atom_site_type_symbol
  Pr1      1.0000 0.28128  0.57803  0.05564  Biso   1.000  Pr
  O1       1.0000 0.16737  0.55390  0.05631  Biso   1.000  O
  O2       1.0000 0.24907  0.83330  0.98071  Biso   1.000  O
  O3       1.0000 0.13899  0.28570  0.07558  Biso   1.000  O
  O4       1.0000 0.32081  0.66910  0.93922  Biso   1.000  O
  O5       1.0000 0.26276  0.69240  0.62526  Biso   1.000  O
  O6       1.0000 0.32003  0.50330  0.67525  Biso   1.000  O
  C1       1.0000 0.29140  0.80420  0.93710  Biso   1.000  C
  C2       1.0000 0.12760  0.44040  0.06850  Biso   1.000  C
  C3       1.0000 0.35380  0.89570  0.83290  Biso   1.000  C
  C4       1.0000 0.30460  0.94060  0.88510  Biso   1.000  C
  H1       1.0000 0.31690  0.04410  0.90880  Biso   1.000  H
  H2       1.0000 0.26710  0.96630  0.86100  Biso   1.000  H
  C5       1.0000 0.06175  0.49550  0.07090  Biso   1.000  C
  H3       1.0000 0.05910  0.61440  0.08530  Biso   1.000  H
  H4       1.0000 0.03970  0.42560  0.10350  Biso   1.000  H
  C6       1.0000 0.29880  0.64930  0.67290  Biso   1.000  C
  C7       1.0000 0.03345  0.47560  0.00110  Biso   1.000  C
  H5       1.0000 0.05560  0.54700  0.96910  Biso   1.000  H
  H6       1.0000 0.03780  0.35720  0.98660  Biso   1.000  H
  C8       1.0000 0.35020  0.26090  0.28360  Biso   1.000  C
  C9       1.0000 0.30910  0.78480  0.78500  Biso   1.000  C
  C10      1.0000 0.33530  0.78160  0.71380  Biso   1.000  C
  C11      1.0000 0.29890  0.21100  0.22750  Biso   1.000  C
  Pr2      1.0000 0.21872  0.92197  0.55564  Biso   1.000  Pr
  O7       1.0000 0.33263  0.94610  0.55631  Biso   1.000  O
  O8       1.0000 0.25093  0.66670  0.48071  Biso   1.000  O
  O9       1.0000 0.36101  0.21430  0.57558  Biso   1.000  O
  O10      1.0000 0.17919  0.83090  0.43922  Biso   1.000  O
  O11      1.0000 0.23724  0.80760  0.12526  Biso   1.000  O
  O12      1.0000 0.17997  0.99670  0.17525  Biso   1.000  O
  C12      1.0000 0.20860  0.69580  0.43710  Biso   1.000  C
  C13      1.0000 0.37240  0.05960  0.56850  Biso   1.000  C
  C14      1.0000 0.14620  0.60430  0.33290  Biso   1.000  C
  C15      1.0000 0.19540  0.55940  0.38510  Biso   1.000  C
  H7       1.0000 0.18310  0.45590  0.40880  Biso   1.000  H
  H8       1.0000 0.23290  0.53370  0.36100  Biso   1.000  H
  C16      1.0000 0.43825  0.00450  0.57090  Biso   1.000  C
  H9       1.0000 0.44090  0.88560  0.58530  Biso   1.000  H
  H10      1.0000 0.46030  0.07440  0.60350  Biso   1.000  H
  C17      1.0000 0.20120  0.85070  0.17290  Biso   1.000  C
  C18      1.0000 0.46655  0.02440  0.50110  Biso   1.000  C
  H11      1.0000 0.44440  0.95300  0.46910  Biso   1.000  H
  H12      1.0000 0.46220  0.14280  0.48660  Biso   1.000  H
  C19      1.0000 0.14980  0.23910  0.78360  Biso   1.000  C
  C20      1.0000 0.19090  0.71520  0.28500  Biso   1.000  C
  C21      1.0000 0.16470  0.71840  0.21380  Biso   1.000  C
  C22      1.0000 0.20110  0.28900  0.72750  Biso   1.000  C
  Pr3      1.0000 0.71872  0.57803  0.44436  Biso   1.000  Pr
  O13      1.0000 0.83263  0.55390  0.44369  Biso   1.000  O
  O14      1.0000 0.75093  0.83330  0.51929  Biso   1.000  O
  O15      1.0000 0.86101  0.28570  0.42442  Biso   1.000  O
  O16      1.0000 0.67919  0.66910  0.56078  Biso   1.000  O
  O17      1.0000 0.73724  0.69240  0.87474  Biso   1.000  O
  O18      1.0000 0.67997  0.50330  0.82475  Biso   1.000  O
  C23      1.0000 0.70860  0.80420  0.56290  Biso   1.000  C
  C24      1.0000 0.87240  0.44040  0.43150  Biso   1.000  C
  C25      1.0000 0.64620  0.89570  0.66710  Biso   1.000  C
  C26      1.0000 0.69540  0.94060  0.61490  Biso   1.000  C
  H13      1.0000 0.68310  0.04410  0.59120  Biso   1.000  H
  H14      1.0000 0.73290  0.96630  0.63900  Biso   1.000  H
  C27      1.0000 0.93825  0.49550  0.42910  Biso   1.000  C
  H15      1.0000 0.94090  0.61440  0.41470  Biso   1.000  H
  H16      1.0000 0.96030  0.42560  0.39650  Biso   1.000  H
  C28      1.0000 0.70120  0.64930  0.82710  Biso   1.000  C
  C29      1.0000 0.96655  0.47560  0.49890  Biso   1.000  C
  H17      1.0000 0.94440  0.54700  0.53090  Biso   1.000  H
  H18      1.0000 0.96220  0.35720  0.51340  Biso   1.000  H
  C30      1.0000 0.64980  0.26090  0.21640  Biso   1.000  C
  C31      1.0000 0.69090  0.78480  0.71500  Biso   1.000  C
  C32      1.0000 0.66470  0.78160  0.78620  Biso   1.000  C
  C33      1.0000 0.70110  0.21100  0.27250  Biso   1.000  C
  Pr4      1.0000 0.78128  0.92197  0.94436  Biso   1.000  Pr
  O19      1.0000 0.66737  0.94610  0.94369  Biso   1.000  O
  O20      1.0000 0.74907  0.66670  0.01929  Biso   1.000  O
  O21      1.0000 0.63899  0.21430  0.92442  Biso   1.000  O
  O22      1.0000 0.82081  0.83090  0.06078  Biso   1.000  O
  O23      1.0000 0.76276  0.80760  0.37474  Biso   1.000  O
  O24      1.0000 0.82003  0.99670  0.32475  Biso   1.000  O
  C34      1.0000 0.79140  0.69580  0.06290  Biso   1.000  C
  C35      1.0000 0.62760  0.05960  0.93150  Biso   1.000  C
  C36      1.0000 0.85380  0.60430  0.16710  Biso   1.000  C
  C37      1.0000 0.80460  0.55940  0.11490  Biso   1.000  C
  H19      1.0000 0.81690  0.45590  0.09120  Biso   1.000  H
  H20      1.0000 0.76710  0.53370  0.13900  Biso   1.000  H
  C38      1.0000 0.56175  0.00450  0.92910  Biso   1.000  C
  H21      1.0000 0.55910  0.88560  0.91470  Biso   1.000  H
  H22      1.0000 0.53970  0.07440  0.89650  Biso   1.000  H
  C39      1.0000 0.79880  0.85070  0.32710  Biso   1.000  C
  C40      1.0000 0.53345  0.02440  0.99890  Biso   1.000  C
  H23      1.0000 0.55560  0.95300  0.03090  Biso   1.000  H
  H24      1.0000 0.53780  0.14280  0.01340  Biso   1.000  H
  C41      1.0000 0.85020  0.23910  0.71640  Biso   1.000  C
  C42      1.0000 0.80910  0.71520  0.21500  Biso   1.000  C
  C43      1.0000 0.83530  0.71840  0.28620  Biso   1.000  C
  C44      1.0000 0.79890  0.28900  0.77250  Biso   1.000  C
  Pr5      1.0000 0.71872  0.42197  0.94436  Biso   1.000  Pr
  O25      1.0000 0.83263  0.44610  0.94369  Biso   1.000  O
  O26      1.0000 0.75093  0.16670  0.01929  Biso   1.000  O
  O27      1.0000 0.86101  0.71430  0.92442  Biso   1.000  O
  O28      1.0000 0.67919  0.33090  0.06078  Biso   1.000  O
  O29      1.0000 0.73724  0.30760  0.37474  Biso   1.000  O
  O30      1.0000 0.67997  0.49670  0.32475  Biso   1.000  O
  C45      1.0000 0.70860  0.19580  0.06290  Biso   1.000  C
  C46      1.0000 0.87240  0.55960  0.93150  Biso   1.000  C
  C47      1.0000 0.64620  0.10430  0.16710  Biso   1.000  C
  C48      1.0000 0.69540  0.05940  0.11490  Biso   1.000  C
  H25      1.0000 0.68310  0.95590  0.09120  Biso   1.000  H
  H26      1.0000 0.73290  0.03370  0.13900  Biso   1.000  H
  C49      1.0000 0.93825  0.50450  0.92910  Biso   1.000  C
  H27      1.0000 0.94090  0.38560  0.91470  Biso   1.000  H
  H28      1.0000 0.96030  0.57440  0.89650  Biso   1.000  H
  C50      1.0000 0.70120  0.35070  0.32710  Biso   1.000  C
  C51      1.0000 0.96655  0.52440  0.99890  Biso   1.000  C
  H29      1.0000 0.94440  0.45300  0.03090  Biso   1.000  H
  H30      1.0000 0.96220  0.64280  0.01340  Biso   1.000  H
  C52      1.0000 0.64980  0.73910  0.71640  Biso   1.000  C
  C53      1.0000 0.69090  0.21520  0.21500  Biso   1.000  C
  C54      1.0000 0.66470  0.21840  0.28620  Biso   1.000  C
  C55      1.0000 0.70110  0.78900  0.77250  Biso   1.000  C
  Pr6      1.0000 0.78128  0.07803  0.44436  Biso   1.000  Pr
  O31      1.0000 0.66737  0.05390  0.44369  Biso   1.000  O
  O32      1.0000 0.74907  0.33330  0.51929  Biso   1.000  O
  O33      1.0000 0.63899  0.78570  0.42442  Biso   1.000  O
  O34      1.0000 0.82081  0.16910  0.56078  Biso   1.000  O
  O35      1.0000 0.76276  0.19240  0.87474  Biso   1.000  O
  O36      1.0000 0.82003  0.00330  0.82475  Biso   1.000  O
  C56      1.0000 0.79140  0.30420  0.56290  Biso   1.000  C
  C57      1.0000 0.62760  0.94040  0.43150  Biso   1.000  C
  C58      1.0000 0.85380  0.39570  0.66710  Biso   1.000  C
  C59      1.0000 0.80460  0.44060  0.61490  Biso   1.000  C
  H31      1.0000 0.81690  0.54410  0.59120  Biso   1.000  H
  H32      1.0000 0.76710  0.46630  0.63900  Biso   1.000  H
  C60      1.0000 0.56175  0.99550  0.42910  Biso   1.000  C
  H33      1.0000 0.55910  0.11440  0.41470  Biso   1.000  H
  H34      1.0000 0.53970  0.92560  0.39650  Biso   1.000  H
  C61      1.0000 0.79880  0.14930  0.82710  Biso   1.000  C
  C62      1.0000 0.53345  0.97560  0.49890  Biso   1.000  C
  H35      1.0000 0.55560  0.04700  0.53090  Biso   1.000  H
  H36      1.0000 0.53780  0.85720  0.51340  Biso   1.000  H
  C63      1.0000 0.85020  0.76090  0.21640  Biso   1.000  C
  C64      1.0000 0.80910  0.28480  0.71500  Biso   1.000  C
  C65      1.0000 0.83530  0.28160  0.78620  Biso   1.000  C
  C66      1.0000 0.79890  0.71100  0.27250  Biso   1.000  C
  Pr7      1.0000 0.28128  0.42197  0.55564  Biso   1.000  Pr
  O37      1.0000 0.16737  0.44610  0.55631  Biso   1.000  O
  O38      1.0000 0.24907  0.16670  0.48071  Biso   1.000  O
  O39      1.0000 0.13899  0.71430  0.57558  Biso   1.000  O
  O40      1.0000 0.32081  0.33090  0.43922  Biso   1.000  O
  O41      1.0000 0.26276  0.30760  0.12526  Biso   1.000  O
  O42      1.0000 0.32003  0.49670  0.17525  Biso   1.000  O
  C67      1.0000 0.29140  0.19580  0.43710  Biso   1.000  C
  C68      1.0000 0.12760  0.55960  0.56850  Biso   1.000  C
  C69      1.0000 0.35380  0.10430  0.33290  Biso   1.000  C
  C70      1.0000 0.30460  0.05940  0.38510  Biso   1.000  C
  H37      1.0000 0.31690  0.95590  0.40880  Biso   1.000  H
  H38      1.0000 0.26710  0.03370  0.36100  Biso   1.000  H
  C71      1.0000 0.06175  0.50450  0.57090  Biso   1.000  C
  H39      1.0000 0.05910  0.38560  0.58530  Biso   1.000  H
  H40      1.0000 0.03970  0.57440  0.60350  Biso   1.000  H
  C72      1.0000 0.29880  0.35070  0.17290  Biso   1.000  C
  C73      1.0000 0.03345  0.52440  0.50110  Biso   1.000  C
  H41      1.0000 0.05560  0.45300  0.46910  Biso   1.000  H
  H42      1.0000 0.03780  0.64280  0.48660  Biso   1.000  H
  C74      1.0000 0.35020  0.73910  0.78360  Biso   1.000  C
  C75      1.0000 0.30910  0.21520  0.28500  Biso   1.000  C
  C76      1.0000 0.33530  0.21840  0.21380  Biso   1.000  C
  C77      1.0000 0.29890  0.78900  0.72750  Biso   1.000  C
  Pr8      1.0000 0.21872  0.07803  0.05564  Biso   1.000  Pr
  O43      1.0000 0.33263  0.05390  0.05631  Biso   1.000  O
  O44      1.0000 0.25093  0.33330  0.98071  Biso   1.000  O
  O45      1.0000 0.36101  0.78570  0.07558  Biso   1.000  O
  O46      1.0000 0.17919  0.16910  0.93922  Biso   1.000  O
  O47      1.0000 0.23724  0.19240  0.62526  Biso   1.000  O
  O48      1.0000 0.17997  0.00330  0.67525  Biso   1.000  O
  C78      1.0000 0.20860  0.30420  0.93710  Biso   1.000  C
  C79      1.0000 0.37240  0.94040  0.06850  Biso   1.000  C
  C80      1.0000 0.14620  0.39570  0.83290  Biso   1.000  C
  C81      1.0000 0.19540  0.44060  0.88510  Biso   1.000  C
  H43      1.0000 0.18310  0.54410  0.90880  Biso   1.000  H
  H44      1.0000 0.23290  0.46630  0.86100  Biso   1.000  H
  C82      1.0000 0.43825  0.99550  0.07090  Biso   1.000  C
  H45      1.0000 0.44090  0.11440  0.08530  Biso   1.000  H
  H46      1.0000 0.46030  0.92560  0.10350  Biso   1.000  H
  C83      1.0000 0.20120  0.14930  0.67290  Biso   1.000  C
  C84      1.0000 0.46655  0.97560  0.00110  Biso   1.000  C
  H47      1.0000 0.44440  0.04700  0.96910  Biso   1.000  H
  H48      1.0000 0.46220  0.85720  0.98660  Biso   1.000  H
  C85      1.0000 0.14980  0.76090  0.28360  Biso   1.000  C
  C86      1.0000 0.19090  0.28480  0.78500  Biso   1.000  C
  C87      1.0000 0.16470  0.28160  0.71380  Biso   1.000  C
  C88      1.0000 0.20110  0.71100  0.22750  Biso   1.000  C
