data_image0
_cell_length_a       21.87
_cell_length_b       7.652
_cell_length_c       19.624
_cell_angle_alpha    90
_cell_angle_beta     90
_cell_angle_gamma    90

_symmetry_space_group_name_H-M    "P 1"
_symmetry_int_tables_number       1

loop_
  _symmetry_equiv_pos_as_xyz
  'x, y, z'

loop_
  _atom_site_label
  _atom_site_occupancy
  _atom_site_fract_x
  _atom_site_fract_y
  _atom_site_fract_z
  _atom_site_thermal_displace_type
  _atom_site_B_iso_or_equiv
  _atom_site_type_symbol
  Eu1      1.0000 0.78070  0.92477  0.94608  Biso   1.000  Eu
  O1       1.0000 0.75128  0.17020  0.01940  Biso   1.000  O
  O2       1.0000 0.68040  0.33920  0.06130  Biso   1.000  O
  O3       1.0000 0.68135  0.49890  0.32760  Biso   1.000  O
  O4       1.0000 0.73859  0.30680  0.37827  Biso   1.000  O
  O5       1.0000 0.66870  0.94650  0.94570  Biso   1.000  O
  O6       1.0000 0.63968  0.22190  0.92698  Biso   1.000  O
  C1       1.0000 0.70920  0.20080  0.06360  Biso   1.000  C
  C2       1.0000 0.69510  0.06330  0.11520  Biso   1.000  C
  H1       1.0000 0.73290  0.03210  0.13810  Biso   1.000  H
  H2       1.0000 0.68080  0.96020  0.09130  Biso   1.000  H
  C3       1.0000 0.64870  0.10990  0.16850  Biso   1.000  C
  H3       1.0000 0.64340  0.00650  0.19650  Biso   1.000  H
  H4       1.0000 0.61040  0.12780  0.14470  Biso   1.000  H
  C4       1.0000 0.65560  0.26070  0.21670  Biso   1.000  C
  H5       1.0000 0.61580  0.29420  0.23410  Biso   1.000  H
  H6       1.0000 0.67270  0.36010  0.19270  Biso   1.000  H
  C5       1.0000 0.69700  0.21210  0.27560  Biso   1.000  C
  H7       1.0000 0.68170  0.10540  0.29610  Biso   1.000  H
  H8       1.0000 0.73750  0.18770  0.25780  Biso   1.000  H
  C6       1.0000 0.70240  0.35000  0.33020  Biso   1.000  C
  H9       1.0000 0.63000  0.00720  0.18850  Biso   1.000  H
  H10      1.0000 0.61730  0.18710  0.15090  Biso   1.000  H
  C7       1.0000 0.69410  0.20900  0.22160  Biso   1.000  C
  H11      1.0000 0.73170  0.14330  0.22670  Biso   1.000  H
  H12      1.0000 0.70420  0.32440  0.20450  Biso   1.000  H
  C8       1.0000 0.66250  0.22500  0.28930  Biso   1.000  C
  H13      1.0000 0.65990  0.11160  0.31170  Biso   1.000  H
  H14      1.0000 0.62150  0.27100  0.28380  Biso   1.000  H
  C9       1.0000 0.62890  0.06170  0.93370  Biso   1.000  C
  C10      1.0000 0.56290  0.00540  0.93020  Biso   1.000  C
  H15      1.0000 0.56050  0.88440  0.91570  Biso   1.000  H
  H16      1.0000 0.54130  0.07650  0.89720  Biso   1.000  H
  C11      1.0000 0.53350  0.02540  0.99960  Biso   1.000  C
  H17      1.0000 0.53730  0.14610  0.01420  Biso   1.000  H
  H18      1.0000 0.55540  0.95340  0.03220  Biso   1.000  H
  Eu2      1.0000 0.71930  0.57523  0.44608  Biso   1.000  Eu
  O7       1.0000 0.74872  0.32980  0.51940  Biso   1.000  O
  O8       1.0000 0.81960  0.16080  0.56130  Biso   1.000  O
  O9       1.0000 0.81865  0.00110  0.82760  Biso   1.000  O
  O10      1.0000 0.76141  0.19320  0.87827  Biso   1.000  O
  O11      1.0000 0.83130  0.55350  0.44570  Biso   1.000  O
  O12      1.0000 0.86032  0.27810  0.42698  Biso   1.000  O
  C12      1.0000 0.79080  0.29920  0.56360  Biso   1.000  C
  C13      1.0000 0.80490  0.43670  0.61520  Biso   1.000  C
  H19      1.0000 0.76710  0.46790  0.63810  Biso   1.000  H
  H20      1.0000 0.81920  0.53980  0.59130  Biso   1.000  H
  C14      1.0000 0.85130  0.39010  0.66850  Biso   1.000  C
  H21      1.0000 0.85660  0.49350  0.69650  Biso   1.000  H
  H22      1.0000 0.88960  0.37220  0.64470  Biso   1.000  H
  C15      1.0000 0.84440  0.23930  0.71670  Biso   1.000  C
  H23      1.0000 0.88420  0.20580  0.73410  Biso   1.000  H
  H24      1.0000 0.82730  0.13990  0.69270  Biso   1.000  H
  C16      1.0000 0.80300  0.28790  0.77560  Biso   1.000  C
  H25      1.0000 0.81830  0.39460  0.79610  Biso   1.000  H
  H26      1.0000 0.76250  0.31230  0.75780  Biso   1.000  H
  C17      1.0000 0.79760  0.15000  0.83020  Biso   1.000  C
  H27      1.0000 0.87000  0.49280  0.68850  Biso   1.000  H
  H28      1.0000 0.88270  0.31290  0.65090  Biso   1.000  H
  C18      1.0000 0.80590  0.29100  0.72160  Biso   1.000  C
  H29      1.0000 0.76830  0.35670  0.72670  Biso   1.000  H
  H30      1.0000 0.79580  0.17560  0.70450  Biso   1.000  H
  C19      1.0000 0.83750  0.27500  0.78930  Biso   1.000  C
  H31      1.0000 0.84010  0.38840  0.81170  Biso   1.000  H
  H32      1.0000 0.87850  0.22900  0.78380  Biso   1.000  H
  C20      1.0000 0.87110  0.43830  0.43370  Biso   1.000  C
  C21      1.0000 0.93710  0.49460  0.43020  Biso   1.000  C
  H33      1.0000 0.93950  0.61560  0.41570  Biso   1.000  H
  H34      1.0000 0.95870  0.42350  0.39720  Biso   1.000  H
  C22      1.0000 0.96650  0.47460  0.49960  Biso   1.000  C
  H35      1.0000 0.96270  0.35390  0.51420  Biso   1.000  H
  H36      1.0000 0.94460  0.54660  0.53220  Biso   1.000  H
  Eu3      1.0000 0.21930  0.92477  0.55392  Biso   1.000  Eu
  O13      1.0000 0.24872  0.17020  0.48060  Biso   1.000  O
  O14      1.0000 0.31960  0.33920  0.43870  Biso   1.000  O
  O15      1.0000 0.31865  0.49890  0.17240  Biso   1.000  O
  O16      1.0000 0.26141  0.30680  0.12173  Biso   1.000  O
  O17      1.0000 0.33130  0.94650  0.55430  Biso   1.000  O
  O18      1.0000 0.36032  0.22190  0.57302  Biso   1.000  O
  C23      1.0000 0.29080  0.20080  0.43640  Biso   1.000  C
  C24      1.0000 0.30490  0.06330  0.38480  Biso   1.000  C
  H37      1.0000 0.26710  0.03210  0.36190  Biso   1.000  H
  H38      1.0000 0.31920  0.96020  0.40870  Biso   1.000  H
  C25      1.0000 0.35130  0.10990  0.33150  Biso   1.000  C
  H39      1.0000 0.35660  0.00650  0.30350  Biso   1.000  H
  H40      1.0000 0.38960  0.12780  0.35530  Biso   1.000  H
  C26      1.0000 0.34440  0.26070  0.28330  Biso   1.000  C
  H41      1.0000 0.38420  0.29420  0.26590  Biso   1.000  H
  H42      1.0000 0.32730  0.36010  0.30730  Biso   1.000  H
  C27      1.0000 0.30300  0.21210  0.22440  Biso   1.000  C
  H43      1.0000 0.31830  0.10540  0.20390  Biso   1.000  H
  H44      1.0000 0.26250  0.18770  0.24220  Biso   1.000  H
  C28      1.0000 0.29760  0.35000  0.16980  Biso   1.000  C
  H45      1.0000 0.37000  0.00720  0.31150  Biso   1.000  H
  H46      1.0000 0.38270  0.18710  0.34910  Biso   1.000  H
  C29      1.0000 0.30590  0.20900  0.27840  Biso   1.000  C
  H47      1.0000 0.26830  0.14330  0.27330  Biso   1.000  H
  H48      1.0000 0.29580  0.32440  0.29550  Biso   1.000  H
  C30      1.0000 0.33750  0.22500  0.21070  Biso   1.000  C
  H49      1.0000 0.34010  0.11160  0.18830  Biso   1.000  H
  H50      1.0000 0.37850  0.27100  0.21620  Biso   1.000  H
  C31      1.0000 0.37110  0.06170  0.56630  Biso   1.000  C
  C32      1.0000 0.43710  0.00540  0.56980  Biso   1.000  C
  H51      1.0000 0.43950  0.88440  0.58430  Biso   1.000  H
  H52      1.0000 0.45870  0.07650  0.60280  Biso   1.000  H
  C33      1.0000 0.46650  0.02540  0.50040  Biso   1.000  C
  H53      1.0000 0.46270  0.14610  0.48580  Biso   1.000  H
  H54      1.0000 0.44460  0.95340  0.46780  Biso   1.000  H
  Eu4      1.0000 0.28070  0.57523  0.05392  Biso   1.000  Eu
  O19      1.0000 0.25128  0.32980  0.98060  Biso   1.000  O
  O20      1.0000 0.18040  0.16080  0.93870  Biso   1.000  O
  O21      1.0000 0.18135  0.00110  0.67240  Biso   1.000  O
  O22      1.0000 0.23859  0.19320  0.62173  Biso   1.000  O
  O23      1.0000 0.16870  0.55350  0.05430  Biso   1.000  O
  O24      1.0000 0.13968  0.27810  0.07302  Biso   1.000  O
  C34      1.0000 0.20920  0.29920  0.93640  Biso   1.000  C
  C35      1.0000 0.19510  0.43670  0.88480  Biso   1.000  C
  H55      1.0000 0.23290  0.46790  0.86190  Biso   1.000  H
  H56      1.0000 0.18080  0.53980  0.90870  Biso   1.000  H
  C36      1.0000 0.14870  0.39010  0.83150  Biso   1.000  C
  H57      1.0000 0.14340  0.49350  0.80350  Biso   1.000  H
  H58      1.0000 0.11040  0.37220  0.85530  Biso   1.000  H
  C37      1.0000 0.15560  0.23930  0.78330  Biso   1.000  C
  H59      1.0000 0.11580  0.20580  0.76590  Biso   1.000  H
  H60      1.0000 0.17270  0.13990  0.80730  Biso   1.000  H
  C38      1.0000 0.19700  0.28790  0.72440  Biso   1.000  C
  H61      1.0000 0.18170  0.39460  0.70390  Biso   1.000  H
  H62      1.0000 0.23750  0.31230  0.74220  Biso   1.000  H
  C39      1.0000 0.20240  0.15000  0.66980  Biso   1.000  C
  H63      1.0000 0.13000  0.49280  0.81150  Biso   1.000  H
  H64      1.0000 0.11730  0.31290  0.84910  Biso   1.000  H
  C40      1.0000 0.19410  0.29100  0.77840  Biso   1.000  C
  H65      1.0000 0.23170  0.35670  0.77330  Biso   1.000  H
  H66      1.0000 0.20420  0.17560  0.79550  Biso   1.000  H
  C41      1.0000 0.16250  0.27500  0.71070  Biso   1.000  C
  H67      1.0000 0.15990  0.38840  0.68830  Biso   1.000  H
  H68      1.0000 0.12150  0.22900  0.71620  Biso   1.000  H
  C42      1.0000 0.12890  0.43830  0.06630  Biso   1.000  C
  C43      1.0000 0.06290  0.49460  0.06980  Biso   1.000  C
  H69      1.0000 0.06050  0.61560  0.08430  Biso   1.000  H
  H70      1.0000 0.04130  0.42350  0.10280  Biso   1.000  H
  C44      1.0000 0.03350  0.47460  0.00040  Biso   1.000  C
  H71      1.0000 0.03730  0.35390  0.98580  Biso   1.000  H
  H72      1.0000 0.05540  0.54660  0.96780  Biso   1.000  H
  Eu5      1.0000 0.21930  0.07523  0.05392  Biso   1.000  Eu
  O25      1.0000 0.24872  0.82980  0.98060  Biso   1.000  O
  O26      1.0000 0.31960  0.66080  0.93870  Biso   1.000  O
  O27      1.0000 0.31865  0.50110  0.67240  Biso   1.000  O
  O28      1.0000 0.26141  0.69320  0.62173  Biso   1.000  O
  O29      1.0000 0.33130  0.05350  0.05430  Biso   1.000  O
  O30      1.0000 0.36032  0.77810  0.07302  Biso   1.000  O
  C45      1.0000 0.29080  0.79920  0.93640  Biso   1.000  C
  C46      1.0000 0.30490  0.93670  0.88480  Biso   1.000  C
  H73      1.0000 0.26710  0.96790  0.86190  Biso   1.000  H
  H74      1.0000 0.31920  0.03980  0.90870  Biso   1.000  H
  C47      1.0000 0.35130  0.89010  0.83150  Biso   1.000  C
  H75      1.0000 0.35660  0.99350  0.80350  Biso   1.000  H
  H76      1.0000 0.38960  0.87220  0.85530  Biso   1.000  H
  C48      1.0000 0.34440  0.73930  0.78330  Biso   1.000  C
  H77      1.0000 0.38420  0.70580  0.76590  Biso   1.000  H
  H78      1.0000 0.32730  0.63990  0.80730  Biso   1.000  H
  C49      1.0000 0.30300  0.78790  0.72440  Biso   1.000  C
  H79      1.0000 0.31830  0.89460  0.70390  Biso   1.000  H
  H80      1.0000 0.26250  0.81230  0.74220  Biso   1.000  H
  C50      1.0000 0.29760  0.65000  0.66980  Biso   1.000  C
  H81      1.0000 0.37000  0.99280  0.81150  Biso   1.000  H
  H82      1.0000 0.38270  0.81290  0.84910  Biso   1.000  H
  C51      1.0000 0.30590  0.79100  0.77840  Biso   1.000  C
  H83      1.0000 0.26830  0.85670  0.77330  Biso   1.000  H
  H84      1.0000 0.29580  0.67560  0.79550  Biso   1.000  H
  C52      1.0000 0.33750  0.77500  0.71070  Biso   1.000  C
  H85      1.0000 0.34010  0.88840  0.68830  Biso   1.000  H
  H86      1.0000 0.37850  0.72900  0.71620  Biso   1.000  H
  C53      1.0000 0.37110  0.93830  0.06630  Biso   1.000  C
  C54      1.0000 0.43710  0.99460  0.06980  Biso   1.000  C
  H87      1.0000 0.43950  0.11560  0.08430  Biso   1.000  H
  H88      1.0000 0.45870  0.92350  0.10280  Biso   1.000  H
  C55      1.0000 0.46650  0.97460  0.00040  Biso   1.000  C
  H89      1.0000 0.46270  0.85390  0.98580  Biso   1.000  H
  H90      1.0000 0.44460  0.04660  0.96780  Biso   1.000  H
  Eu6      1.0000 0.28070  0.42477  0.55392  Biso   1.000  Eu
  O31      1.0000 0.25128  0.67020  0.48060  Biso   1.000  O
  O32      1.0000 0.18040  0.83920  0.43870  Biso   1.000  O
  O33      1.0000 0.18135  0.99890  0.17240  Biso   1.000  O
  O34      1.0000 0.23859  0.80680  0.12173  Biso   1.000  O
  O35      1.0000 0.16870  0.44650  0.55430  Biso   1.000  O
  O36      1.0000 0.13968  0.72190  0.57302  Biso   1.000  O
  C56      1.0000 0.20920  0.70080  0.43640  Biso   1.000  C
  C57      1.0000 0.19510  0.56330  0.38480  Biso   1.000  C
  H91      1.0000 0.23290  0.53210  0.36190  Biso   1.000  H
  H92      1.0000 0.18080  0.46020  0.40870  Biso   1.000  H
  C58      1.0000 0.14870  0.60990  0.33150  Biso   1.000  C
  H93      1.0000 0.14340  0.50650  0.30350  Biso   1.000  H
  H94      1.0000 0.11040  0.62780  0.35530  Biso   1.000  H
  C59      1.0000 0.15560  0.76070  0.28330  Biso   1.000  C
  H95      1.0000 0.11580  0.79420  0.26590  Biso   1.000  H
  H96      1.0000 0.17270  0.86010  0.30730  Biso   1.000  H
  C60      1.0000 0.19700  0.71210  0.22440  Biso   1.000  C
  H97      1.0000 0.18170  0.60540  0.20390  Biso   1.000  H
  H98      1.0000 0.23750  0.68770  0.24220  Biso   1.000  H
  C61      1.0000 0.20240  0.85000  0.16980  Biso   1.000  C
  H99      1.0000 0.13000  0.50720  0.31150  Biso   1.000  H
  H100     1.0000 0.11730  0.68710  0.34910  Biso   1.000  H
  C62      1.0000 0.19410  0.70900  0.27840  Biso   1.000  C
  H101     1.0000 0.23170  0.64330  0.27330  Biso   1.000  H
  H102     1.0000 0.20420  0.82440  0.29550  Biso   1.000  H
  C63      1.0000 0.16250  0.72500  0.21070  Biso   1.000  C
  H103     1.0000 0.15990  0.61160  0.18830  Biso   1.000  H
  H104     1.0000 0.12150  0.77100  0.21620  Biso   1.000  H
  C64      1.0000 0.12890  0.56170  0.56630  Biso   1.000  C
  C65      1.0000 0.06290  0.50540  0.56980  Biso   1.000  C
  H105     1.0000 0.06050  0.38440  0.58430  Biso   1.000  H
  H106     1.0000 0.04130  0.57650  0.60280  Biso   1.000  H
  C66      1.0000 0.03350  0.52540  0.50040  Biso   1.000  C
  H107     1.0000 0.03730  0.64610  0.48580  Biso   1.000  H
  H108     1.0000 0.05540  0.45340  0.46780  Biso   1.000  H
  Eu7      1.0000 0.78070  0.07523  0.44608  Biso   1.000  Eu
  O37      1.0000 0.75128  0.82980  0.51940  Biso   1.000  O
  O38      1.0000 0.68040  0.66080  0.56130  Biso   1.000  O
  O39      1.0000 0.68135  0.50110  0.82760  Biso   1.000  O
  O40      1.0000 0.73859  0.69320  0.87827  Biso   1.000  O
  O41      1.0000 0.66870  0.05350  0.44570  Biso   1.000  O
  O42      1.0000 0.63968  0.77810  0.42698  Biso   1.000  O
  C67      1.0000 0.70920  0.79920  0.56360  Biso   1.000  C
  C68      1.0000 0.69510  0.93670  0.61520  Biso   1.000  C
  H109     1.0000 0.73290  0.96790  0.63810  Biso   1.000  H
  H110     1.0000 0.68080  0.03980  0.59130  Biso   1.000  H
  C69      1.0000 0.64870  0.89010  0.66850  Biso   1.000  C
  H111     1.0000 0.64340  0.99350  0.69650  Biso   1.000  H
  H112     1.0000 0.61040  0.87220  0.64470  Biso   1.000  H
  C70      1.0000 0.65560  0.73930  0.71670  Biso   1.000  C
  H113     1.0000 0.61580  0.70580  0.73410  Biso   1.000  H
  H114     1.0000 0.67270  0.63990  0.69270  Biso   1.000  H
  C71      1.0000 0.69700  0.78790  0.77560  Biso   1.000  C
  H115     1.0000 0.68170  0.89460  0.79610  Biso   1.000  H
  H116     1.0000 0.73750  0.81230  0.75780  Biso   1.000  H
  C72      1.0000 0.70240  0.65000  0.83020  Biso   1.000  C
  H117     1.0000 0.63000  0.99280  0.68850  Biso   1.000  H
  H118     1.0000 0.61730  0.81290  0.65090  Biso   1.000  H
  C73      1.0000 0.69410  0.79100  0.72160  Biso   1.000  C
  H119     1.0000 0.73170  0.85670  0.72670  Biso   1.000  H
  H120     1.0000 0.70420  0.67560  0.70450  Biso   1.000  H
  C74      1.0000 0.66250  0.77500  0.78930  Biso   1.000  C
  H121     1.0000 0.65990  0.88840  0.81170  Biso   1.000  H
  H122     1.0000 0.62150  0.72900  0.78380  Biso   1.000  H
  C75      1.0000 0.62890  0.93830  0.43370  Biso   1.000  C
  C76      1.0000 0.56290  0.99460  0.43020  Biso   1.000  C
  H123     1.0000 0.56050  0.11560  0.41570  Biso   1.000  H
  H124     1.0000 0.54130  0.92350  0.39720  Biso   1.000  H
  C77      1.0000 0.53350  0.97460  0.49960  Biso   1.000  C
  H125     1.0000 0.53730  0.85390  0.51420  Biso   1.000  H
  H126     1.0000 0.55540  0.04660  0.53220  Biso   1.000  H
  Eu8      1.0000 0.71930  0.42477  0.94608  Biso   1.000  Eu
  O43      1.0000 0.74872  0.67020  0.01940  Biso   1.000  O
  O44      1.0000 0.81960  0.83920  0.06130  Biso   1.000  O
  O45      1.0000 0.81865  0.99890  0.32760  Biso   1.000  O
  O46      1.0000 0.76141  0.80680  0.37827  Biso   1.000  O
  O47      1.0000 0.83130  0.44650  0.94570  Biso   1.000  O
  O48      1.0000 0.86032  0.72190  0.92698  Biso   1.000  O
  C78      1.0000 0.79080  0.70080  0.06360  Biso   1.000  C
  C79      1.0000 0.80490  0.56330  0.11520  Biso   1.000  C
  H127     1.0000 0.76710  0.53210  0.13810  Biso   1.000  H
  H128     1.0000 0.81920  0.46020  0.09130  Biso   1.000  H
  C80      1.0000 0.85130  0.60990  0.16850  Biso   1.000  C
  H129     1.0000 0.85660  0.50650  0.19650  Biso   1.000  H
  H130     1.0000 0.88960  0.62780  0.14470  Biso   1.000  H
  C81      1.0000 0.84440  0.76070  0.21670  Biso   1.000  C
  H131     1.0000 0.88420  0.79420  0.23410  Biso   1.000  H
  H132     1.0000 0.82730  0.86010  0.19270  Biso   1.000  H
  C82      1.0000 0.80300  0.71210  0.27560  Biso   1.000  C
  H133     1.0000 0.81830  0.60540  0.29610  Biso   1.000  H
  H134     1.0000 0.76250  0.68770  0.25780  Biso   1.000  H
  C83      1.0000 0.79760  0.85000  0.33020  Biso   1.000  C
  H135     1.0000 0.87000  0.50720  0.18850  Biso   1.000  H
  H136     1.0000 0.88270  0.68710  0.15090  Biso   1.000  H
  C84      1.0000 0.80590  0.70900  0.22160  Biso   1.000  C
  H137     1.0000 0.76830  0.64330  0.22670  Biso   1.000  H
  H138     1.0000 0.79580  0.82440  0.20450  Biso   1.000  H
  C85      1.0000 0.83750  0.72500  0.28930  Biso   1.000  C
  H139     1.0000 0.84010  0.61160  0.31170  Biso   1.000  H
  H140     1.0000 0.87850  0.77100  0.28380  Biso   1.000  H
  C86      1.0000 0.87110  0.56170  0.93370  Biso   1.000  C
  C87      1.0000 0.93710  0.50540  0.93020  Biso   1.000  C
  H141     1.0000 0.93950  0.38440  0.91570  Biso   1.000  H
  H142     1.0000 0.95870  0.57650  0.89720  Biso   1.000  H
  C88      1.0000 0.96650  0.52540  0.99960  Biso   1.000  C
  H143     1.0000 0.96270  0.64610  0.01420  Biso   1.000  H
  H144     1.0000 0.94460  0.45340  0.03220  Biso   1.000  H
