data_image0
_cell_length_a       27.112
_cell_length_b       17.0697
_cell_length_c       27.5614
_cell_angle_alpha    90
_cell_angle_beta     101.518
_cell_angle_gamma    90

_symmetry_space_group_name_H-M    "P 1"
_symmetry_int_tables_number       1

loop_
  _symmetry_equiv_pos_as_xyz
  'x, y, z'

loop_
  _atom_site_label
  _atom_site_occupancy
  _atom_site_fract_x
  _atom_site_fract_y
  _atom_site_fract_z
  _atom_site_thermal_displace_type
  _atom_site_B_iso_or_equiv
  _atom_site_type_symbol
  Cu1      1.0000 0.19521  0.20202  0.62084  Biso   1.000  Cu
  Cu2      1.0000 0.37714  0.21262  0.61144  Biso   1.000  Cu
  Cu3      1.0000 0.45309  0.97709  0.70650  Biso   1.000  Cu
  Cu4      1.0000 0.39503  0.34646  0.45865  Biso   1.000  Cu
  Cu5      1.0000 0.60214  0.89967  0.63723  Biso   1.000  Cu
  Cu6      1.0000 0.38132  0.58507  0.35398  Biso   1.000  Cu
  Cu7      1.0000 0.68982  0.15256  0.62558  Biso   1.000  Cu
  Cu8      1.0000 0.87143  0.19638  0.62188  Biso   1.000  Cu
  Cu9      1.0000 0.98676  0.02144  0.73042  Biso   1.000  Cu
  Cu10     1.0000 0.11188  0.69578  0.54185  Biso   1.000  Cu
  Cu11     1.0000 0.10326  0.45047  0.63472  Biso   1.000  Cu
  Cu12     1.0000 0.12033  0.94056  0.64026  Biso   1.000  Cu
  Cu13     1.0000 0.19060  0.18470  0.62250  Biso   1.000  Cu
  Cu14     1.0000 0.37230  0.20160  0.62130  Biso   1.000  Cu
  Cu15     1.0000 0.48390  0.01770  0.72720  Biso   1.000  Cu
  Cu16     1.0000 0.38730  0.30880  0.45580  Biso   1.000  Cu
  Cu17     1.0000 0.38240  0.06620  0.35860  Biso   1.000  Cu
  Cu18     1.0000 0.39620  0.55650  0.36290  Biso   1.000  Cu
  Cu19     1.0000 0.31010  0.80650  0.37830  Biso   1.000  Cu
  Cu20     1.0000 0.12430  0.79540  0.38490  Biso   1.000  Cu
  Cu21     1.0000 0.02230  0.98650  0.27890  Biso   1.000  Cu
  Cu22     1.0000 0.10990  0.68440  0.54390  Biso   1.000  Cu
  Cu23     1.0000 0.10990  0.43620  0.64240  Biso   1.000  Cu
  Cu24     1.0000 0.11300  0.92480  0.64110  Biso   1.000  Cu
  C1       1.0000 0.30860  0.22310  0.61920  Biso   1.000  C
  N1       1.0000 0.26590  0.21720  0.62080  Biso   1.000  N
  C2       1.0000 0.13380  0.35220  0.62760  Biso   1.000  C
  N2       1.0000 0.15500  0.29360  0.62430  Biso   1.000  N
  C3       1.0000 0.41290  0.13150  0.65070  Biso   1.000  C
  N3       1.0000 0.42850  0.07540  0.67230  Biso   1.000  N
  C4       1.0000 0.39830  0.30600  0.52270  Biso   1.000  C
  N4       1.0000 0.39460  0.27440  0.55940  Biso   1.000  N
  C5       1.0000 0.51110  0.93550  0.68700  Biso   1.000  C
  N5       1.0000 0.54800  0.92010  0.67270  Biso   1.000  N
  N6       1.0000 0.38970  0.20040  0.39190  Biso   1.000  N
  C6       1.0000 0.38940  0.25830  0.41300  Biso   1.000  C
  C7       1.0000 0.39150  0.44150  0.42500  Biso   1.000  C
  N7       1.0000 0.38710  0.49710  0.39950  Biso   1.000  N
  N8       1.0000 0.40150  0.93730  0.79200  Biso   1.000  N
  C8       1.0000 0.41940  0.94930  0.75700  Biso   1.000  C
  C9       1.0000 0.34560  0.75150  0.37260  Biso   1.000  C
  N9       1.0000 0.36090  0.68900  0.36800  Biso   1.000  N
  N10      1.0000 0.66010  0.05260  0.62930  Biso   1.000  N
  C10      1.0000 0.63940  0.99200  0.63280  Biso   1.000  C
  N11      1.0000 0.80060  0.18800  0.62360  Biso   1.000  N
  C11      1.0000 0.75840  0.17400  0.62350  Biso   1.000  C
  C12      1.0000 0.92200  0.15260  0.67090  Biso   1.000  C
  N12      1.0000 0.95140  0.11450  0.69780  Biso   1.000  N
  C13      1.0000 0.11040  0.73180  0.47730  Biso   1.000  C
  N13      1.0000 0.11440  0.75720  0.43960  Biso   1.000  N
  C14      1.0000 0.10580  0.59670  0.57000  Biso   1.000  C
  N14      1.0000 0.10490  0.53870  0.59140  Biso   1.000  N
  C15      1.0000 0.12510  0.83950  0.61250  Biso   1.000  C
  N15      1.0000 0.12460  0.78190  0.59023  Biso   1.000  N
  C16      1.0000 0.03900  0.98090  0.70150  Biso   1.000  C
  N16      1.0000 0.07100  0.96090  0.68230  Biso   1.000  N
  C17      1.0000 0.15270  0.03450  0.62860  Biso   1.000  C
  N17      1.0000 0.16920  0.09540  0.62290  Biso   1.000  N
  N18      1.0000 0.06930  0.47330  0.68870  Biso   1.000  N
  C18      1.0000 0.04600  0.49040  0.71850  Biso   1.000  C
  Cu25     1.0000 0.80479  0.70202  0.87916  Biso   1.000  Cu
  Cu26     1.0000 0.62286  0.71262  0.88856  Biso   1.000  Cu
  Cu27     1.0000 0.54691  0.47709  0.79350  Biso   1.000  Cu
  Cu28     1.0000 0.60497  0.84646  0.04135  Biso   1.000  Cu
  Cu29     1.0000 0.39786  0.39967  0.86277  Biso   1.000  Cu
  Cu30     1.0000 0.61868  0.08507  0.14602  Biso   1.000  Cu
  Cu31     1.0000 0.31018  0.65256  0.87442  Biso   1.000  Cu
  Cu32     1.0000 0.12857  0.69638  0.87812  Biso   1.000  Cu
  Cu33     1.0000 0.01324  0.52144  0.76958  Biso   1.000  Cu
  Cu34     1.0000 0.88812  0.19578  0.95815  Biso   1.000  Cu
  Cu35     1.0000 0.89674  0.95047  0.86528  Biso   1.000  Cu
  Cu36     1.0000 0.87967  0.44056  0.85974  Biso   1.000  Cu
  Cu37     1.0000 0.80940  0.68470  0.87750  Biso   1.000  Cu
  Cu38     1.0000 0.62770  0.70160  0.87870  Biso   1.000  Cu
  Cu39     1.0000 0.51610  0.51770  0.77280  Biso   1.000  Cu
  Cu40     1.0000 0.61270  0.80880  0.04420  Biso   1.000  Cu
  Cu41     1.0000 0.61760  0.56620  0.14140  Biso   1.000  Cu
  Cu42     1.0000 0.60380  0.05650  0.13710  Biso   1.000  Cu
  Cu43     1.0000 0.68990  0.30650  0.12170  Biso   1.000  Cu
  Cu44     1.0000 0.87570  0.29540  0.11510  Biso   1.000  Cu
  Cu45     1.0000 0.97770  0.48650  0.22110  Biso   1.000  Cu
  Cu46     1.0000 0.89010  0.18440  0.95610  Biso   1.000  Cu
  Cu47     1.0000 0.89010  0.93620  0.85760  Biso   1.000  Cu
  Cu48     1.0000 0.88700  0.42480  0.85890  Biso   1.000  Cu
  C19      1.0000 0.69140  0.72310  0.88080  Biso   1.000  C
  N19      1.0000 0.73410  0.71720  0.87920  Biso   1.000  N
  C20      1.0000 0.86620  0.85220  0.87240  Biso   1.000  C
  N20      1.0000 0.84500  0.79360  0.87570  Biso   1.000  N
  C21      1.0000 0.58710  0.63150  0.84930  Biso   1.000  C
  N21      1.0000 0.57150  0.57540  0.82770  Biso   1.000  N
  C22      1.0000 0.60170  0.80600  0.97730  Biso   1.000  C
  N22      1.0000 0.60540  0.77440  0.94060  Biso   1.000  N
  C23      1.0000 0.48890  0.43550  0.81300  Biso   1.000  C
  N23      1.0000 0.45200  0.42010  0.82730  Biso   1.000  N
  N24      1.0000 0.61030  0.70040  0.10810  Biso   1.000  N
  C24      1.0000 0.61060  0.75830  0.08700  Biso   1.000  C
  C25      1.0000 0.60850  0.94150  0.07500  Biso   1.000  C
  N25      1.0000 0.61290  0.99710  0.10050  Biso   1.000  N
  N26      1.0000 0.59850  0.43730  0.70800  Biso   1.000  N
  C26      1.0000 0.58060  0.44930  0.74300  Biso   1.000  C
  C27      1.0000 0.65440  0.25150  0.12740  Biso   1.000  C
  N27      1.0000 0.63910  0.18900  0.13200  Biso   1.000  N
  N28      1.0000 0.33990  0.55260  0.87070  Biso   1.000  N
  C28      1.0000 0.36060  0.49200  0.86720  Biso   1.000  C
  N29      1.0000 0.19940  0.68800  0.87640  Biso   1.000  N
  C29      1.0000 0.24160  0.67400  0.87650  Biso   1.000  C
  C30      1.0000 0.07800  0.65260  0.82910  Biso   1.000  C
  N30      1.0000 0.04860  0.61450  0.80220  Biso   1.000  N
  C31      1.0000 0.88960  0.23180  0.02270  Biso   1.000  C
  N31      1.0000 0.88560  0.25720  0.06040  Biso   1.000  N
  C32      1.0000 0.89420  0.09670  0.93000  Biso   1.000  C
  N32      1.0000 0.89510  0.03870  0.90860  Biso   1.000  N
  C33      1.0000 0.87490  0.33950  0.88750  Biso   1.000  C
  N33      1.0000 0.87540  0.28190  0.90977  Biso   1.000  N
  C34      1.0000 0.96100  0.48090  0.79850  Biso   1.000  C
  N34      1.0000 0.92900  0.46090  0.81770  Biso   1.000  N
  C35      1.0000 0.84730  0.53450  0.87140  Biso   1.000  C
  N35      1.0000 0.83080  0.59540  0.87710  Biso   1.000  N
  N36      1.0000 0.93070  0.97330  0.81130  Biso   1.000  N
  C36      1.0000 0.95400  0.99040  0.78150  Biso   1.000  C
  Cu49     1.0000 0.80479  0.79798  0.37916  Biso   1.000  Cu
  Cu50     1.0000 0.62286  0.78738  0.38856  Biso   1.000  Cu
  Cu51     1.0000 0.54691  0.02291  0.29350  Biso   1.000  Cu
  Cu52     1.0000 0.60497  0.65354  0.54135  Biso   1.000  Cu
  Cu53     1.0000 0.39786  0.10033  0.36277  Biso   1.000  Cu
  Cu54     1.0000 0.61868  0.41493  0.64602  Biso   1.000  Cu
  Cu55     1.0000 0.31018  0.84744  0.37442  Biso   1.000  Cu
  Cu56     1.0000 0.12857  0.80362  0.37812  Biso   1.000  Cu
  Cu57     1.0000 0.01324  0.97856  0.26958  Biso   1.000  Cu
  Cu58     1.0000 0.88812  0.30422  0.45815  Biso   1.000  Cu
  Cu59     1.0000 0.89674  0.54953  0.36528  Biso   1.000  Cu
  Cu60     1.0000 0.87967  0.05944  0.35974  Biso   1.000  Cu
  Cu61     1.0000 0.80940  0.81530  0.37750  Biso   1.000  Cu
  Cu62     1.0000 0.62770  0.79840  0.37870  Biso   1.000  Cu
  Cu63     1.0000 0.51610  0.98230  0.27280  Biso   1.000  Cu
  Cu64     1.0000 0.61270  0.69120  0.54420  Biso   1.000  Cu
  Cu65     1.0000 0.61760  0.93380  0.64140  Biso   1.000  Cu
  Cu66     1.0000 0.60380  0.44350  0.63710  Biso   1.000  Cu
  Cu67     1.0000 0.68990  0.19350  0.62170  Biso   1.000  Cu
  Cu68     1.0000 0.87570  0.20460  0.61510  Biso   1.000  Cu
  Cu69     1.0000 0.97770  0.01350  0.72110  Biso   1.000  Cu
  Cu70     1.0000 0.89010  0.31560  0.45610  Biso   1.000  Cu
  Cu71     1.0000 0.89010  0.56380  0.35760  Biso   1.000  Cu
  Cu72     1.0000 0.88700  0.07520  0.35890  Biso   1.000  Cu
  C37      1.0000 0.69140  0.77690  0.38080  Biso   1.000  C
  N37      1.0000 0.73410  0.78280  0.37920  Biso   1.000  N
  C38      1.0000 0.86620  0.64780  0.37240  Biso   1.000  C
  N38      1.0000 0.84500  0.70640  0.37570  Biso   1.000  N
  C39      1.0000 0.58710  0.86850  0.34930  Biso   1.000  C
  N39      1.0000 0.57150  0.92460  0.32770  Biso   1.000  N
  C40      1.0000 0.60170  0.69400  0.47730  Biso   1.000  C
  N40      1.0000 0.60540  0.72560  0.44060  Biso   1.000  N
  C41      1.0000 0.48890  0.06450  0.31300  Biso   1.000  C
  N41      1.0000 0.45200  0.07990  0.32730  Biso   1.000  N
  N42      1.0000 0.61030  0.79960  0.60810  Biso   1.000  N
  C42      1.0000 0.61060  0.74170  0.58700  Biso   1.000  C
  C43      1.0000 0.60850  0.55850  0.57500  Biso   1.000  C
  N43      1.0000 0.61290  0.50290  0.60050  Biso   1.000  N
  N44      1.0000 0.59850  0.06270  0.20800  Biso   1.000  N
  C44      1.0000 0.58060  0.05070  0.24300  Biso   1.000  C
  C45      1.0000 0.65440  0.24850  0.62740  Biso   1.000  C
  N45      1.0000 0.63910  0.31100  0.63200  Biso   1.000  N
  N46      1.0000 0.33990  0.94740  0.37070  Biso   1.000  N
  C46      1.0000 0.36060  0.00800  0.36720  Biso   1.000  C
  N47      1.0000 0.19940  0.81200  0.37640  Biso   1.000  N
  C47      1.0000 0.24160  0.82600  0.37650  Biso   1.000  C
  C48      1.0000 0.07800  0.84740  0.32910  Biso   1.000  C
  N48      1.0000 0.04860  0.88550  0.30220  Biso   1.000  N
  C49      1.0000 0.88960  0.26820  0.52270  Biso   1.000  C
  N49      1.0000 0.88560  0.24280  0.56040  Biso   1.000  N
  C50      1.0000 0.89420  0.40330  0.43000  Biso   1.000  C
  N50      1.0000 0.89510  0.46130  0.40860  Biso   1.000  N
  C51      1.0000 0.87490  0.16050  0.38750  Biso   1.000  C
  N51      1.0000 0.87540  0.21810  0.40977  Biso   1.000  N
  C52      1.0000 0.96100  0.01910  0.29850  Biso   1.000  C
  N52      1.0000 0.92900  0.03910  0.31770  Biso   1.000  N
  C53      1.0000 0.84730  0.96550  0.37140  Biso   1.000  C
  N53      1.0000 0.83080  0.90460  0.37710  Biso   1.000  N
  N54      1.0000 0.93070  0.52670  0.31130  Biso   1.000  N
  C54      1.0000 0.95400  0.50960  0.28150  Biso   1.000  C
  Cu73     1.0000 0.19521  0.29798  0.12084  Biso   1.000  Cu
  Cu74     1.0000 0.37714  0.28738  0.11144  Biso   1.000  Cu
  Cu75     1.0000 0.45309  0.52291  0.20650  Biso   1.000  Cu
  Cu76     1.0000 0.39503  0.15354  0.95865  Biso   1.000  Cu
  Cu77     1.0000 0.60214  0.60033  0.13723  Biso   1.000  Cu
  Cu78     1.0000 0.38132  0.91493  0.85398  Biso   1.000  Cu
  Cu79     1.0000 0.68982  0.34744  0.12558  Biso   1.000  Cu
  Cu80     1.0000 0.87143  0.30362  0.12188  Biso   1.000  Cu
  Cu81     1.0000 0.98676  0.47856  0.23042  Biso   1.000  Cu
  Cu82     1.0000 0.11188  0.80422  0.04185  Biso   1.000  Cu
  Cu83     1.0000 0.10326  0.04953  0.13472  Biso   1.000  Cu
  Cu84     1.0000 0.12033  0.55944  0.14026  Biso   1.000  Cu
  Cu85     1.0000 0.19060  0.31530  0.12250  Biso   1.000  Cu
  Cu86     1.0000 0.37230  0.29840  0.12130  Biso   1.000  Cu
  Cu87     1.0000 0.48390  0.48230  0.22720  Biso   1.000  Cu
  Cu88     1.0000 0.38730  0.19120  0.95580  Biso   1.000  Cu
  Cu89     1.0000 0.38240  0.43380  0.85860  Biso   1.000  Cu
  Cu90     1.0000 0.39620  0.94350  0.86290  Biso   1.000  Cu
  Cu91     1.0000 0.31010  0.69350  0.87830  Biso   1.000  Cu
  Cu92     1.0000 0.12430  0.70460  0.88490  Biso   1.000  Cu
  Cu93     1.0000 0.02230  0.51350  0.77890  Biso   1.000  Cu
  Cu94     1.0000 0.10990  0.81560  0.04390  Biso   1.000  Cu
  Cu95     1.0000 0.10990  0.06380  0.14240  Biso   1.000  Cu
  Cu96     1.0000 0.11300  0.57520  0.14110  Biso   1.000  Cu
  C55      1.0000 0.30860  0.27690  0.11920  Biso   1.000  C
  N55      1.0000 0.26590  0.28280  0.12080  Biso   1.000  N
  C56      1.0000 0.13380  0.14780  0.12760  Biso   1.000  C
  N56      1.0000 0.15500  0.20640  0.12430  Biso   1.000  N
  C57      1.0000 0.41290  0.36850  0.15070  Biso   1.000  C
  N57      1.0000 0.42850  0.42460  0.17230  Biso   1.000  N
  C58      1.0000 0.39830  0.19400  0.02270  Biso   1.000  C
  N58      1.0000 0.39460  0.22560  0.05940  Biso   1.000  N
  C59      1.0000 0.51110  0.56450  0.18700  Biso   1.000  C
  N59      1.0000 0.54800  0.57990  0.17270  Biso   1.000  N
  N60      1.0000 0.38970  0.29960  0.89190  Biso   1.000  N
  C60      1.0000 0.38940  0.24170  0.91300  Biso   1.000  C
  C61      1.0000 0.39150  0.05850  0.92500  Biso   1.000  C
  N61      1.0000 0.38710  0.00290  0.89950  Biso   1.000  N
  N62      1.0000 0.40150  0.56270  0.29200  Biso   1.000  N
  C62      1.0000 0.41940  0.55070  0.25700  Biso   1.000  C
  C63      1.0000 0.34560  0.74850  0.87260  Biso   1.000  C
  N63      1.0000 0.36090  0.81100  0.86800  Biso   1.000  N
  N64      1.0000 0.66010  0.44740  0.12930  Biso   1.000  N
  C64      1.0000 0.63940  0.50800  0.13280  Biso   1.000  C
  N65      1.0000 0.80060  0.31200  0.12360  Biso   1.000  N
  C65      1.0000 0.75840  0.32600  0.12350  Biso   1.000  C
  C66      1.0000 0.92200  0.34740  0.17090  Biso   1.000  C
  N66      1.0000 0.95140  0.38550  0.19780  Biso   1.000  N
  C67      1.0000 0.11040  0.76820  0.97730  Biso   1.000  C
  N67      1.0000 0.11440  0.74280  0.93960  Biso   1.000  N
  C68      1.0000 0.10580  0.90330  0.07000  Biso   1.000  C
  N68      1.0000 0.10490  0.96130  0.09140  Biso   1.000  N
  C69      1.0000 0.12510  0.66050  0.11250  Biso   1.000  C
  N69      1.0000 0.12460  0.71810  0.09023  Biso   1.000  N
  C70      1.0000 0.03900  0.51910  0.20150  Biso   1.000  C
  N70      1.0000 0.07100  0.53910  0.18230  Biso   1.000  N
  C71      1.0000 0.15270  0.46550  0.12860  Biso   1.000  C
  N71      1.0000 0.16920  0.40460  0.12290  Biso   1.000  N
  N72      1.0000 0.06930  0.02670  0.18870  Biso   1.000  N
  C72      1.0000 0.04600  0.00960  0.21850  Biso   1.000  C
