data_image0
_cell_length_a       8.2881
_cell_length_b       8.2881
_cell_length_c       10.566
_cell_angle_alpha    90
_cell_angle_beta     90
_cell_angle_gamma    120

_symmetry_space_group_name_H-M    "P 1"
_symmetry_int_tables_number       1

loop_
  _symmetry_equiv_pos_as_xyz
  'x, y, z'

loop_
  _atom_site_label
  _atom_site_occupancy
  _atom_site_fract_x
  _atom_site_fract_y
  _atom_site_fract_z
  _atom_site_thermal_displace_type
  _atom_site_B_iso_or_equiv
  _atom_site_type_symbol
  Zn1      1.0000 0.58351  0.86864  0.99537  Biso   1.000  Zn
  O1       1.0000 0.75190  0.80860  0.11320  Biso   1.000  O
  H1       1.0000 0.68600  0.76500  0.18000  Biso   1.000  H
  O2       1.0000 0.52220  0.62530  0.91030  Biso   1.000  O
  H2       1.0000 0.53800  0.62000  0.83100  Biso   1.000  H
  H3       1.0000 0.11890  0.09070  0.37850  Biso   1.000  H
  H4       1.0000 0.92470  0.04800  0.37850  Biso   1.000  H
  C1       1.0000 0.95500  0.85700  0.44720  Biso   1.000  C
  H5       1.0000 0.06870  0.85990  0.47930  Biso   1.000  H
  H6       1.0000 0.87110  0.73260  0.41020  Biso   1.000  H
  Zn2      1.0000 0.13136  0.71487  0.99537  Biso   1.000  Zn
  O3       1.0000 0.19140  0.94330  0.11320  Biso   1.000  O
  H7       1.0000 0.23500  0.92100  0.18000  Biso   1.000  H
  O4       1.0000 0.37470  0.89690  0.91030  Biso   1.000  O
  H8       1.0000 0.38000  0.91800  0.83100  Biso   1.000  H
  H9       1.0000 0.90930  0.02820  0.37850  Biso   1.000  H
  H10      1.0000 0.95200  0.87670  0.37850  Biso   1.000  H
  C2       1.0000 0.14300  0.09800  0.44720  Biso   1.000  C
  H11      1.0000 0.14010  0.20880  0.47930  Biso   1.000  H
  H12      1.0000 0.26740  0.13850  0.41020  Biso   1.000  H
  Zn3      1.0000 0.28513  0.41649  0.99537  Biso   1.000  Zn
  O5       1.0000 0.05670  0.24810  0.11320  Biso   1.000  O
  H13      1.0000 0.07900  0.31400  0.18000  Biso   1.000  H
  O6       1.0000 0.10310  0.47780  0.91030  Biso   1.000  O
  H14      1.0000 0.08200  0.46200  0.83100  Biso   1.000  H
  H15      1.0000 0.97180  0.88110  0.37850  Biso   1.000  H
  H16      1.0000 0.12330  0.07530  0.37850  Biso   1.000  H
  C3       1.0000 0.90200  0.04500  0.44720  Biso   1.000  C
  H17      1.0000 0.79120  0.93130  0.47930  Biso   1.000  H
  H18      1.0000 0.86150  0.12890  0.41020  Biso   1.000  H
  Zn4      1.0000 0.41649  0.13136  0.00463  Biso   1.000  Zn
  O7       1.0000 0.24810  0.19140  0.88680  Biso   1.000  O
  H19      1.0000 0.31400  0.23500  0.82000  Biso   1.000  H
  O8       1.0000 0.47780  0.37470  0.08970  Biso   1.000  O
  H20      1.0000 0.46200  0.38000  0.16900  Biso   1.000  H
  H21      1.0000 0.88110  0.90930  0.62150  Biso   1.000  H
  H22      1.0000 0.07530  0.95200  0.62150  Biso   1.000  H
  C4       1.0000 0.04500  0.14300  0.55280  Biso   1.000  C
  H23      1.0000 0.93130  0.14010  0.52070  Biso   1.000  H
  H24      1.0000 0.12890  0.26740  0.58980  Biso   1.000  H
  Zn5      1.0000 0.86864  0.28513  0.00463  Biso   1.000  Zn
  O9       1.0000 0.80860  0.05670  0.88680  Biso   1.000  O
  H25      1.0000 0.76500  0.07900  0.82000  Biso   1.000  H
  O10      1.0000 0.62530  0.10310  0.08970  Biso   1.000  O
  H26      1.0000 0.62000  0.08200  0.16900  Biso   1.000  H
  H27      1.0000 0.09070  0.97180  0.62150  Biso   1.000  H
  H28      1.0000 0.04800  0.12330  0.62150  Biso   1.000  H
  C5       1.0000 0.85700  0.90200  0.55280  Biso   1.000  C
  H29      1.0000 0.85990  0.79120  0.52070  Biso   1.000  H
  H30      1.0000 0.73260  0.86150  0.58980  Biso   1.000  H
  Zn6      1.0000 0.71487  0.58351  0.00463  Biso   1.000  Zn
  O11      1.0000 0.94330  0.75190  0.88680  Biso   1.000  O
  H31      1.0000 0.92100  0.68600  0.82000  Biso   1.000  H
  O12      1.0000 0.89690  0.52220  0.08970  Biso   1.000  O
  H32      1.0000 0.91800  0.53800  0.16900  Biso   1.000  H
  H33      1.0000 0.02820  0.11890  0.62150  Biso   1.000  H
  H34      1.0000 0.87670  0.92470  0.62150  Biso   1.000  H
  C6       1.0000 0.09800  0.95500  0.55280  Biso   1.000  C
  H35      1.0000 0.20880  0.06870  0.52070  Biso   1.000  H
  H36      1.0000 0.13850  0.87110  0.58980  Biso   1.000  H
  Zn7      1.0000 0.00000  0.00000  0.16974  Biso   1.000  Zn
  N1       1.0000 0.00000  0.00000  0.35710  Biso   1.000  N
  Zn8      1.0000 0.00000  0.00000  0.83026  Biso   1.000  Zn
  N2       1.0000 0.00000  0.00000  0.64290  Biso   1.000  N
