data_image0
_cell_length_a       21.926
_cell_length_b       21.926
_cell_length_c       10.5643
_cell_angle_alpha    90
_cell_angle_beta     90
_cell_angle_gamma    120

_symmetry_space_group_name_H-M    "P 1"
_symmetry_int_tables_number       1

loop_
  _symmetry_equiv_pos_as_xyz
  'x, y, z'

loop_
  _atom_site_label
  _atom_site_occupancy
  _atom_site_fract_x
  _atom_site_fract_y
  _atom_site_fract_z
  _atom_site_thermal_displace_type
  _atom_site_B_iso_or_equiv
  _atom_site_type_symbol
  Zn1      1.0000 0.42898  0.14121  0.82714  Biso   1.000  Zn
  Zn2      1.0000 0.43050  0.14595  0.16682  Biso   1.000  Zn
  Zn3      1.0000 0.28788  0.14027  0.99372  Biso   1.000  Zn
  Zn4      1.0000 0.42503  0.28093  0.99324  Biso   1.000  Zn
  Zn5      1.0000 0.28833  0.29106  0.99232  Biso   1.000  Zn
  Zn6      1.0000 0.42647  0.43184  0.00135  Biso   1.000  Zn
  Zn7      1.0000 0.13812  0.14115  0.99344  Biso   1.000  Zn
  Zn8      1.0000 0.57647  0.42993  0.00115  Biso   1.000  Zn
  Zn9      1.0000 0.56597  0.28388  0.98384  Biso   1.000  Zn
  O1       1.0000 0.52814  0.19615  0.10470  Biso   1.000  O
  H1       1.0000 0.55000  0.21100  0.17700  Biso   1.000  H
  O2       1.0000 0.47421  0.24018  0.87470  Biso   1.000  O
  H2       1.0000 0.48300  0.25800  0.80600  Biso   1.000  H
  O3       1.0000 0.33134  0.09135  0.88640  Biso   1.000  O
  H3       1.0000 0.30700  0.08100  0.81600  Biso   1.000  H
  O4       1.0000 0.37804  0.19122  0.10860  Biso   1.000  O
  H4       1.0000 0.36800  0.20200  0.17900  Biso   1.000  H
  O5       1.0000 0.48100  0.09540  0.88640  Biso   1.000  O
  H5       1.0000 0.49670  0.08130  0.80830  Biso   1.000  H
  O6       1.0000 0.33608  0.38288  0.88350  Biso   1.000  O
  H6       1.0000 0.34600  0.37300  0.80900  Biso   1.000  H
  O7       1.0000 0.04646  0.09806  0.88650  Biso   1.000  O
  H7       1.0000 0.05200  0.11900  0.81700  Biso   1.000  H
  O8       1.0000 0.38334  0.33606  0.08460  Biso   1.000  O
  H8       1.0000 0.38220  0.33470  0.17920  Biso   1.000  H
  O9       1.0000 0.19228  0.23867  0.90920  Biso   1.000  O
  H9       1.0000 0.19100  0.24010  0.81460  Biso   1.000  H
  O10      1.0000 0.52025  0.33235  0.07870  Biso   1.000  O
  H10      1.0000 0.52030  0.32980  0.17330  Biso   1.000  H
  O11      1.0000 0.52386  0.47290  0.08950  Biso   1.000  O
  H11      1.0000 0.52440  0.47360  0.18410  Biso   1.000  H
  O12      1.0000 0.18958  0.09686  0.90800  Biso   1.000  O
  H12      1.0000 0.18800  0.09420  0.81350  Biso   1.000  H
  O13      1.0000 0.62191  0.38157  0.90080  Biso   1.000  O
  H13      1.0000 0.62040  0.38350  0.80630  Biso   1.000  H
  O14      1.0000 0.32946  0.23495  0.90620  Biso   1.000  O
  H14      1.0000 0.32960  0.23460  0.81160  Biso   1.000  H
  N1       1.0000 0.01370  0.01950  0.64030  Biso   1.000  N
  H15      1.0000 0.99360  0.04600  0.61710  Biso   1.000  H
  H16      1.0000 0.06110  0.04540  0.62290  Biso   1.000  H
  C1       1.0000 0.98270  0.95540  0.56610  Biso   1.000  C
  H17      1.0000 0.94280  0.91680  0.61230  Biso   1.000  H
  H18      1.0000 0.01810  0.94110  0.54850  Biso   1.000  H
  N2       1.0000 0.44190  0.15940  0.35590  Biso   1.000  N
  H19      1.0000 0.46810  0.14000  0.38420  Biso   1.000  H
  H20      1.0000 0.46730  0.20700  0.37250  Biso   1.000  H
  C2       1.0000 0.37890  0.13020  0.42650  Biso   1.000  C
  H21      1.0000 0.35660  0.07820  0.42550  Biso   1.000  H
  H22      1.0000 0.34600  0.14260  0.38520  Biso   1.000  H
  C3       1.0000 0.39040  0.15620  0.56770  Biso   1.000  C
  H23      1.0000 0.41500  0.20830  0.56930  Biso   1.000  H
  H24      1.0000 0.34400  0.13840  0.60920  Biso   1.000  H
  N3       1.0000 0.43133  0.13206  0.63750  Biso   1.000  N
  H25      1.0000 0.47740  0.15730  0.61090  Biso   1.000  H
  H26      1.0000 0.41490  0.08550  0.61790  Biso   1.000  H
  Zn10     1.0000 0.85879  0.28777  0.82714  Biso   1.000  Zn
  Zn11     1.0000 0.85405  0.28455  0.16682  Biso   1.000  Zn
  Zn12     1.0000 0.85973  0.14761  0.99372  Biso   1.000  Zn
  Zn13     1.0000 0.71907  0.14410  0.99324  Biso   1.000  Zn
  Zn14     1.0000 0.70894  0.99727  0.99232  Biso   1.000  Zn
  Zn15     1.0000 0.56816  0.99463  0.00135  Biso   1.000  Zn
  Zn16     1.0000 0.85885  0.99697  0.99344  Biso   1.000  Zn
  Zn17     1.0000 0.57007  0.14654  0.00115  Biso   1.000  Zn
  Zn18     1.0000 0.71612  0.28209  0.98384  Biso   1.000  Zn
  O15      1.0000 0.80385  0.33199  0.10470  Biso   1.000  O
  H27      1.0000 0.78900  0.33900  0.17700  Biso   1.000  H
  O16      1.0000 0.75982  0.23403  0.87470  Biso   1.000  O
  H28      1.0000 0.74200  0.22500  0.80600  Biso   1.000  H
  O17      1.0000 0.90865  0.23999  0.88640  Biso   1.000  O
  H29      1.0000 0.91900  0.22600  0.81600  Biso   1.000  H
  O18      1.0000 0.80878  0.18682  0.10860  Biso   1.000  O
  H30      1.0000 0.79800  0.16600  0.17900  Biso   1.000  H
  O19      1.0000 0.90460  0.38560  0.88640  Biso   1.000  O
  H31      1.0000 0.91870  0.41540  0.80830  Biso   1.000  H
  O20      1.0000 0.61712  0.95320  0.88350  Biso   1.000  O
  H32      1.0000 0.62700  0.97300  0.80900  Biso   1.000  H
  O21      1.0000 0.90194  0.94840  0.88650  Biso   1.000  O
  H33      1.0000 0.88100  0.93300  0.81700  Biso   1.000  H
  O22      1.0000 0.66394  0.04728  0.08460  Biso   1.000  O
  H34      1.0000 0.66530  0.04750  0.17920  Biso   1.000  H
  O23      1.0000 0.76133  0.95361  0.90920  Biso   1.000  O
  H35      1.0000 0.75990  0.95090  0.81460  Biso   1.000  H
  O24      1.0000 0.66765  0.18790  0.07870  Biso   1.000  O
  H36      1.0000 0.67020  0.19050  0.17330  Biso   1.000  H
  O25      1.0000 0.52710  0.05096  0.08950  Biso   1.000  O
  H37      1.0000 0.52640  0.05080  0.18410  Biso   1.000  H
  O26      1.0000 0.90314  0.09272  0.90800  Biso   1.000  O
  H38      1.0000 0.90580  0.09380  0.81350  Biso   1.000  H
  O27      1.0000 0.61843  0.24034  0.90080  Biso   1.000  O
  H39      1.0000 0.61650  0.23690  0.80630  Biso   1.000  H
  O28      1.0000 0.76505  0.09451  0.90620  Biso   1.000  O
  H40      1.0000 0.76540  0.09500  0.81160  Biso   1.000  H
  N4       1.0000 0.98050  0.99420  0.64030  Biso   1.000  N
  H41      1.0000 0.95400  0.94760  0.61710  Biso   1.000  H
  H42      1.0000 0.95460  0.01570  0.62290  Biso   1.000  H
  C4       1.0000 0.04460  0.02730  0.56610  Biso   1.000  C
  H43      1.0000 0.08320  0.02600  0.61230  Biso   1.000  H
  H44      1.0000 0.05890  0.07700  0.54850  Biso   1.000  H
  N5       1.0000 0.84060  0.28250  0.35590  Biso   1.000  N
  H45      1.0000 0.86000  0.32810  0.38420  Biso   1.000  H
  H46      1.0000 0.79300  0.26030  0.37250  Biso   1.000  H
  C5       1.0000 0.86980  0.24870  0.42650  Biso   1.000  C
  H47      1.0000 0.92180  0.27840  0.42550  Biso   1.000  H
  H48      1.0000 0.85740  0.20340  0.38520  Biso   1.000  H
  C6       1.0000 0.84380  0.23420  0.56770  Biso   1.000  C
  H49      1.0000 0.79170  0.20670  0.56930  Biso   1.000  H
  H50      1.0000 0.86160  0.20560  0.60920  Biso   1.000  H
  N6       1.0000 0.86794  0.29927  0.63750  Biso   1.000  N
  H51      1.0000 0.84270  0.32010  0.61090  Biso   1.000  H
  H52      1.0000 0.91450  0.32940  0.61790  Biso   1.000  H
  Zn19     1.0000 0.71223  0.57102  0.82714  Biso   1.000  Zn
  Zn20     1.0000 0.71545  0.56950  0.16682  Biso   1.000  Zn
  Zn21     1.0000 0.85239  0.71212  0.99372  Biso   1.000  Zn
  Zn22     1.0000 0.85590  0.57497  0.99324  Biso   1.000  Zn
  Zn23     1.0000 0.00273  0.71167  0.99232  Biso   1.000  Zn
  Zn24     1.0000 0.00537  0.57353  0.00135  Biso   1.000  Zn
  Zn25     1.0000 0.00303  0.86188  0.99344  Biso   1.000  Zn
  Zn26     1.0000 0.85346  0.42353  0.00115  Biso   1.000  Zn
  Zn27     1.0000 0.71791  0.43403  0.98384  Biso   1.000  Zn
  O29      1.0000 0.66801  0.47186  0.10470  Biso   1.000  O
  H53      1.0000 0.66100  0.45000  0.17700  Biso   1.000  H
  O30      1.0000 0.76597  0.52579  0.87470  Biso   1.000  O
  H54      1.0000 0.77500  0.51700  0.80600  Biso   1.000  H
  O31      1.0000 0.76001  0.66866  0.88640  Biso   1.000  O
  H55      1.0000 0.77400  0.69300  0.81600  Biso   1.000  H
  O32      1.0000 0.81318  0.62196  0.10860  Biso   1.000  O
  H56      1.0000 0.83400  0.63200  0.17900  Biso   1.000  H
  O33      1.0000 0.61440  0.51900  0.88640  Biso   1.000  O
  H57      1.0000 0.58460  0.50330  0.80830  Biso   1.000  H
  O34      1.0000 0.04680  0.66392  0.88350  Biso   1.000  O
  H58      1.0000 0.02700  0.65400  0.80900  Biso   1.000  H
  O35      1.0000 0.05160  0.95354  0.88650  Biso   1.000  O
  H59      1.0000 0.06700  0.94800  0.81700  Biso   1.000  H
  O36      1.0000 0.95272  0.61666  0.08460  Biso   1.000  O
  H60      1.0000 0.95250  0.61780  0.17920  Biso   1.000  H
  O37      1.0000 0.04639  0.80772  0.90920  Biso   1.000  O
  H61      1.0000 0.04910  0.80900  0.81460  Biso   1.000  H
  O38      1.0000 0.81210  0.47975  0.07870  Biso   1.000  O
  H62      1.0000 0.80950  0.47970  0.17330  Biso   1.000  H
  O39      1.0000 0.94904  0.47614  0.08950  Biso   1.000  O
  H63      1.0000 0.94920  0.47560  0.18410  Biso   1.000  H
  O40      1.0000 0.90728  0.81042  0.90800  Biso   1.000  O
  H64      1.0000 0.90620  0.81200  0.81350  Biso   1.000  H
  O41      1.0000 0.75966  0.37809  0.90080  Biso   1.000  O
  H65      1.0000 0.76310  0.37960  0.80630  Biso   1.000  H
  O42      1.0000 0.90549  0.67054  0.90620  Biso   1.000  O
  H66      1.0000 0.90500  0.67040  0.81160  Biso   1.000  H
  N7       1.0000 0.00580  0.98630  0.64030  Biso   1.000  N
  H67      1.0000 0.05240  0.00640  0.61710  Biso   1.000  H
  H68      1.0000 0.98430  0.93890  0.62290  Biso   1.000  H
  C7       1.0000 0.97270  0.01730  0.56610  Biso   1.000  C
  H69      1.0000 0.97400  0.05720  0.61230  Biso   1.000  H
  H70      1.0000 0.92300  0.98190  0.54850  Biso   1.000  H
  N8       1.0000 0.71750  0.55810  0.35590  Biso   1.000  N
  H71      1.0000 0.67190  0.53190  0.38420  Biso   1.000  H
  H72      1.0000 0.73970  0.53270  0.37250  Biso   1.000  H
  C8       1.0000 0.75130  0.62110  0.42650  Biso   1.000  C
  H73      1.0000 0.72160  0.64340  0.42550  Biso   1.000  H
  H74      1.0000 0.79660  0.65400  0.38520  Biso   1.000  H
  C9       1.0000 0.76580  0.60960  0.56770  Biso   1.000  C
  H75      1.0000 0.79330  0.58500  0.56930  Biso   1.000  H
  H76      1.0000 0.79440  0.65600  0.60920  Biso   1.000  H
  N9       1.0000 0.70073  0.56867  0.63750  Biso   1.000  N
  H77      1.0000 0.67990  0.52260  0.61090  Biso   1.000  H
  H78      1.0000 0.67060  0.58510  0.61790  Biso   1.000  H
  Zn28     1.0000 0.57102  0.85879  0.17286  Biso   1.000  Zn
  Zn29     1.0000 0.56950  0.85405  0.83318  Biso   1.000  Zn
  Zn30     1.0000 0.71212  0.85973  0.00628  Biso   1.000  Zn
  Zn31     1.0000 0.57497  0.71907  0.00676  Biso   1.000  Zn
  Zn32     1.0000 0.71167  0.70894  0.00768  Biso   1.000  Zn
  Zn33     1.0000 0.57353  0.56816  0.99865  Biso   1.000  Zn
  Zn34     1.0000 0.86188  0.85885  0.00656  Biso   1.000  Zn
  Zn35     1.0000 0.42353  0.57007  0.99885  Biso   1.000  Zn
  Zn36     1.0000 0.43403  0.71612  0.01616  Biso   1.000  Zn
  O43      1.0000 0.47186  0.80385  0.89530  Biso   1.000  O
  H79      1.0000 0.45000  0.78900  0.82300  Biso   1.000  H
  O44      1.0000 0.52579  0.75982  0.12530  Biso   1.000  O
  H80      1.0000 0.51700  0.74200  0.19400  Biso   1.000  H
  O45      1.0000 0.66866  0.90865  0.11360  Biso   1.000  O
  H81      1.0000 0.69300  0.91900  0.18400  Biso   1.000  H
  O46      1.0000 0.62196  0.80878  0.89140  Biso   1.000  O
  H82      1.0000 0.63200  0.79800  0.82100  Biso   1.000  H
  O47      1.0000 0.51900  0.90460  0.11360  Biso   1.000  O
  H83      1.0000 0.50330  0.91870  0.19170  Biso   1.000  H
  O48      1.0000 0.66392  0.61712  0.11650  Biso   1.000  O
  H84      1.0000 0.65400  0.62700  0.19100  Biso   1.000  H
  O49      1.0000 0.95354  0.90194  0.11350  Biso   1.000  O
  H85      1.0000 0.94800  0.88100  0.18300  Biso   1.000  H
  O50      1.0000 0.61666  0.66394  0.91540  Biso   1.000  O
  H86      1.0000 0.61780  0.66530  0.82080  Biso   1.000  H
  O51      1.0000 0.80772  0.76133  0.09080  Biso   1.000  O
  H87      1.0000 0.80900  0.75990  0.18540  Biso   1.000  H
  O52      1.0000 0.47975  0.66765  0.92130  Biso   1.000  O
  H88      1.0000 0.47970  0.67020  0.82670  Biso   1.000  H
  O53      1.0000 0.47614  0.52710  0.91050  Biso   1.000  O
  H89      1.0000 0.47560  0.52640  0.81590  Biso   1.000  H
  O54      1.0000 0.81042  0.90314  0.09200  Biso   1.000  O
  H90      1.0000 0.81200  0.90580  0.18650  Biso   1.000  H
  O55      1.0000 0.37809  0.61843  0.09920  Biso   1.000  O
  H91      1.0000 0.37960  0.61650  0.19370  Biso   1.000  H
  O56      1.0000 0.67054  0.76505  0.09380  Biso   1.000  O
  H92      1.0000 0.67040  0.76540  0.18840  Biso   1.000  H
  N10      1.0000 0.98630  0.98050  0.35970  Biso   1.000  N
  H93      1.0000 0.00640  0.95400  0.38290  Biso   1.000  H
  H94      1.0000 0.93890  0.95460  0.37710  Biso   1.000  H
  C10      1.0000 0.01730  0.04460  0.43390  Biso   1.000  C
  H95      1.0000 0.05720  0.08320  0.38770  Biso   1.000  H
  H96      1.0000 0.98190  0.05890  0.45150  Biso   1.000  H
  N11      1.0000 0.55810  0.84060  0.64410  Biso   1.000  N
  H97      1.0000 0.53190  0.86000  0.61580  Biso   1.000  H
  H98      1.0000 0.53270  0.79300  0.62750  Biso   1.000  H
  C11      1.0000 0.62110  0.86980  0.57350  Biso   1.000  C
  H99      1.0000 0.64340  0.92180  0.57450  Biso   1.000  H
  H100     1.0000 0.65400  0.85740  0.61480  Biso   1.000  H
  C12      1.0000 0.60960  0.84380  0.43230  Biso   1.000  C
  H101     1.0000 0.58500  0.79170  0.43070  Biso   1.000  H
  H102     1.0000 0.65600  0.86160  0.39080  Biso   1.000  H
  N12      1.0000 0.56867  0.86794  0.36250  Biso   1.000  N
  H103     1.0000 0.52260  0.84270  0.38910  Biso   1.000  H
  H104     1.0000 0.58510  0.91450  0.38210  Biso   1.000  H
  Zn37     1.0000 0.14121  0.71223  0.17286  Biso   1.000  Zn
  Zn38     1.0000 0.14595  0.71545  0.83318  Biso   1.000  Zn
  Zn39     1.0000 0.14027  0.85239  0.00628  Biso   1.000  Zn
  Zn40     1.0000 0.28093  0.85590  0.00676  Biso   1.000  Zn
  Zn41     1.0000 0.29106  0.00273  0.00768  Biso   1.000  Zn
  Zn42     1.0000 0.43184  0.00537  0.99865  Biso   1.000  Zn
  Zn43     1.0000 0.14115  0.00303  0.00656  Biso   1.000  Zn
  Zn44     1.0000 0.42993  0.85346  0.99885  Biso   1.000  Zn
  Zn45     1.0000 0.28388  0.71791  0.01616  Biso   1.000  Zn
  O57      1.0000 0.19615  0.66801  0.89530  Biso   1.000  O
  H105     1.0000 0.21100  0.66100  0.82300  Biso   1.000  H
  O58      1.0000 0.24018  0.76597  0.12530  Biso   1.000  O
  H106     1.0000 0.25800  0.77500  0.19400  Biso   1.000  H
  O59      1.0000 0.09135  0.76001  0.11360  Biso   1.000  O
  H107     1.0000 0.08100  0.77400  0.18400  Biso   1.000  H
  O60      1.0000 0.19122  0.81318  0.89140  Biso   1.000  O
  H108     1.0000 0.20200  0.83400  0.82100  Biso   1.000  H
  O61      1.0000 0.09540  0.61440  0.11360  Biso   1.000  O
  H109     1.0000 0.08130  0.58460  0.19170  Biso   1.000  H
  O62      1.0000 0.38288  0.04680  0.11650  Biso   1.000  O
  H110     1.0000 0.37300  0.02700  0.19100  Biso   1.000  H
  O63      1.0000 0.09806  0.05160  0.11350  Biso   1.000  O
  H111     1.0000 0.11900  0.06700  0.18300  Biso   1.000  H
  O64      1.0000 0.33606  0.95272  0.91540  Biso   1.000  O
  H112     1.0000 0.33470  0.95250  0.82080  Biso   1.000  H
  O65      1.0000 0.23867  0.04639  0.09080  Biso   1.000  O
  H113     1.0000 0.24010  0.04910  0.18540  Biso   1.000  H
  O66      1.0000 0.33235  0.81210  0.92130  Biso   1.000  O
  H114     1.0000 0.32980  0.80950  0.82670  Biso   1.000  H
  O67      1.0000 0.47290  0.94904  0.91050  Biso   1.000  O
  H115     1.0000 0.47360  0.94920  0.81590  Biso   1.000  H
  O68      1.0000 0.09686  0.90728  0.09200  Biso   1.000  O
  H116     1.0000 0.09420  0.90620  0.18650  Biso   1.000  H
  O69      1.0000 0.38157  0.75966  0.09920  Biso   1.000  O
  H117     1.0000 0.38350  0.76310  0.19370  Biso   1.000  H
  O70      1.0000 0.23495  0.90549  0.09380  Biso   1.000  O
  H118     1.0000 0.23460  0.90500  0.18840  Biso   1.000  H
  N13      1.0000 0.01950  0.00580  0.35970  Biso   1.000  N
  H119     1.0000 0.04600  0.05240  0.38290  Biso   1.000  H
  H120     1.0000 0.04540  0.98430  0.37710  Biso   1.000  H
  C13      1.0000 0.95540  0.97270  0.43390  Biso   1.000  C
  H121     1.0000 0.91680  0.97400  0.38770  Biso   1.000  H
  H122     1.0000 0.94110  0.92300  0.45150  Biso   1.000  H
  N14      1.0000 0.15940  0.71750  0.64410  Biso   1.000  N
  H123     1.0000 0.14000  0.67190  0.61580  Biso   1.000  H
  H124     1.0000 0.20700  0.73970  0.62750  Biso   1.000  H
  C14      1.0000 0.13020  0.75130  0.57350  Biso   1.000  C
  H125     1.0000 0.07820  0.72160  0.57450  Biso   1.000  H
  H126     1.0000 0.14260  0.79660  0.61480  Biso   1.000  H
  C15      1.0000 0.15620  0.76580  0.43230  Biso   1.000  C
  H127     1.0000 0.20830  0.79330  0.43070  Biso   1.000  H
  H128     1.0000 0.13840  0.79440  0.39080  Biso   1.000  H
  N15      1.0000 0.13206  0.70073  0.36250  Biso   1.000  N
  H129     1.0000 0.15730  0.67990  0.38910  Biso   1.000  H
  H130     1.0000 0.08550  0.67060  0.38210  Biso   1.000  H
  Zn46     1.0000 0.28777  0.42898  0.17286  Biso   1.000  Zn
  Zn47     1.0000 0.28455  0.43050  0.83318  Biso   1.000  Zn
  Zn48     1.0000 0.14761  0.28788  0.00628  Biso   1.000  Zn
  Zn49     1.0000 0.14410  0.42503  0.00676  Biso   1.000  Zn
  Zn50     1.0000 0.99727  0.28833  0.00768  Biso   1.000  Zn
  Zn51     1.0000 0.99463  0.42647  0.99865  Biso   1.000  Zn
  Zn52     1.0000 0.99697  0.13812  0.00656  Biso   1.000  Zn
  Zn53     1.0000 0.14654  0.57647  0.99885  Biso   1.000  Zn
  Zn54     1.0000 0.28209  0.56597  0.01616  Biso   1.000  Zn
  O71      1.0000 0.33199  0.52814  0.89530  Biso   1.000  O
  H131     1.0000 0.33900  0.55000  0.82300  Biso   1.000  H
  O72      1.0000 0.23403  0.47421  0.12530  Biso   1.000  O
  H132     1.0000 0.22500  0.48300  0.19400  Biso   1.000  H
  O73      1.0000 0.23999  0.33134  0.11360  Biso   1.000  O
  H133     1.0000 0.22600  0.30700  0.18400  Biso   1.000  H
  O74      1.0000 0.18682  0.37804  0.89140  Biso   1.000  O
  H134     1.0000 0.16600  0.36800  0.82100  Biso   1.000  H
  O75      1.0000 0.38560  0.48100  0.11360  Biso   1.000  O
  H135     1.0000 0.41540  0.49670  0.19170  Biso   1.000  H
  O76      1.0000 0.95320  0.33608  0.11650  Biso   1.000  O
  H136     1.0000 0.97300  0.34600  0.19100  Biso   1.000  H
  O77      1.0000 0.94840  0.04646  0.11350  Biso   1.000  O
  H137     1.0000 0.93300  0.05200  0.18300  Biso   1.000  H
  O78      1.0000 0.04728  0.38334  0.91540  Biso   1.000  O
  H138     1.0000 0.04750  0.38220  0.82080  Biso   1.000  H
  O79      1.0000 0.95361  0.19228  0.09080  Biso   1.000  O
  H139     1.0000 0.95090  0.19100  0.18540  Biso   1.000  H
  O80      1.0000 0.18790  0.52025  0.92130  Biso   1.000  O
  H140     1.0000 0.19050  0.52030  0.82670  Biso   1.000  H
  O81      1.0000 0.05096  0.52386  0.91050  Biso   1.000  O
  H141     1.0000 0.05080  0.52440  0.81590  Biso   1.000  H
  O82      1.0000 0.09272  0.18958  0.09200  Biso   1.000  O
  H142     1.0000 0.09380  0.18800  0.18650  Biso   1.000  H
  O83      1.0000 0.24034  0.62191  0.09920  Biso   1.000  O
  H143     1.0000 0.23690  0.62040  0.19370  Biso   1.000  H
  O84      1.0000 0.09451  0.32946  0.09380  Biso   1.000  O
  H144     1.0000 0.09500  0.32960  0.18840  Biso   1.000  H
  N16      1.0000 0.99420  0.01370  0.35970  Biso   1.000  N
  H145     1.0000 0.94760  0.99360  0.38290  Biso   1.000  H
  H146     1.0000 0.01570  0.06110  0.37710  Biso   1.000  H
  C16      1.0000 0.02730  0.98270  0.43390  Biso   1.000  C
  H147     1.0000 0.02600  0.94280  0.38770  Biso   1.000  H
  H148     1.0000 0.07700  0.01810  0.45150  Biso   1.000  H
  N17      1.0000 0.28250  0.44190  0.64410  Biso   1.000  N
  H149     1.0000 0.32810  0.46810  0.61580  Biso   1.000  H
  H150     1.0000 0.26030  0.46730  0.62750  Biso   1.000  H
  C17      1.0000 0.24870  0.37890  0.57350  Biso   1.000  C
  H151     1.0000 0.27840  0.35660  0.57450  Biso   1.000  H
  H152     1.0000 0.20340  0.34600  0.61480  Biso   1.000  H
  C18      1.0000 0.23420  0.39040  0.43230  Biso   1.000  C
  H153     1.0000 0.20670  0.41500  0.43070  Biso   1.000  H
  H154     1.0000 0.20560  0.34400  0.39080  Biso   1.000  H
  N18      1.0000 0.29927  0.43133  0.36250  Biso   1.000  N
  H155     1.0000 0.32010  0.47740  0.38910  Biso   1.000  H
  H156     1.0000 0.32940  0.41490  0.38210  Biso   1.000  H
  Zn55     1.0000 0.00000  0.00000  0.83009  Biso   1.000  Zn
  Zn56     1.0000 0.00000  0.00000  0.16991  Biso   1.000  Zn
