data_image0
_cell_length_a       11.7877
_cell_length_b       5.2093
_cell_length_c       12.2031
_cell_angle_alpha    90
_cell_angle_beta     98.198
_cell_angle_gamma    90

_symmetry_space_group_name_H-M    "P 1"
_symmetry_int_tables_number       1

loop_
  _symmetry_equiv_pos_as_xyz
  'x, y, z'

loop_
  _atom_site_label
  _atom_site_occupancy
  _atom_site_fract_x
  _atom_site_fract_y
  _atom_site_fract_z
  _atom_site_thermal_displace_type
  _atom_site_B_iso_or_equiv
  _atom_site_type_symbol
  Zn1      1.0000 0.39417  0.20143  0.57172  Biso   1.000  Zn
  P1       1.0000 0.66271  0.28293  0.56642  Biso   1.000  P
  O1       1.0000 0.76818  0.21750  0.65303  Biso   1.000  O
  H1       1.0000 0.75060  0.22870  0.71550  Biso   1.000  H
  O2       1.0000 0.55656  0.18800  0.61165  Biso   1.000  O
  O3       1.0000 0.67666  0.13820  0.45809  Biso   1.000  O
  O4       1.0000 0.66306  0.56990  0.54478  Biso   1.000  O
  O5       1.0000 0.34855  0.26890  0.71909  Biso   1.000  O
  O6       1.0000 0.19681  0.60130  0.65249  Biso   1.000  O
  H2       1.0000 0.24780  0.68330  0.62940  Biso   1.000  H
  Zn2      1.0000 0.10583  0.20143  0.92828  Biso   1.000  Zn
  P2       1.0000 0.83729  0.28293  0.93358  Biso   1.000  P
  O7       1.0000 0.73182  0.21750  0.84697  Biso   1.000  O
  H3       1.0000 0.74940  0.22870  0.78450  Biso   1.000  H
  O8       1.0000 0.94344  0.18800  0.88835  Biso   1.000  O
  O9       1.0000 0.82334  0.13820  0.04191  Biso   1.000  O
  O10      1.0000 0.83694  0.56990  0.95522  Biso   1.000  O
  O11      1.0000 0.15145  0.26890  0.78091  Biso   1.000  O
  O12      1.0000 0.30319  0.60130  0.84751  Biso   1.000  O
  H4       1.0000 0.25220  0.68330  0.87060  Biso   1.000  H
  Zn3      1.0000 0.60583  0.79857  0.42828  Biso   1.000  Zn
  P3       1.0000 0.33729  0.71707  0.43358  Biso   1.000  P
  O13      1.0000 0.23182  0.78250  0.34697  Biso   1.000  O
  H5       1.0000 0.24940  0.77130  0.28450  Biso   1.000  H
  O14      1.0000 0.44344  0.81200  0.38835  Biso   1.000  O
  O15      1.0000 0.32334  0.86180  0.54191  Biso   1.000  O
  O16      1.0000 0.33694  0.43010  0.45522  Biso   1.000  O
  O17      1.0000 0.65145  0.73110  0.28091  Biso   1.000  O
  O18      1.0000 0.80319  0.39870  0.34751  Biso   1.000  O
  H6       1.0000 0.75220  0.31670  0.37060  Biso   1.000  H
  Zn4      1.0000 0.89417  0.79857  0.07172  Biso   1.000  Zn
  P4       1.0000 0.16271  0.71707  0.06642  Biso   1.000  P
  O19      1.0000 0.26818  0.78250  0.15303  Biso   1.000  O
  H7       1.0000 0.25060  0.77130  0.21550  Biso   1.000  H
  O20      1.0000 0.05656  0.81200  0.11165  Biso   1.000  O
  O21      1.0000 0.17666  0.86180  0.95809  Biso   1.000  O
  O22      1.0000 0.16306  0.43010  0.04478  Biso   1.000  O
  O23      1.0000 0.84855  0.73110  0.21909  Biso   1.000  O
  O24      1.0000 0.69681  0.39870  0.15249  Biso   1.000  O
  H8       1.0000 0.74780  0.31670  0.12940  Biso   1.000  H
  P5       1.0000 0.25000  0.42574  0.75000  Biso   1.000  P
  P6       1.0000 0.75000  0.57426  0.25000  Biso   1.000  P
