data_image0
_cell_length_a       29.5937
_cell_length_b       29.5937
_cell_length_c       10.168
_cell_angle_alpha    90
_cell_angle_beta     90
_cell_angle_gamma    90

_symmetry_space_group_name_H-M    "P 1"
_symmetry_int_tables_number       1

loop_
  _symmetry_equiv_pos_as_xyz
  'x, y, z'

loop_
  _atom_site_label
  _atom_site_occupancy
  _atom_site_fract_x
  _atom_site_fract_y
  _atom_site_fract_z
  _atom_site_thermal_displace_type
  _atom_site_B_iso_or_equiv
  _atom_site_type_symbol
  O1       1.0000 0.19521  0.19528  0.23930  Biso   1.000  O
  O2       1.0000 0.14979  0.14970  0.35020  Biso   1.000  O
  O3       1.0000 0.04770  0.04748  0.10900  Biso   1.000  O
  C1       1.0000 0.14704  0.14699  0.11660  Biso   1.000  C
  C2       1.0000 0.11413  0.11449  0.11730  Biso   1.000  C
  H1       1.0000 0.10280  0.10390  0.19690  Biso   1.000  H
  C3       1.0000 0.16591  0.16589  0.24480  Biso   1.000  C
  N1       1.0000 0.17610  0.45980  0.57020  Biso   1.000  N
  N2       1.0000 0.17630  0.54020  0.57220  Biso   1.000  N
  C4       1.0000 0.13460  0.26300  0.44610  Biso   1.000  C
  C5       1.0000 0.12850  0.31070  0.43320  Biso   1.000  C
  C6       1.0000 0.18990  0.41540  0.59610  Biso   1.000  C
  C7       1.0000 0.13440  0.73650  0.44800  Biso   1.000  C
  C8       1.0000 0.12810  0.68940  0.43210  Biso   1.000  C
  C9       1.0000 0.19570  0.67910  0.55980  Biso   1.000  C
  C10      1.0000 0.20020  0.72690  0.57710  Biso   1.000  C
  C11      1.0000 0.23610  0.40580  0.66180  Biso   1.000  C
  F1       1.0000 0.24520  0.50070  0.62980  Biso   1.000  F
  B1       1.0000 0.19670  0.50000  0.64270  Biso   1.000  B
  F2       1.0000 0.19000  0.49980  0.78470  Biso   1.000  F
  C12      1.0000 0.19600  0.32010  0.44060  Biso   1.000  C
  C13      1.0000 0.20010  0.27310  0.42470  Biso   1.000  C
  C14      1.0000 0.12230  0.41400  0.55390  Biso   1.000  C
  C15      1.0000 0.19040  0.58440  0.40370  Biso   1.000  C
  C16      1.0000 0.23550  0.59400  0.33820  Biso   1.000  C
  C17      1.0000 0.07790  0.39960  0.59970  Biso   1.000  C
  O4       1.0000 0.80479  0.80472  0.23930  Biso   1.000  O
  O5       1.0000 0.85021  0.85030  0.35020  Biso   1.000  O
  O6       1.0000 0.95230  0.95252  0.10900  Biso   1.000  O
  C18      1.0000 0.85296  0.85301  0.11660  Biso   1.000  C
  C19      1.0000 0.88587  0.88551  0.11730  Biso   1.000  C
  H2       1.0000 0.89720  0.89610  0.19690  Biso   1.000  H
  C20      1.0000 0.83409  0.83411  0.24480  Biso   1.000  C
  N3       1.0000 0.82390  0.54020  0.57020  Biso   1.000  N
  N4       1.0000 0.82370  0.45980  0.57220  Biso   1.000  N
  C21      1.0000 0.86540  0.73700  0.44610  Biso   1.000  C
  C22      1.0000 0.87150  0.68930  0.43320  Biso   1.000  C
  C23      1.0000 0.81010  0.58460  0.59610  Biso   1.000  C
  C24      1.0000 0.86560  0.26350  0.44800  Biso   1.000  C
  C25      1.0000 0.87190  0.31060  0.43210  Biso   1.000  C
  C26      1.0000 0.80430  0.32090  0.55980  Biso   1.000  C
  C27      1.0000 0.79980  0.27310  0.57710  Biso   1.000  C
  C28      1.0000 0.76390  0.59420  0.66180  Biso   1.000  C
  F3       1.0000 0.75480  0.49930  0.62980  Biso   1.000  F
  B2       1.0000 0.80330  0.50000  0.64270  Biso   1.000  B
  F4       1.0000 0.81000  0.50020  0.78470  Biso   1.000  F
  C29      1.0000 0.80400  0.67990  0.44060  Biso   1.000  C
  C30      1.0000 0.79990  0.72690  0.42470  Biso   1.000  C
  C31      1.0000 0.87770  0.58600  0.55390  Biso   1.000  C
  C32      1.0000 0.80960  0.41560  0.40370  Biso   1.000  C
  C33      1.0000 0.76450  0.40600  0.33820  Biso   1.000  C
  C34      1.0000 0.92210  0.60040  0.59970  Biso   1.000  C
  O7       1.0000 0.80472  0.19521  0.23930  Biso   1.000  O
  O8       1.0000 0.85030  0.14979  0.35020  Biso   1.000  O
  O9       1.0000 0.95252  0.04770  0.10900  Biso   1.000  O
  C35      1.0000 0.85301  0.14704  0.11660  Biso   1.000  C
  C36      1.0000 0.88551  0.11413  0.11730  Biso   1.000  C
  H3       1.0000 0.89610  0.10280  0.19690  Biso   1.000  H
  C37      1.0000 0.83411  0.16591  0.24480  Biso   1.000  C
  N5       1.0000 0.54020  0.17610  0.57020  Biso   1.000  N
  N6       1.0000 0.45980  0.17630  0.57220  Biso   1.000  N
  C38      1.0000 0.73700  0.13460  0.44610  Biso   1.000  C
  C39      1.0000 0.68930  0.12850  0.43320  Biso   1.000  C
  C40      1.0000 0.58460  0.18990  0.59610  Biso   1.000  C
  C41      1.0000 0.26350  0.13440  0.44800  Biso   1.000  C
  C42      1.0000 0.31060  0.12810  0.43210  Biso   1.000  C
  C43      1.0000 0.32090  0.19570  0.55980  Biso   1.000  C
  C44      1.0000 0.27310  0.20020  0.57710  Biso   1.000  C
  C45      1.0000 0.59420  0.23610  0.66180  Biso   1.000  C
  F5       1.0000 0.49930  0.24520  0.62980  Biso   1.000  F
  B3       1.0000 0.50000  0.19670  0.64270  Biso   1.000  B
  F6       1.0000 0.50020  0.19000  0.78470  Biso   1.000  F
  C46      1.0000 0.67990  0.19600  0.44060  Biso   1.000  C
  C47      1.0000 0.72690  0.20010  0.42470  Biso   1.000  C
  C48      1.0000 0.58600  0.12230  0.55390  Biso   1.000  C
  C49      1.0000 0.41560  0.19040  0.40370  Biso   1.000  C
  C50      1.0000 0.40600  0.23550  0.33820  Biso   1.000  C
  C51      1.0000 0.60040  0.07790  0.59970  Biso   1.000  C
  O10      1.0000 0.19528  0.80479  0.23930  Biso   1.000  O
  O11      1.0000 0.14970  0.85021  0.35020  Biso   1.000  O
  O12      1.0000 0.04748  0.95230  0.10900  Biso   1.000  O
  C52      1.0000 0.14699  0.85296  0.11660  Biso   1.000  C
  C53      1.0000 0.11449  0.88587  0.11730  Biso   1.000  C
  H4       1.0000 0.10390  0.89720  0.19690  Biso   1.000  H
  C54      1.0000 0.16589  0.83409  0.24480  Biso   1.000  C
  N7       1.0000 0.45980  0.82390  0.57020  Biso   1.000  N
  N8       1.0000 0.54020  0.82370  0.57220  Biso   1.000  N
  C55      1.0000 0.26300  0.86540  0.44610  Biso   1.000  C
  C56      1.0000 0.31070  0.87150  0.43320  Biso   1.000  C
  C57      1.0000 0.41540  0.81010  0.59610  Biso   1.000  C
  C58      1.0000 0.73650  0.86560  0.44800  Biso   1.000  C
  C59      1.0000 0.68940  0.87190  0.43210  Biso   1.000  C
  C60      1.0000 0.67910  0.80430  0.55980  Biso   1.000  C
  C61      1.0000 0.72690  0.79980  0.57710  Biso   1.000  C
  C62      1.0000 0.40580  0.76390  0.66180  Biso   1.000  C
  F7       1.0000 0.50070  0.75480  0.62980  Biso   1.000  F
  B4       1.0000 0.50000  0.80330  0.64270  Biso   1.000  B
  F8       1.0000 0.49980  0.81000  0.78470  Biso   1.000  F
  C63      1.0000 0.32010  0.80400  0.44060  Biso   1.000  C
  C64      1.0000 0.27310  0.79990  0.42470  Biso   1.000  C
  C65      1.0000 0.41400  0.87770  0.55390  Biso   1.000  C
  C66      1.0000 0.58440  0.80960  0.40370  Biso   1.000  C
  C67      1.0000 0.59400  0.76450  0.33820  Biso   1.000  C
  C68      1.0000 0.39960  0.92210  0.59970  Biso   1.000  C
  O13      1.0000 0.80479  0.80472  0.76070  Biso   1.000  O
  O14      1.0000 0.85021  0.85030  0.64980  Biso   1.000  O
  O15      1.0000 0.95230  0.95252  0.89100  Biso   1.000  O
  C69      1.0000 0.85296  0.85301  0.88340  Biso   1.000  C
  C70      1.0000 0.88587  0.88551  0.88270  Biso   1.000  C
  H5       1.0000 0.89720  0.89610  0.80310  Biso   1.000  H
  C71      1.0000 0.83409  0.83411  0.75520  Biso   1.000  C
  N9       1.0000 0.82390  0.54020  0.42980  Biso   1.000  N
  N10      1.0000 0.82370  0.45980  0.42780  Biso   1.000  N
  C72      1.0000 0.86540  0.73700  0.55390  Biso   1.000  C
  C73      1.0000 0.87150  0.68930  0.56680  Biso   1.000  C
  C74      1.0000 0.81010  0.58460  0.40390  Biso   1.000  C
  C75      1.0000 0.86560  0.26350  0.55200  Biso   1.000  C
  C76      1.0000 0.87190  0.31060  0.56790  Biso   1.000  C
  C77      1.0000 0.80430  0.32090  0.44020  Biso   1.000  C
  C78      1.0000 0.79980  0.27310  0.42290  Biso   1.000  C
  C79      1.0000 0.76390  0.59420  0.33820  Biso   1.000  C
  F9       1.0000 0.75480  0.49930  0.37020  Biso   1.000  F
  B5       1.0000 0.80330  0.50000  0.35730  Biso   1.000  B
  F10      1.0000 0.81000  0.50020  0.21530  Biso   1.000  F
  C80      1.0000 0.80400  0.67990  0.55940  Biso   1.000  C
  C81      1.0000 0.79990  0.72690  0.57530  Biso   1.000  C
  C82      1.0000 0.87770  0.58600  0.44610  Biso   1.000  C
  C83      1.0000 0.80960  0.41560  0.59630  Biso   1.000  C
  C84      1.0000 0.76450  0.40600  0.66180  Biso   1.000  C
  C85      1.0000 0.92210  0.60040  0.40030  Biso   1.000  C
  O16      1.0000 0.19521  0.19528  0.76070  Biso   1.000  O
  O17      1.0000 0.14979  0.14970  0.64980  Biso   1.000  O
  O18      1.0000 0.04770  0.04748  0.89100  Biso   1.000  O
  C86      1.0000 0.14704  0.14699  0.88340  Biso   1.000  C
  C87      1.0000 0.11413  0.11449  0.88270  Biso   1.000  C
  H6       1.0000 0.10280  0.10390  0.80310  Biso   1.000  H
  C88      1.0000 0.16591  0.16589  0.75520  Biso   1.000  C
  N11      1.0000 0.17610  0.45980  0.42980  Biso   1.000  N
  N12      1.0000 0.17630  0.54020  0.42780  Biso   1.000  N
  C89      1.0000 0.13460  0.26300  0.55390  Biso   1.000  C
  C90      1.0000 0.12850  0.31070  0.56680  Biso   1.000  C
  C91      1.0000 0.18990  0.41540  0.40390  Biso   1.000  C
  C92      1.0000 0.13440  0.73650  0.55200  Biso   1.000  C
  C93      1.0000 0.12810  0.68940  0.56790  Biso   1.000  C
  C94      1.0000 0.19570  0.67910  0.44020  Biso   1.000  C
  C95      1.0000 0.20020  0.72690  0.42290  Biso   1.000  C
  C96      1.0000 0.23610  0.40580  0.33820  Biso   1.000  C
  F11      1.0000 0.24520  0.50070  0.37020  Biso   1.000  F
  B6       1.0000 0.19670  0.50000  0.35730  Biso   1.000  B
  F12      1.0000 0.19000  0.49980  0.21530  Biso   1.000  F
  C97      1.0000 0.19600  0.32010  0.55940  Biso   1.000  C
  C98      1.0000 0.20010  0.27310  0.57530  Biso   1.000  C
  C99      1.0000 0.12230  0.41400  0.44610  Biso   1.000  C
  C100     1.0000 0.19040  0.58440  0.59630  Biso   1.000  C
  C101     1.0000 0.23550  0.59400  0.66180  Biso   1.000  C
  C102     1.0000 0.07790  0.39960  0.40030  Biso   1.000  C
  O19      1.0000 0.19528  0.80479  0.76070  Biso   1.000  O
  O20      1.0000 0.14970  0.85021  0.64980  Biso   1.000  O
  O21      1.0000 0.04748  0.95230  0.89100  Biso   1.000  O
  C103     1.0000 0.14699  0.85296  0.88340  Biso   1.000  C
  C104     1.0000 0.11449  0.88587  0.88270  Biso   1.000  C
  H7       1.0000 0.10390  0.89720  0.80310  Biso   1.000  H
  C105     1.0000 0.16589  0.83409  0.75520  Biso   1.000  C
  N13      1.0000 0.45980  0.82390  0.42980  Biso   1.000  N
  N14      1.0000 0.54020  0.82370  0.42780  Biso   1.000  N
  C106     1.0000 0.26300  0.86540  0.55390  Biso   1.000  C
  C107     1.0000 0.31070  0.87150  0.56680  Biso   1.000  C
  C108     1.0000 0.41540  0.81010  0.40390  Biso   1.000  C
  C109     1.0000 0.73650  0.86560  0.55200  Biso   1.000  C
  C110     1.0000 0.68940  0.87190  0.56790  Biso   1.000  C
  C111     1.0000 0.67910  0.80430  0.44020  Biso   1.000  C
  C112     1.0000 0.72690  0.79980  0.42290  Biso   1.000  C
  C113     1.0000 0.40580  0.76390  0.33820  Biso   1.000  C
  F13      1.0000 0.50070  0.75480  0.37020  Biso   1.000  F
  B7       1.0000 0.50000  0.80330  0.35730  Biso   1.000  B
  F14      1.0000 0.49980  0.81000  0.21530  Biso   1.000  F
  C114     1.0000 0.32010  0.80400  0.55940  Biso   1.000  C
  C115     1.0000 0.27310  0.79990  0.57530  Biso   1.000  C
  C116     1.0000 0.41400  0.87770  0.44610  Biso   1.000  C
  C117     1.0000 0.58440  0.80960  0.59630  Biso   1.000  C
  C118     1.0000 0.59400  0.76450  0.66180  Biso   1.000  C
  C119     1.0000 0.39960  0.92210  0.40030  Biso   1.000  C
  O22      1.0000 0.80472  0.19521  0.76070  Biso   1.000  O
  O23      1.0000 0.85030  0.14979  0.64980  Biso   1.000  O
  O24      1.0000 0.95252  0.04770  0.89100  Biso   1.000  O
  C120     1.0000 0.85301  0.14704  0.88340  Biso   1.000  C
  C121     1.0000 0.88551  0.11413  0.88270  Biso   1.000  C
  H8       1.0000 0.89610  0.10280  0.80310  Biso   1.000  H
  C122     1.0000 0.83411  0.16591  0.75520  Biso   1.000  C
  N15      1.0000 0.54020  0.17610  0.42980  Biso   1.000  N
  N16      1.0000 0.45980  0.17630  0.42780  Biso   1.000  N
  C123     1.0000 0.73700  0.13460  0.55390  Biso   1.000  C
  C124     1.0000 0.68930  0.12850  0.56680  Biso   1.000  C
  C125     1.0000 0.58460  0.18990  0.40390  Biso   1.000  C
  C126     1.0000 0.26350  0.13440  0.55200  Biso   1.000  C
  C127     1.0000 0.31060  0.12810  0.56790  Biso   1.000  C
  C128     1.0000 0.32090  0.19570  0.44020  Biso   1.000  C
  C129     1.0000 0.27310  0.20020  0.42290  Biso   1.000  C
  C130     1.0000 0.59420  0.23610  0.33820  Biso   1.000  C
  F15      1.0000 0.49930  0.24520  0.37020  Biso   1.000  F
  B8       1.0000 0.50000  0.19670  0.35730  Biso   1.000  B
  F16      1.0000 0.50020  0.19000  0.21530  Biso   1.000  F
  C131     1.0000 0.67990  0.19600  0.55940  Biso   1.000  C
  C132     1.0000 0.72690  0.20010  0.57530  Biso   1.000  C
  C133     1.0000 0.58600  0.12230  0.44610  Biso   1.000  C
  C134     1.0000 0.41560  0.19040  0.59630  Biso   1.000  C
  C135     1.0000 0.40600  0.23550  0.66180  Biso   1.000  C
  C136     1.0000 0.60040  0.07790  0.40030  Biso   1.000  C
  Zn1      1.0000 0.00000  0.00000  0.14489  Biso   1.000  Zn
  Zn2      1.0000 0.00000  0.00000  0.85511  Biso   1.000  Zn
  Zn3      1.0000 0.17847  0.17839  0.50000  Biso   1.000  Zn
  N17      1.0000 0.16859  0.24615  0.50000  Biso   1.000  N
  N18      1.0000 0.16841  0.75377  0.50000  Biso   1.000  N
  C137     1.0000 0.16080  0.33840  0.50000  Biso   1.000  C
  C138     1.0000 0.15630  0.38710  0.50000  Biso   1.000  C
  C139     1.0000 0.13440  0.46070  0.50000  Biso   1.000  C
  C140     1.0000 0.13450  0.53890  0.50000  Biso   1.000  C
  C141     1.0000 0.12260  0.58620  0.50000  Biso   1.000  C
  C142     1.0000 0.15650  0.61390  0.50000  Biso   1.000  C
  C143     1.0000 0.16080  0.66140  0.50000  Biso   1.000  C
  Zn4      1.0000 0.82153  0.82161  0.50000  Biso   1.000  Zn
  N19      1.0000 0.83141  0.75385  0.50000  Biso   1.000  N
  N20      1.0000 0.83159  0.24623  0.50000  Biso   1.000  N
  C144     1.0000 0.83920  0.66160  0.50000  Biso   1.000  C
  C145     1.0000 0.84370  0.61290  0.50000  Biso   1.000  C
  C146     1.0000 0.86560  0.53930  0.50000  Biso   1.000  C
  C147     1.0000 0.86550  0.46110  0.50000  Biso   1.000  C
  C148     1.0000 0.87740  0.41380  0.50000  Biso   1.000  C
  C149     1.0000 0.84350  0.38610  0.50000  Biso   1.000  C
  C150     1.0000 0.83920  0.33860  0.50000  Biso   1.000  C
  Zn5      1.0000 0.82161  0.17847  0.50000  Biso   1.000  Zn
  N21      1.0000 0.75385  0.16859  0.50000  Biso   1.000  N
  N22      1.0000 0.24623  0.16841  0.50000  Biso   1.000  N
  C151     1.0000 0.66160  0.16080  0.50000  Biso   1.000  C
  C152     1.0000 0.61290  0.15630  0.50000  Biso   1.000  C
  C153     1.0000 0.53930  0.13440  0.50000  Biso   1.000  C
  C154     1.0000 0.46110  0.13450  0.50000  Biso   1.000  C
  C155     1.0000 0.41380  0.12260  0.50000  Biso   1.000  C
  C156     1.0000 0.38610  0.15650  0.50000  Biso   1.000  C
  C157     1.0000 0.33860  0.16080  0.50000  Biso   1.000  C
  Zn6      1.0000 0.17839  0.82153  0.50000  Biso   1.000  Zn
  N23      1.0000 0.24615  0.83141  0.50000  Biso   1.000  N
  N24      1.0000 0.75377  0.83159  0.50000  Biso   1.000  N
  C158     1.0000 0.33840  0.83920  0.50000  Biso   1.000  C
  C159     1.0000 0.38710  0.84370  0.50000  Biso   1.000  C
  C160     1.0000 0.46070  0.86560  0.50000  Biso   1.000  C
  C161     1.0000 0.53890  0.86550  0.50000  Biso   1.000  C
  C162     1.0000 0.58620  0.87740  0.50000  Biso   1.000  C
  C163     1.0000 0.61390  0.84350  0.50000  Biso   1.000  C
  C164     1.0000 0.66140  0.83920  0.50000  Biso   1.000  C
  C165     1.0000 0.16296  0.16312  0.00000  Biso   1.000  C
  H9       1.0000 0.18500  0.18550  0.00000  Biso   1.000  H
  C166     1.0000 0.09763  0.09735  0.00000  Biso   1.000  C
  C167     1.0000 0.06072  0.06116  0.00000  Biso   1.000  C
  C168     1.0000 0.83704  0.83688  0.00000  Biso   1.000  C
  H10      1.0000 0.81500  0.81450  0.00000  Biso   1.000  H
  C169     1.0000 0.90237  0.90265  0.00000  Biso   1.000  C
  C170     1.0000 0.93928  0.93884  0.00000  Biso   1.000  C
  C171     1.0000 0.83688  0.16296  0.00000  Biso   1.000  C
  H11      1.0000 0.81450  0.18500  0.00000  Biso   1.000  H
  C172     1.0000 0.90265  0.09763  0.00000  Biso   1.000  C
  C173     1.0000 0.93884  0.06072  0.00000  Biso   1.000  C
  C174     1.0000 0.16312  0.83704  0.00000  Biso   1.000  C
  H12      1.0000 0.18550  0.81500  0.00000  Biso   1.000  H
  C175     1.0000 0.09735  0.90237  0.00000  Biso   1.000  C
  C176     1.0000 0.06116  0.93928  0.00000  Biso   1.000  C
  O25      1.0000 0.69521  0.69528  0.73930  Biso   1.000  O
  O26      1.0000 0.64979  0.64970  0.85020  Biso   1.000  O
  O27      1.0000 0.54770  0.54748  0.60900  Biso   1.000  O
  C177     1.0000 0.64704  0.64699  0.61660  Biso   1.000  C
  C178     1.0000 0.61413  0.61449  0.61730  Biso   1.000  C
  H13      1.0000 0.60280  0.60390  0.69690  Biso   1.000  H
  C179     1.0000 0.66591  0.66589  0.74480  Biso   1.000  C
  N25      1.0000 0.67610  0.95980  0.07020  Biso   1.000  N
  N26      1.0000 0.67630  0.04020  0.07220  Biso   1.000  N
  C180     1.0000 0.63460  0.76300  0.94610  Biso   1.000  C
  C181     1.0000 0.62850  0.81070  0.93320  Biso   1.000  C
  C182     1.0000 0.68990  0.91540  0.09610  Biso   1.000  C
  C183     1.0000 0.63440  0.23650  0.94800  Biso   1.000  C
  C184     1.0000 0.62810  0.18940  0.93210  Biso   1.000  C
  C185     1.0000 0.69570  0.17910  0.05980  Biso   1.000  C
  C186     1.0000 0.70020  0.22690  0.07710  Biso   1.000  C
  C187     1.0000 0.73610  0.90580  0.16180  Biso   1.000  C
  F17      1.0000 0.74520  0.00070  0.12980  Biso   1.000  F
  B9       1.0000 0.69670  0.00000  0.14270  Biso   1.000  B
  F18      1.0000 0.69000  0.99980  0.28470  Biso   1.000  F
  C188     1.0000 0.69600  0.82010  0.94060  Biso   1.000  C
  C189     1.0000 0.70010  0.77310  0.92470  Biso   1.000  C
  C190     1.0000 0.62230  0.91400  0.05390  Biso   1.000  C
  C191     1.0000 0.69040  0.08440  0.90370  Biso   1.000  C
  C192     1.0000 0.73550  0.09400  0.83820  Biso   1.000  C
  C193     1.0000 0.57790  0.89960  0.09970  Biso   1.000  C
  O28      1.0000 0.30479  0.30472  0.73930  Biso   1.000  O
  O29      1.0000 0.35021  0.35030  0.85020  Biso   1.000  O
  O30      1.0000 0.45230  0.45252  0.60900  Biso   1.000  O
  C194     1.0000 0.35296  0.35301  0.61660  Biso   1.000  C
  C195     1.0000 0.38587  0.38551  0.61730  Biso   1.000  C
  H14      1.0000 0.39720  0.39610  0.69690  Biso   1.000  H
  C196     1.0000 0.33409  0.33411  0.74480  Biso   1.000  C
  N27      1.0000 0.32390  0.04020  0.07020  Biso   1.000  N
  N28      1.0000 0.32370  0.95980  0.07220  Biso   1.000  N
  C197     1.0000 0.36540  0.23700  0.94610  Biso   1.000  C
  C198     1.0000 0.37150  0.18930  0.93320  Biso   1.000  C
  C199     1.0000 0.31010  0.08460  0.09610  Biso   1.000  C
  C200     1.0000 0.36560  0.76350  0.94800  Biso   1.000  C
  C201     1.0000 0.37190  0.81060  0.93210  Biso   1.000  C
  C202     1.0000 0.30430  0.82090  0.05980  Biso   1.000  C
  C203     1.0000 0.29980  0.77310  0.07710  Biso   1.000  C
  C204     1.0000 0.26390  0.09420  0.16180  Biso   1.000  C
  F19      1.0000 0.25480  0.99930  0.12980  Biso   1.000  F
  B10      1.0000 0.30330  0.00000  0.14270  Biso   1.000  B
  F20      1.0000 0.31000  0.00020  0.28470  Biso   1.000  F
  C205     1.0000 0.30400  0.17990  0.94060  Biso   1.000  C
  C206     1.0000 0.29990  0.22690  0.92470  Biso   1.000  C
  C207     1.0000 0.37770  0.08600  0.05390  Biso   1.000  C
  C208     1.0000 0.30960  0.91560  0.90370  Biso   1.000  C
  C209     1.0000 0.26450  0.90600  0.83820  Biso   1.000  C
  C210     1.0000 0.42210  0.10040  0.09970  Biso   1.000  C
  O31      1.0000 0.30472  0.69521  0.73930  Biso   1.000  O
  O32      1.0000 0.35030  0.64979  0.85020  Biso   1.000  O
  O33      1.0000 0.45252  0.54770  0.60900  Biso   1.000  O
  C211     1.0000 0.35301  0.64704  0.61660  Biso   1.000  C
  C212     1.0000 0.38551  0.61413  0.61730  Biso   1.000  C
  H15      1.0000 0.39610  0.60280  0.69690  Biso   1.000  H
  C213     1.0000 0.33411  0.66591  0.74480  Biso   1.000  C
  N29      1.0000 0.04020  0.67610  0.07020  Biso   1.000  N
  N30      1.0000 0.95980  0.67630  0.07220  Biso   1.000  N
  C214     1.0000 0.23700  0.63460  0.94610  Biso   1.000  C
  C215     1.0000 0.18930  0.62850  0.93320  Biso   1.000  C
  C216     1.0000 0.08460  0.68990  0.09610  Biso   1.000  C
  C217     1.0000 0.76350  0.63440  0.94800  Biso   1.000  C
  C218     1.0000 0.81060  0.62810  0.93210  Biso   1.000  C
  C219     1.0000 0.82090  0.69570  0.05980  Biso   1.000  C
  C220     1.0000 0.77310  0.70020  0.07710  Biso   1.000  C
  C221     1.0000 0.09420  0.73610  0.16180  Biso   1.000  C
  F21      1.0000 0.99930  0.74520  0.12980  Biso   1.000  F
  B11      1.0000 0.00000  0.69670  0.14270  Biso   1.000  B
  F22      1.0000 0.00020  0.69000  0.28470  Biso   1.000  F
  C222     1.0000 0.17990  0.69600  0.94060  Biso   1.000  C
  C223     1.0000 0.22690  0.70010  0.92470  Biso   1.000  C
  C224     1.0000 0.08600  0.62230  0.05390  Biso   1.000  C
  C225     1.0000 0.91560  0.69040  0.90370  Biso   1.000  C
  C226     1.0000 0.90600  0.73550  0.83820  Biso   1.000  C
  C227     1.0000 0.10040  0.57790  0.09970  Biso   1.000  C
  O34      1.0000 0.69528  0.30479  0.73930  Biso   1.000  O
  O35      1.0000 0.64970  0.35021  0.85020  Biso   1.000  O
  O36      1.0000 0.54748  0.45230  0.60900  Biso   1.000  O
  C228     1.0000 0.64699  0.35296  0.61660  Biso   1.000  C
  C229     1.0000 0.61449  0.38587  0.61730  Biso   1.000  C
  H16      1.0000 0.60390  0.39720  0.69690  Biso   1.000  H
  C230     1.0000 0.66589  0.33409  0.74480  Biso   1.000  C
  N31      1.0000 0.95980  0.32390  0.07020  Biso   1.000  N
  N32      1.0000 0.04020  0.32370  0.07220  Biso   1.000  N
  C231     1.0000 0.76300  0.36540  0.94610  Biso   1.000  C
  C232     1.0000 0.81070  0.37150  0.93320  Biso   1.000  C
  C233     1.0000 0.91540  0.31010  0.09610  Biso   1.000  C
  C234     1.0000 0.23650  0.36560  0.94800  Biso   1.000  C
  C235     1.0000 0.18940  0.37190  0.93210  Biso   1.000  C
  C236     1.0000 0.17910  0.30430  0.05980  Biso   1.000  C
  C237     1.0000 0.22690  0.29980  0.07710  Biso   1.000  C
  C238     1.0000 0.90580  0.26390  0.16180  Biso   1.000  C
  F23      1.0000 0.00070  0.25480  0.12980  Biso   1.000  F
  B12      1.0000 0.00000  0.30330  0.14270  Biso   1.000  B
  F24      1.0000 0.99980  0.31000  0.28470  Biso   1.000  F
  C239     1.0000 0.82010  0.30400  0.94060  Biso   1.000  C
  C240     1.0000 0.77310  0.29990  0.92470  Biso   1.000  C
  C241     1.0000 0.91400  0.37770  0.05390  Biso   1.000  C
  C242     1.0000 0.08440  0.30960  0.90370  Biso   1.000  C
  C243     1.0000 0.09400  0.26450  0.83820  Biso   1.000  C
  C244     1.0000 0.89960  0.42210  0.09970  Biso   1.000  C
  O37      1.0000 0.30479  0.30472  0.26070  Biso   1.000  O
  O38      1.0000 0.35021  0.35030  0.14980  Biso   1.000  O
  O39      1.0000 0.45230  0.45252  0.39100  Biso   1.000  O
  C245     1.0000 0.35296  0.35301  0.38340  Biso   1.000  C
  C246     1.0000 0.38587  0.38551  0.38270  Biso   1.000  C
  H17      1.0000 0.39720  0.39610  0.30310  Biso   1.000  H
  C247     1.0000 0.33409  0.33411  0.25520  Biso   1.000  C
  N33      1.0000 0.32390  0.04020  0.92980  Biso   1.000  N
  N34      1.0000 0.32370  0.95980  0.92780  Biso   1.000  N
  C248     1.0000 0.36540  0.23700  0.05390  Biso   1.000  C
  C249     1.0000 0.37150  0.18930  0.06680  Biso   1.000  C
  C250     1.0000 0.31010  0.08460  0.90390  Biso   1.000  C
  C251     1.0000 0.36560  0.76350  0.05200  Biso   1.000  C
  C252     1.0000 0.37190  0.81060  0.06790  Biso   1.000  C
  C253     1.0000 0.30430  0.82090  0.94020  Biso   1.000  C
  C254     1.0000 0.29980  0.77310  0.92290  Biso   1.000  C
  C255     1.0000 0.26390  0.09420  0.83820  Biso   1.000  C
  F25      1.0000 0.25480  0.99930  0.87020  Biso   1.000  F
  B13      1.0000 0.30330  0.00000  0.85730  Biso   1.000  B
  F26      1.0000 0.31000  0.00020  0.71530  Biso   1.000  F
  C256     1.0000 0.30400  0.17990  0.05940  Biso   1.000  C
  C257     1.0000 0.29990  0.22690  0.07530  Biso   1.000  C
  C258     1.0000 0.37770  0.08600  0.94610  Biso   1.000  C
  C259     1.0000 0.30960  0.91560  0.09630  Biso   1.000  C
  C260     1.0000 0.26450  0.90600  0.16180  Biso   1.000  C
  C261     1.0000 0.42210  0.10040  0.90030  Biso   1.000  C
  O40      1.0000 0.69521  0.69528  0.26070  Biso   1.000  O
  O41      1.0000 0.64979  0.64970  0.14980  Biso   1.000  O
  O42      1.0000 0.54770  0.54748  0.39100  Biso   1.000  O
  C262     1.0000 0.64704  0.64699  0.38340  Biso   1.000  C
  C263     1.0000 0.61413  0.61449  0.38270  Biso   1.000  C
  H18      1.0000 0.60280  0.60390  0.30310  Biso   1.000  H
  C264     1.0000 0.66591  0.66589  0.25520  Biso   1.000  C
  N35      1.0000 0.67610  0.95980  0.92980  Biso   1.000  N
  N36      1.0000 0.67630  0.04020  0.92780  Biso   1.000  N
  C265     1.0000 0.63460  0.76300  0.05390  Biso   1.000  C
  C266     1.0000 0.62850  0.81070  0.06680  Biso   1.000  C
  C267     1.0000 0.68990  0.91540  0.90390  Biso   1.000  C
  C268     1.0000 0.63440  0.23650  0.05200  Biso   1.000  C
  C269     1.0000 0.62810  0.18940  0.06790  Biso   1.000  C
  C270     1.0000 0.69570  0.17910  0.94020  Biso   1.000  C
  C271     1.0000 0.70020  0.22690  0.92290  Biso   1.000  C
  C272     1.0000 0.73610  0.90580  0.83820  Biso   1.000  C
  F27      1.0000 0.74520  0.00070  0.87020  Biso   1.000  F
  B14      1.0000 0.69670  0.00000  0.85730  Biso   1.000  B
  F28      1.0000 0.69000  0.99980  0.71530  Biso   1.000  F
  C273     1.0000 0.69600  0.82010  0.05940  Biso   1.000  C
  C274     1.0000 0.70010  0.77310  0.07530  Biso   1.000  C
  C275     1.0000 0.62230  0.91400  0.94610  Biso   1.000  C
  C276     1.0000 0.69040  0.08440  0.09630  Biso   1.000  C
  C277     1.0000 0.73550  0.09400  0.16180  Biso   1.000  C
  C278     1.0000 0.57790  0.89960  0.90030  Biso   1.000  C
  O43      1.0000 0.69528  0.30479  0.26070  Biso   1.000  O
  O44      1.0000 0.64970  0.35021  0.14980  Biso   1.000  O
  O45      1.0000 0.54748  0.45230  0.39100  Biso   1.000  O
  C279     1.0000 0.64699  0.35296  0.38340  Biso   1.000  C
  C280     1.0000 0.61449  0.38587  0.38270  Biso   1.000  C
  H19      1.0000 0.60390  0.39720  0.30310  Biso   1.000  H
  C281     1.0000 0.66589  0.33409  0.25520  Biso   1.000  C
  N37      1.0000 0.95980  0.32390  0.92980  Biso   1.000  N
  N38      1.0000 0.04020  0.32370  0.92780  Biso   1.000  N
  C282     1.0000 0.76300  0.36540  0.05390  Biso   1.000  C
  C283     1.0000 0.81070  0.37150  0.06680  Biso   1.000  C
  C284     1.0000 0.91540  0.31010  0.90390  Biso   1.000  C
  C285     1.0000 0.23650  0.36560  0.05200  Biso   1.000  C
  C286     1.0000 0.18940  0.37190  0.06790  Biso   1.000  C
  C287     1.0000 0.17910  0.30430  0.94020  Biso   1.000  C
  C288     1.0000 0.22690  0.29980  0.92290  Biso   1.000  C
  C289     1.0000 0.90580  0.26390  0.83820  Biso   1.000  C
  F29      1.0000 0.00070  0.25480  0.87020  Biso   1.000  F
  B15      1.0000 0.00000  0.30330  0.85730  Biso   1.000  B
  F30      1.0000 0.99980  0.31000  0.71530  Biso   1.000  F
  C290     1.0000 0.82010  0.30400  0.05940  Biso   1.000  C
  C291     1.0000 0.77310  0.29990  0.07530  Biso   1.000  C
  C292     1.0000 0.91400  0.37770  0.94610  Biso   1.000  C
  C293     1.0000 0.08440  0.30960  0.09630  Biso   1.000  C
  C294     1.0000 0.09400  0.26450  0.16180  Biso   1.000  C
  C295     1.0000 0.89960  0.42210  0.90030  Biso   1.000  C
  O46      1.0000 0.30472  0.69521  0.26070  Biso   1.000  O
  O47      1.0000 0.35030  0.64979  0.14980  Biso   1.000  O
  O48      1.0000 0.45252  0.54770  0.39100  Biso   1.000  O
  C296     1.0000 0.35301  0.64704  0.38340  Biso   1.000  C
  C297     1.0000 0.38551  0.61413  0.38270  Biso   1.000  C
  H20      1.0000 0.39610  0.60280  0.30310  Biso   1.000  H
  C298     1.0000 0.33411  0.66591  0.25520  Biso   1.000  C
  N39      1.0000 0.04020  0.67610  0.92980  Biso   1.000  N
  N40      1.0000 0.95980  0.67630  0.92780  Biso   1.000  N
  C299     1.0000 0.23700  0.63460  0.05390  Biso   1.000  C
  C300     1.0000 0.18930  0.62850  0.06680  Biso   1.000  C
  C301     1.0000 0.08460  0.68990  0.90390  Biso   1.000  C
  C302     1.0000 0.76350  0.63440  0.05200  Biso   1.000  C
  C303     1.0000 0.81060  0.62810  0.06790  Biso   1.000  C
  C304     1.0000 0.82090  0.69570  0.94020  Biso   1.000  C
  C305     1.0000 0.77310  0.70020  0.92290  Biso   1.000  C
  C306     1.0000 0.09420  0.73610  0.83820  Biso   1.000  C
  F31      1.0000 0.99930  0.74520  0.87020  Biso   1.000  F
  B16      1.0000 0.00000  0.69670  0.85730  Biso   1.000  B
  F32      1.0000 0.00020  0.69000  0.71530  Biso   1.000  F
  C307     1.0000 0.17990  0.69600  0.05940  Biso   1.000  C
  C308     1.0000 0.22690  0.70010  0.07530  Biso   1.000  C
  C309     1.0000 0.08600  0.62230  0.94610  Biso   1.000  C
  C310     1.0000 0.91560  0.69040  0.09630  Biso   1.000  C
  C311     1.0000 0.90600  0.73550  0.16180  Biso   1.000  C
  C312     1.0000 0.10040  0.57790  0.90030  Biso   1.000  C
  Zn7      1.0000 0.50000  0.50000  0.64489  Biso   1.000  Zn
  Zn8      1.0000 0.50000  0.50000  0.35511  Biso   1.000  Zn
  Zn9      1.0000 0.67847  0.67839  0.00000  Biso   1.000  Zn
  N41      1.0000 0.66859  0.74615  0.00000  Biso   1.000  N
  N42      1.0000 0.66841  0.25377  0.00000  Biso   1.000  N
  C313     1.0000 0.66080  0.83840  0.00000  Biso   1.000  C
  C314     1.0000 0.65630  0.88710  0.00000  Biso   1.000  C
  C315     1.0000 0.63440  0.96070  0.00000  Biso   1.000  C
  C316     1.0000 0.63450  0.03890  0.00000  Biso   1.000  C
  C317     1.0000 0.62260  0.08620  0.00000  Biso   1.000  C
  C318     1.0000 0.65650  0.11390  0.00000  Biso   1.000  C
  C319     1.0000 0.66080  0.16140  0.00000  Biso   1.000  C
  Zn10     1.0000 0.32153  0.32161  0.00000  Biso   1.000  Zn
  N43      1.0000 0.33141  0.25385  0.00000  Biso   1.000  N
  N44      1.0000 0.33159  0.74623  0.00000  Biso   1.000  N
  C320     1.0000 0.33920  0.16160  0.00000  Biso   1.000  C
  C321     1.0000 0.34370  0.11290  0.00000  Biso   1.000  C
  C322     1.0000 0.36560  0.03930  0.00000  Biso   1.000  C
  C323     1.0000 0.36550  0.96110  0.00000  Biso   1.000  C
  C324     1.0000 0.37740  0.91380  0.00000  Biso   1.000  C
  C325     1.0000 0.34350  0.88610  0.00000  Biso   1.000  C
  C326     1.0000 0.33920  0.83860  0.00000  Biso   1.000  C
  Zn11     1.0000 0.32161  0.67847  0.00000  Biso   1.000  Zn
  N45      1.0000 0.25385  0.66859  0.00000  Biso   1.000  N
  N46      1.0000 0.74623  0.66841  0.00000  Biso   1.000  N
  C327     1.0000 0.16160  0.66080  0.00000  Biso   1.000  C
  C328     1.0000 0.11290  0.65630  0.00000  Biso   1.000  C
  C329     1.0000 0.03930  0.63440  0.00000  Biso   1.000  C
  C330     1.0000 0.96110  0.63450  0.00000  Biso   1.000  C
  C331     1.0000 0.91380  0.62260  0.00000  Biso   1.000  C
  C332     1.0000 0.88610  0.65650  0.00000  Biso   1.000  C
  C333     1.0000 0.83860  0.66080  0.00000  Biso   1.000  C
  Zn12     1.0000 0.67839  0.32153  0.00000  Biso   1.000  Zn
  N47      1.0000 0.74615  0.33141  0.00000  Biso   1.000  N
  N48      1.0000 0.25377  0.33159  0.00000  Biso   1.000  N
  C334     1.0000 0.83840  0.33920  0.00000  Biso   1.000  C
  C335     1.0000 0.88710  0.34370  0.00000  Biso   1.000  C
  C336     1.0000 0.96070  0.36560  0.00000  Biso   1.000  C
  C337     1.0000 0.03890  0.36550  0.00000  Biso   1.000  C
  C338     1.0000 0.08620  0.37740  0.00000  Biso   1.000  C
  C339     1.0000 0.11390  0.34350  0.00000  Biso   1.000  C
  C340     1.0000 0.16140  0.33920  0.00000  Biso   1.000  C
  C341     1.0000 0.66296  0.66312  0.50000  Biso   1.000  C
  H21      1.0000 0.68500  0.68550  0.50000  Biso   1.000  H
  C342     1.0000 0.59763  0.59735  0.50000  Biso   1.000  C
  C343     1.0000 0.56072  0.56116  0.50000  Biso   1.000  C
  C344     1.0000 0.33704  0.33688  0.50000  Biso   1.000  C
  H22      1.0000 0.31500  0.31450  0.50000  Biso   1.000  H
  C345     1.0000 0.40237  0.40265  0.50000  Biso   1.000  C
  C346     1.0000 0.43928  0.43884  0.50000  Biso   1.000  C
  C347     1.0000 0.33688  0.66296  0.50000  Biso   1.000  C
  H23      1.0000 0.31450  0.68500  0.50000  Biso   1.000  H
  C348     1.0000 0.40265  0.59763  0.50000  Biso   1.000  C
  C349     1.0000 0.43884  0.56072  0.50000  Biso   1.000  C
  C350     1.0000 0.66312  0.33704  0.50000  Biso   1.000  C
  H24      1.0000 0.68550  0.31500  0.50000  Biso   1.000  H
  C351     1.0000 0.59735  0.40237  0.50000  Biso   1.000  C
  C352     1.0000 0.56116  0.43928  0.50000  Biso   1.000  C
