data_image0
_cell_length_a       10.1023
_cell_length_b       14.412
_cell_length_c       14.9635
_cell_angle_alpha    70.59
_cell_angle_beta     72.752
_cell_angle_gamma    87.142

_symmetry_space_group_name_H-M    "P 1"
_symmetry_int_tables_number       1

loop_
  _symmetry_equiv_pos_as_xyz
  'x, y, z'

loop_
  _atom_site_label
  _atom_site_occupancy
  _atom_site_fract_x
  _atom_site_fract_y
  _atom_site_fract_z
  _atom_site_thermal_displace_type
  _atom_site_B_iso_or_equiv
  _atom_site_type_symbol
  Cd1      1.0000 0.31053  0.45357  0.53015  Biso   1.000  Cd
  Cd2      1.0000 0.89091  0.38677  0.63754  Biso   1.000  Cd
  O1       1.0000 0.10570  0.31786  0.59840  Biso   1.000  O
  O2       1.0000 0.31480  0.31438  0.49941  Biso   1.000  O
  O3       1.0000 0.11040  0.54972  0.52249  Biso   1.000  O
  O4       1.0000 0.93980  0.52262  0.66361  Biso   1.000  O
  O5       1.0000 0.20710  0.76924  0.29143  Biso   1.000  O
  O6       1.0000 0.15330  0.70459  0.19095  Biso   1.000  O
  O7       1.0000 0.53620  0.41163  0.55976  Biso   1.000  O
  O8       1.0000 0.65890  0.44409  0.64697  Biso   1.000  O
  C1       1.0000 0.05930  0.11210  0.62690  Biso   1.000  C
  H1       1.0000 0.98960  0.14080  0.66630  Biso   1.000  H
  C2       1.0000 0.17150  0.16900  0.55990  Biso   1.000  C
  C3       1.0000 0.26730  0.12650  0.50330  Biso   1.000  C
  H2       1.0000 0.34690  0.16480  0.45560  Biso   1.000  H
  C4       1.0000 0.39540  0.96320  0.49060  Biso   1.000  C
  H3       1.0000 0.47520  0.00570  0.43980  Biso   1.000  H
  H4       1.0000 0.42160  0.92870  0.55170  Biso   1.000  H
  C5       1.0000 0.30430  0.99390  0.41670  Biso   1.000  C
  H5       1.0000 0.23020  0.00040  0.38440  Biso   1.000  H
  H6       1.0000 0.38670  0.03540  0.36820  Biso   1.000  H
  C6       1.0000 0.34040  0.88880  0.45100  Biso   1.000  C
  C7       1.0000 0.18380  0.73290  0.52710  Biso   1.000  C
  H7       1.0000 0.24760  0.70570  0.48280  Biso   1.000  H
  C8       1.0000 0.06550  0.67680  0.59480  Biso   1.000  C
  C9       1.0000 0.97600  0.71540  0.66200  Biso   1.000  C
  H8       1.0000 0.89660  0.67680  0.70960  Biso   1.000  H
  C10      1.0000 0.90170  0.85460  0.73070  Biso   1.000  C
  C11      1.0000 0.89120  0.96590  0.67070  Biso   1.000  C
  H9       1.0000 0.82400  0.99820  0.71260  Biso   1.000  H
  H10      1.0000 0.86200  0.97220  0.61140  Biso   1.000  H
  C12      1.0000 0.96240  0.92950  0.75210  Biso   1.000  C
  H11      1.0000 0.02980  0.90130  0.78910  Biso   1.000  H
  H12      1.0000 0.88990  0.96050  0.79210  Biso   1.000  H
  C13      1.0000 0.04350  0.01300  0.63950  Biso   1.000  C
  C14      1.0000 0.13780  0.97070  0.58170  Biso   1.000  C
  C15      1.0000 0.25160  0.02790  0.51370  Biso   1.000  C
  C16      1.0000 0.20930  0.82790  0.52360  Biso   1.000  C
  C17      1.0000 0.11680  0.86750  0.58950  Biso   1.000  C
  C18      1.0000 0.00090  0.80940  0.66050  Biso   1.000  C
  C19      1.0000 0.19620  0.27400  0.55130  Biso   1.000  C
  C20      1.0000 0.03620  0.57690  0.59420  Biso   1.000  C
  C21      1.0000 0.18950  0.89400  0.04080  Biso   1.000  C
  H13      1.0000 0.13570  0.84540  0.03470  Biso   1.000  H
  C22      1.0000 0.23170  0.87400  0.12620  Biso   1.000  C
  C23      1.0000 0.30820  0.94570  0.13600  Biso   1.000  C
  H14      1.0000 0.33610  0.93220  0.19420  Biso   1.000  H
  C24      1.0000 0.43030  0.11410  0.07110  Biso   1.000  C
  H15      1.0000 0.52990  0.10190  0.04800  Biso   1.000  H
  H16      1.0000 0.40730  0.10900  0.14170  Biso   1.000  H
  C25      1.0000 0.40450  0.21820  0.01020  Biso   1.000  C
  H17      1.0000 0.31020  0.23580  0.04140  Biso   1.000  H
  H18      1.0000 0.47230  0.26580  0.00960  Biso   1.000  H
  C26      1.0000 0.48520  0.30410  0.82360  Biso   1.000  C
  H19      1.0000 0.52810  0.35600  0.83280  Biso   1.000  H
  C27      1.0000 0.49000  0.30860  0.72850  Biso   1.000  C
  C28      1.0000 0.42770  0.23220  0.71440  Biso   1.000  C
  H20      1.0000 0.42740  0.23710  0.64960  Biso   1.000  H
  C29      1.0000 0.31000  0.06080  0.78120  Biso   1.000  C
  H21      1.0000 0.38440  0.01420  0.77300  Biso   1.000  H
  H22      1.0000 0.28060  0.08260  0.72020  Biso   1.000  H
  C30      1.0000 0.18670  0.00820  0.87010  Biso   1.000  C
  H23      1.0000 0.10690  0.05110  0.87250  Biso   1.000  H
  H24      1.0000 0.15870  0.94690  0.86280  Biso   1.000  H
  C31      1.0000 0.22540  0.98380  0.96530  Biso   1.000  C
  C32      1.0000 0.30630  0.05510  0.97470  Biso   1.000  C
  C33      1.0000 0.34420  0.03660  0.06200  Biso   1.000  C
  C34      1.0000 0.41830  0.22450  0.90520  Biso   1.000  C
  C35      1.0000 0.36120  0.14550  0.89050  Biso   1.000  C
  C36      1.0000 0.36610  0.14920  0.79460  Biso   1.000  C
  C37      1.0000 0.19590  0.77630  0.20760  Biso   1.000  C
  C38      1.0000 0.56520  0.39280  0.64110  Biso   1.000  C
  Cd3      1.0000 0.68947  0.54643  0.46985  Biso   1.000  Cd
  Cd4      1.0000 0.10909  0.61323  0.36246  Biso   1.000  Cd
  O9       1.0000 0.89430  0.68214  0.40160  Biso   1.000  O
  O10      1.0000 0.68520  0.68562  0.50059  Biso   1.000  O
  O11      1.0000 0.88960  0.45028  0.47751  Biso   1.000  O
  O12      1.0000 0.06020  0.47738  0.33639  Biso   1.000  O
  O13      1.0000 0.79290  0.23076  0.70857  Biso   1.000  O
  O14      1.0000 0.84670  0.29541  0.80905  Biso   1.000  O
  O15      1.0000 0.46380  0.58837  0.44024  Biso   1.000  O
  O16      1.0000 0.34110  0.55591  0.35303  Biso   1.000  O
  C39      1.0000 0.94070  0.88790  0.37310  Biso   1.000  C
  H25      1.0000 0.01040  0.85920  0.33370  Biso   1.000  H
  C40      1.0000 0.82850  0.83100  0.44010  Biso   1.000  C
  C41      1.0000 0.73270  0.87350  0.49670  Biso   1.000  C
  H26      1.0000 0.65310  0.83520  0.54440  Biso   1.000  H
  C42      1.0000 0.60460  0.03680  0.50940  Biso   1.000  C
  H27      1.0000 0.52480  0.99430  0.56020  Biso   1.000  H
  H28      1.0000 0.57840  0.07130  0.44830  Biso   1.000  H
  C43      1.0000 0.69570  0.00610  0.58330  Biso   1.000  C
  H29      1.0000 0.76980  0.99960  0.61560  Biso   1.000  H
  H30      1.0000 0.61330  0.96460  0.63180  Biso   1.000  H
  C44      1.0000 0.65960  0.11120  0.54900  Biso   1.000  C
  C45      1.0000 0.81620  0.26710  0.47290  Biso   1.000  C
  H31      1.0000 0.75240  0.29430  0.51720  Biso   1.000  H
  C46      1.0000 0.93450  0.32320  0.40520  Biso   1.000  C
  C47      1.0000 0.02400  0.28460  0.33800  Biso   1.000  C
  H32      1.0000 0.10340  0.32320  0.29040  Biso   1.000  H
  C48      1.0000 0.09830  0.14540  0.26930  Biso   1.000  C
  C49      1.0000 0.10880  0.03410  0.32930  Biso   1.000  C
  H33      1.0000 0.17600  0.00180  0.28740  Biso   1.000  H
  H34      1.0000 0.13800  0.02780  0.38860  Biso   1.000  H
  C50      1.0000 0.03760  0.07050  0.24790  Biso   1.000  C
  H35      1.0000 0.97020  0.09870  0.21090  Biso   1.000  H
  H36      1.0000 0.11010  0.03950  0.20790  Biso   1.000  H
  C51      1.0000 0.95650  0.98700  0.36050  Biso   1.000  C
  C52      1.0000 0.86220  0.02930  0.41830  Biso   1.000  C
  C53      1.0000 0.74840  0.97210  0.48630  Biso   1.000  C
  C54      1.0000 0.79070  0.17210  0.47640  Biso   1.000  C
  C55      1.0000 0.88320  0.13250  0.41050  Biso   1.000  C
  C56      1.0000 0.99910  0.19060  0.33950  Biso   1.000  C
  C57      1.0000 0.80380  0.72600  0.44870  Biso   1.000  C
  C58      1.0000 0.96380  0.42310  0.40580  Biso   1.000  C
  C59      1.0000 0.81050  0.10600  0.95920  Biso   1.000  C
  H37      1.0000 0.86430  0.15460  0.96530  Biso   1.000  H
  C60      1.0000 0.76830  0.12600  0.87380  Biso   1.000  C
  C61      1.0000 0.69180  0.05430  0.86400  Biso   1.000  C
  H38      1.0000 0.66390  0.06780  0.80580  Biso   1.000  H
  C62      1.0000 0.56970  0.88590  0.92890  Biso   1.000  C
  H39      1.0000 0.47010  0.89810  0.95200  Biso   1.000  H
  H40      1.0000 0.59270  0.89100  0.85830  Biso   1.000  H
  C63      1.0000 0.59550  0.78180  0.98980  Biso   1.000  C
  H41      1.0000 0.68980  0.76420  0.95860  Biso   1.000  H
  H42      1.0000 0.52770  0.73420  0.99040  Biso   1.000  H
  C64      1.0000 0.51480  0.69590  0.17640  Biso   1.000  C
  H43      1.0000 0.47190  0.64400  0.16720  Biso   1.000  H
  C65      1.0000 0.51000  0.69140  0.27150  Biso   1.000  C
  C66      1.0000 0.57230  0.76780  0.28560  Biso   1.000  C
  H44      1.0000 0.57260  0.76290  0.35040  Biso   1.000  H
  C67      1.0000 0.69000  0.93920  0.21880  Biso   1.000  C
  H45      1.0000 0.61560  0.98580  0.22700  Biso   1.000  H
  H46      1.0000 0.71940  0.91740  0.27980  Biso   1.000  H
  C68      1.0000 0.81330  0.99180  0.12990  Biso   1.000  C
  H47      1.0000 0.89310  0.94890  0.12750  Biso   1.000  H
  H48      1.0000 0.84130  0.05310  0.13720  Biso   1.000  H
  C69      1.0000 0.77460  0.01620  0.03470  Biso   1.000  C
  C70      1.0000 0.69370  0.94490  0.02530  Biso   1.000  C
  C71      1.0000 0.65580  0.96340  0.93800  Biso   1.000  C
  C72      1.0000 0.58170  0.77550  0.09480  Biso   1.000  C
  C73      1.0000 0.63880  0.85450  0.10950  Biso   1.000  C
  C74      1.0000 0.63390  0.85080  0.20540  Biso   1.000  C
  C75      1.0000 0.80410  0.22370  0.79240  Biso   1.000  C
  C76      1.0000 0.43480  0.60720  0.35890  Biso   1.000  C
