data_image0
_cell_length_a       29.6774
_cell_length_b       9.6295
_cell_length_c       7.9812
_cell_angle_alpha    90
_cell_angle_beta     97.69
_cell_angle_gamma    90

_symmetry_space_group_name_H-M    "P 1"
_symmetry_int_tables_number       1

loop_
  _symmetry_equiv_pos_as_xyz
  'x, y, z'

loop_
  _atom_site_label
  _atom_site_occupancy
  _atom_site_fract_x
  _atom_site_fract_y
  _atom_site_fract_z
  _atom_site_thermal_displace_type
  _atom_site_B_iso_or_equiv
  _atom_site_type_symbol
  O1       1.0000 0.06556  0.93160  0.99190  Biso   1.000  O
  O2       1.0000 0.07419  0.78540  0.21300  Biso   1.000  O
  H1       1.0000 0.02390  0.86800  0.23800  Biso   1.000  H
  C1       1.0000 0.13664  0.81980  0.06100  Biso   1.000  C
  C2       1.0000 0.16435  0.73480  0.17290  Biso   1.000  C
  H2       1.0000 0.15240  0.69560  0.26690  Biso   1.000  H
  C3       1.0000 0.20863  0.70670  0.15000  Biso   1.000  C
  C4       1.0000 0.22636  0.76380  0.01340  Biso   1.000  C
  C5       1.0000 0.19870  0.84990  0.90030  Biso   1.000  C
  C6       1.0000 0.15453  0.87630  0.92640  Biso   1.000  C
  H3       1.0000 0.13610  0.93490  0.84970  Biso   1.000  H
  C7       1.0000 0.23530  0.58430  0.24150  Biso   1.000  C
  H4       1.0000 0.22420  0.56550  0.35070  Biso   1.000  H
  H5       1.0000 0.23110  0.49930  0.17120  Biso   1.000  H
  C8       1.0000 0.24290  0.64750  0.29550  Biso   1.000  C
  H6       1.0000 0.25880  0.72410  0.36170  Biso   1.000  H
  H7       1.0000 0.22680  0.59070  0.37210  Biso   1.000  H
  C9       1.0000 0.21550  0.87640  0.72930  Biso   1.000  C
  H8       1.0000 0.21140  0.79170  0.65870  Biso   1.000  H
  H9       1.0000 0.19750  0.95220  0.66870  Biso   1.000  H
  C10      1.0000 0.22340  0.94090  0.78290  Biso   1.000  C
  H10      1.0000 0.20100  0.98160  0.69310  Biso   1.000  H
  H11      1.0000 0.23940  0.01780  0.84820  Biso   1.000  H
  C11      1.0000 0.08859  0.84730  0.09060  Biso   1.000  C
  O3       1.0000 0.56556  0.43160  0.99190  Biso   1.000  O
  O4       1.0000 0.57419  0.28540  0.21300  Biso   1.000  O
  H12      1.0000 0.52390  0.36800  0.23800  Biso   1.000  H
  C12      1.0000 0.63664  0.31980  0.06100  Biso   1.000  C
  C13      1.0000 0.66435  0.23480  0.17290  Biso   1.000  C
  H13      1.0000 0.65240  0.19560  0.26690  Biso   1.000  H
  C14      1.0000 0.70863  0.20670  0.15000  Biso   1.000  C
  C15      1.0000 0.72636  0.26380  0.01340  Biso   1.000  C
  C16      1.0000 0.69870  0.34990  0.90030  Biso   1.000  C
  C17      1.0000 0.65453  0.37630  0.92640  Biso   1.000  C
  H14      1.0000 0.63610  0.43490  0.84970  Biso   1.000  H
  C18      1.0000 0.73530  0.08430  0.24150  Biso   1.000  C
  H15      1.0000 0.72420  0.06550  0.35070  Biso   1.000  H
  H16      1.0000 0.73110  0.99930  0.17120  Biso   1.000  H
  C19      1.0000 0.74290  0.14750  0.29550  Biso   1.000  C
  H17      1.0000 0.75880  0.22410  0.36170  Biso   1.000  H
  H18      1.0000 0.72680  0.09070  0.37210  Biso   1.000  H
  C20      1.0000 0.71550  0.37640  0.72930  Biso   1.000  C
  H19      1.0000 0.71140  0.29170  0.65870  Biso   1.000  H
  H20      1.0000 0.69750  0.45220  0.66870  Biso   1.000  H
  C21      1.0000 0.72340  0.44090  0.78290  Biso   1.000  C
  H21      1.0000 0.70100  0.48160  0.69310  Biso   1.000  H
  H22      1.0000 0.73940  0.51780  0.84820  Biso   1.000  H
  C22      1.0000 0.58859  0.34730  0.09060  Biso   1.000  C
  O5       1.0000 0.93444  0.93160  0.50810  Biso   1.000  O
  O6       1.0000 0.92581  0.78540  0.28700  Biso   1.000  O
  H23      1.0000 0.97610  0.86800  0.26200  Biso   1.000  H
  C23      1.0000 0.86336  0.81980  0.43900  Biso   1.000  C
  C24      1.0000 0.83565  0.73480  0.32710  Biso   1.000  C
  H24      1.0000 0.84760  0.69560  0.23310  Biso   1.000  H
  C25      1.0000 0.79137  0.70670  0.35000  Biso   1.000  C
  C26      1.0000 0.77364  0.76380  0.48660  Biso   1.000  C
  C27      1.0000 0.80130  0.84990  0.59970  Biso   1.000  C
  C28      1.0000 0.84547  0.87630  0.57360  Biso   1.000  C
  H25      1.0000 0.86390  0.93490  0.65030  Biso   1.000  H
  C29      1.0000 0.76470  0.58430  0.25850  Biso   1.000  C
  H26      1.0000 0.77580  0.56550  0.14930  Biso   1.000  H
  H27      1.0000 0.76890  0.49930  0.32880  Biso   1.000  H
  C30      1.0000 0.75710  0.64750  0.20450  Biso   1.000  C
  H28      1.0000 0.74120  0.72410  0.13830  Biso   1.000  H
  H29      1.0000 0.77320  0.59070  0.12790  Biso   1.000  H
  C31      1.0000 0.78450  0.87640  0.77070  Biso   1.000  C
  H30      1.0000 0.78860  0.79170  0.84130  Biso   1.000  H
  H31      1.0000 0.80250  0.95220  0.83130  Biso   1.000  H
  C32      1.0000 0.77660  0.94090  0.71710  Biso   1.000  C
  H32      1.0000 0.79900  0.98160  0.80690  Biso   1.000  H
  H33      1.0000 0.76060  0.01780  0.65180  Biso   1.000  H
  C33      1.0000 0.91141  0.84730  0.40940  Biso   1.000  C
  O7       1.0000 0.43444  0.43160  0.50810  Biso   1.000  O
  O8       1.0000 0.42581  0.28540  0.28700  Biso   1.000  O
  H34      1.0000 0.47610  0.36800  0.26200  Biso   1.000  H
  C34      1.0000 0.36336  0.31980  0.43900  Biso   1.000  C
  C35      1.0000 0.33565  0.23480  0.32710  Biso   1.000  C
  H35      1.0000 0.34760  0.19560  0.23310  Biso   1.000  H
  C36      1.0000 0.29137  0.20670  0.35000  Biso   1.000  C
  C37      1.0000 0.27364  0.26380  0.48660  Biso   1.000  C
  C38      1.0000 0.30130  0.34990  0.59970  Biso   1.000  C
  C39      1.0000 0.34547  0.37630  0.57360  Biso   1.000  C
  H36      1.0000 0.36390  0.43490  0.65030  Biso   1.000  H
  C40      1.0000 0.26470  0.08430  0.25850  Biso   1.000  C
  H37      1.0000 0.27580  0.06550  0.14930  Biso   1.000  H
  H38      1.0000 0.26890  0.99930  0.32880  Biso   1.000  H
  C41      1.0000 0.25710  0.14750  0.20450  Biso   1.000  C
  H39      1.0000 0.24120  0.22410  0.13830  Biso   1.000  H
  H40      1.0000 0.27320  0.09070  0.12790  Biso   1.000  H
  C42      1.0000 0.28450  0.37640  0.77070  Biso   1.000  C
  H41      1.0000 0.28860  0.29170  0.84130  Biso   1.000  H
  H42      1.0000 0.30250  0.45220  0.83130  Biso   1.000  H
  C43      1.0000 0.27660  0.44090  0.71710  Biso   1.000  C
  H43      1.0000 0.29900  0.48160  0.80690  Biso   1.000  H
  H44      1.0000 0.26060  0.51780  0.65180  Biso   1.000  H
  C44      1.0000 0.41141  0.34730  0.40940  Biso   1.000  C
  O9       1.0000 0.93444  0.06840  0.00810  Biso   1.000  O
  O10      1.0000 0.92581  0.21460  0.78700  Biso   1.000  O
  H45      1.0000 0.97610  0.13200  0.76200  Biso   1.000  H
  C45      1.0000 0.86336  0.18020  0.93900  Biso   1.000  C
  C46      1.0000 0.83565  0.26520  0.82710  Biso   1.000  C
  H46      1.0000 0.84760  0.30440  0.73310  Biso   1.000  H
  C47      1.0000 0.79137  0.29330  0.85000  Biso   1.000  C
  C48      1.0000 0.77364  0.23620  0.98660  Biso   1.000  C
  C49      1.0000 0.80130  0.15010  0.09970  Biso   1.000  C
  C50      1.0000 0.84547  0.12370  0.07360  Biso   1.000  C
  H47      1.0000 0.86390  0.06510  0.15030  Biso   1.000  H
  C51      1.0000 0.76470  0.41570  0.75850  Biso   1.000  C
  H48      1.0000 0.77580  0.43450  0.64930  Biso   1.000  H
  H49      1.0000 0.76890  0.50070  0.82880  Biso   1.000  H
  C52      1.0000 0.75710  0.35250  0.70450  Biso   1.000  C
  H50      1.0000 0.74120  0.27590  0.63830  Biso   1.000  H
  H51      1.0000 0.77320  0.40930  0.62790  Biso   1.000  H
  C53      1.0000 0.78450  0.12360  0.27070  Biso   1.000  C
  H52      1.0000 0.78860  0.20830  0.34130  Biso   1.000  H
  H53      1.0000 0.80250  0.04780  0.33130  Biso   1.000  H
  C54      1.0000 0.77660  0.05910  0.21710  Biso   1.000  C
  H54      1.0000 0.79900  0.01840  0.30690  Biso   1.000  H
  H55      1.0000 0.76060  0.98220  0.15180  Biso   1.000  H
  C55      1.0000 0.91141  0.15270  0.90940  Biso   1.000  C
  O11      1.0000 0.43444  0.56840  0.00810  Biso   1.000  O
  O12      1.0000 0.42581  0.71460  0.78700  Biso   1.000  O
  H56      1.0000 0.47610  0.63200  0.76200  Biso   1.000  H
  C56      1.0000 0.36336  0.68020  0.93900  Biso   1.000  C
  C57      1.0000 0.33565  0.76520  0.82710  Biso   1.000  C
  H57      1.0000 0.34760  0.80440  0.73310  Biso   1.000  H
  C58      1.0000 0.29137  0.79330  0.85000  Biso   1.000  C
  C59      1.0000 0.27364  0.73620  0.98660  Biso   1.000  C
  C60      1.0000 0.30130  0.65010  0.09970  Biso   1.000  C
  C61      1.0000 0.34547  0.62370  0.07360  Biso   1.000  C
  H58      1.0000 0.36390  0.56510  0.15030  Biso   1.000  H
  C62      1.0000 0.26470  0.91570  0.75850  Biso   1.000  C
  H59      1.0000 0.27580  0.93450  0.64930  Biso   1.000  H
  H60      1.0000 0.26890  0.00070  0.82880  Biso   1.000  H
  C63      1.0000 0.25710  0.85250  0.70450  Biso   1.000  C
  H61      1.0000 0.24120  0.77590  0.63830  Biso   1.000  H
  H62      1.0000 0.27320  0.90930  0.62790  Biso   1.000  H
  C64      1.0000 0.28450  0.62360  0.27070  Biso   1.000  C
  H63      1.0000 0.28860  0.70830  0.34130  Biso   1.000  H
  H64      1.0000 0.30250  0.54780  0.33130  Biso   1.000  H
  C65      1.0000 0.27660  0.55910  0.21710  Biso   1.000  C
  H65      1.0000 0.29900  0.51840  0.30690  Biso   1.000  H
  H66      1.0000 0.26060  0.48220  0.15180  Biso   1.000  H
  C66      1.0000 0.41141  0.65270  0.90940  Biso   1.000  C
  O13      1.0000 0.06556  0.06840  0.49190  Biso   1.000  O
  O14      1.0000 0.07419  0.21460  0.71300  Biso   1.000  O
  H67      1.0000 0.02390  0.13200  0.73800  Biso   1.000  H
  C67      1.0000 0.13664  0.18020  0.56100  Biso   1.000  C
  C68      1.0000 0.16435  0.26520  0.67290  Biso   1.000  C
  H68      1.0000 0.15240  0.30440  0.76690  Biso   1.000  H
  C69      1.0000 0.20863  0.29330  0.65000  Biso   1.000  C
  C70      1.0000 0.22636  0.23620  0.51340  Biso   1.000  C
  C71      1.0000 0.19870  0.15010  0.40030  Biso   1.000  C
  C72      1.0000 0.15453  0.12370  0.42640  Biso   1.000  C
  H69      1.0000 0.13610  0.06510  0.34970  Biso   1.000  H
  C73      1.0000 0.23530  0.41570  0.74150  Biso   1.000  C
  H70      1.0000 0.22420  0.43450  0.85070  Biso   1.000  H
  H71      1.0000 0.23110  0.50070  0.67120  Biso   1.000  H
  C74      1.0000 0.24290  0.35250  0.79550  Biso   1.000  C
  H72      1.0000 0.25880  0.27590  0.86170  Biso   1.000  H
  H73      1.0000 0.22680  0.40930  0.87210  Biso   1.000  H
  C75      1.0000 0.21550  0.12360  0.22930  Biso   1.000  C
  H74      1.0000 0.21140  0.20830  0.15870  Biso   1.000  H
  H75      1.0000 0.19750  0.04780  0.16870  Biso   1.000  H
  C76      1.0000 0.22340  0.05910  0.28290  Biso   1.000  C
  H76      1.0000 0.20100  0.01840  0.19310  Biso   1.000  H
  H77      1.0000 0.23940  0.98220  0.34820  Biso   1.000  H
  C77      1.0000 0.08859  0.15270  0.59060  Biso   1.000  C
  O15      1.0000 0.56556  0.56840  0.49190  Biso   1.000  O
  O16      1.0000 0.57419  0.71460  0.71300  Biso   1.000  O
  H78      1.0000 0.52390  0.63200  0.73800  Biso   1.000  H
  C78      1.0000 0.63664  0.68020  0.56100  Biso   1.000  C
  C79      1.0000 0.66435  0.76520  0.67290  Biso   1.000  C
  H79      1.0000 0.65240  0.80440  0.76690  Biso   1.000  H
  C80      1.0000 0.70863  0.79330  0.65000  Biso   1.000  C
  C81      1.0000 0.72636  0.73620  0.51340  Biso   1.000  C
  C82      1.0000 0.69870  0.65010  0.40030  Biso   1.000  C
  C83      1.0000 0.65453  0.62370  0.42640  Biso   1.000  C
  H80      1.0000 0.63610  0.56510  0.34970  Biso   1.000  H
  C84      1.0000 0.73530  0.91570  0.74150  Biso   1.000  C
  H81      1.0000 0.72420  0.93450  0.85070  Biso   1.000  H
  H82      1.0000 0.73110  0.00070  0.67120  Biso   1.000  H
  C85      1.0000 0.74290  0.85250  0.79550  Biso   1.000  C
  H83      1.0000 0.75880  0.77590  0.86170  Biso   1.000  H
  H84      1.0000 0.72680  0.90930  0.87210  Biso   1.000  H
  C86      1.0000 0.71550  0.62360  0.22930  Biso   1.000  C
  H85      1.0000 0.71140  0.70830  0.15870  Biso   1.000  H
  H86      1.0000 0.69750  0.54780  0.16870  Biso   1.000  H
  C87      1.0000 0.72340  0.55910  0.28290  Biso   1.000  C
  H87      1.0000 0.70100  0.51840  0.19310  Biso   1.000  H
  H88      1.0000 0.73940  0.48220  0.34820  Biso   1.000  H
  C88      1.0000 0.58859  0.65270  0.59060  Biso   1.000  C
  Co1      1.0000 0.00000  0.00000  0.00000  Biso   1.000  Co
  Co2      1.0000 0.50000  0.50000  0.00000  Biso   1.000  Co
  Co3      1.0000 0.00000  0.00000  0.50000  Biso   1.000  Co
  Co4      1.0000 0.50000  0.50000  0.50000  Biso   1.000  Co
  O17      1.0000 0.00000  0.91500  0.25000  Biso   1.000  O
  O18      1.0000 0.50000  0.41500  0.25000  Biso   1.000  O
  O19      1.0000 0.00000  0.08500  0.75000  Biso   1.000  O
  O20      1.0000 0.50000  0.58500  0.75000  Biso   1.000  O
