data_image0
_cell_length_a       28.764
_cell_length_b       21.682
_cell_length_c       10.933
_cell_angle_alpha    90
_cell_angle_beta     90
_cell_angle_gamma    90

_symmetry_space_group_name_H-M    "P 1"
_symmetry_int_tables_number       1

loop_
  _symmetry_equiv_pos_as_xyz
  'x, y, z'

loop_
  _atom_site_label
  _atom_site_occupancy
  _atom_site_fract_x
  _atom_site_fract_y
  _atom_site_fract_z
  _atom_site_thermal_displace_type
  _atom_site_B_iso_or_equiv
  _atom_site_type_symbol
  C1       1.0000 0.74510  0.17130  0.39100  Biso   1.000  C
  H1       1.0000 0.72300  0.20240  0.38240  Biso   1.000  H
  C2       1.0000 0.79100  0.17640  0.33500  Biso   1.000  C
  H2       1.0000 0.79820  0.18780  0.25530  Biso   1.000  H
  C3       1.0000 0.82620  0.15800  0.44200  Biso   1.000  C
  H3       1.0000 0.84970  0.18350  0.47120  Biso   1.000  H
  C4       1.0000 0.85670  0.06900  0.54810  Biso   1.000  C
  C5       1.0000 0.81790  0.10140  0.48360  Biso   1.000  C
  C6       1.0000 0.77230  0.09280  0.51850  Biso   1.000  C
  H4       1.0000 0.76610  0.06820  0.58620  Biso   1.000  H
  C7       1.0000 0.73570  0.11910  0.45730  Biso   1.000  C
  C8       1.0000 0.01250  0.15820  0.61300  Biso   1.000  C
  C9       1.0000 0.98550  0.20650  0.68340  Biso   1.000  C
  C10      1.0000 0.93690  0.20710  0.68460  Biso   1.000  C
  H5       1.0000 0.92070  0.17760  0.63980  Biso   1.000  H
  C11      1.0000 0.93680  0.03450  0.84580  Biso   1.000  C
  C12      1.0000 0.95370  0.05830  0.97060  Biso   1.000  C
  C13      1.0000 0.94320  0.02560  0.07510  Biso   1.000  C
  H6       1.0000 0.92490  0.99040  0.06940  Biso   1.000  H
  C14      1.0000 0.95960  0.04440  0.19000  Biso   1.000  C
  C15      1.0000 0.95050  0.00580  0.30160  Biso   1.000  C
  C16      1.0000 0.98580  0.09790  0.19630  Biso   1.000  C
  H7       1.0000 0.99610  0.11240  0.27160  Biso   1.000  H
  C17      1.0000 0.99670  0.13030  0.08860  Biso   1.000  C
  H8       1.0000 0.01480  0.16580  0.09250  Biso   1.000  H
  C18      1.0000 0.98080  0.10960  0.97870  Biso   1.000  C
  H9       1.0000 0.98860  0.13090  0.90780  Biso   1.000  H
  C19      1.0000 0.68700  0.10670  0.49340  Biso   1.000  C
  Co1      1.0000 0.95548  0.03592  0.57479  Biso   1.000  Co
  Co2      1.0000 0.90923  0.91013  0.43605  Biso   1.000  Co
  Co3      1.0000 0.86638  0.95605  0.71369  Biso   1.000  Co
  O1       1.0000 0.92330  0.94900  0.59410  Biso   1.000  O
  O2       1.0000 0.68041  0.08740  0.59630  Biso   1.000  O
  O3       1.0000 0.65537  0.11500  0.41620  Biso   1.000  O
  O4       1.0000 0.90593  0.99350  0.84900  Biso   1.000  O
  O5       1.0000 0.95546  0.05800  0.75540  Biso   1.000  O
  O6       1.0000 0.99244  0.11790  0.54930  Biso   1.000  O
  O7       1.0000 0.05661  0.16190  0.62170  Biso   1.000  O
  O8       1.0000 0.97699  0.01477  0.39310  Biso   1.000  O
  O9       1.0000 0.89706  0.07480  0.50610  Biso   1.000  O
  O10      1.0000 0.84531  0.03820  0.63940  Biso   1.000  O
  O11      1.0000 0.91744  0.96960  0.29910  Biso   1.000  O
  H10      1.0000 0.94200  0.92300  0.62100  Biso   1.000  H
  C20      1.0000 0.74480  0.14590  0.33660  Biso   1.000  C
  H11      1.0000 0.72080  0.16310  0.29120  Biso   1.000  H
  C21      1.0000 0.79050  0.14520  0.29000  Biso   1.000  C
  H12      1.0000 0.79640  0.15290  0.20770  Biso   1.000  H
  C22      1.0000 0.82690  0.13250  0.37200  Biso   1.000  C
  H13      1.0000 0.85710  0.14460  0.35300  Biso   1.000  H
  C23      1.0000 0.75490  0.82870  0.39100  Biso   1.000  C
  H14      1.0000 0.77700  0.79760  0.38240  Biso   1.000  H
  C24      1.0000 0.70900  0.82360  0.33500  Biso   1.000  C
  H15      1.0000 0.70180  0.81220  0.25530  Biso   1.000  H
  C25      1.0000 0.67380  0.84200  0.44200  Biso   1.000  C
  H16      1.0000 0.65030  0.81650  0.47120  Biso   1.000  H
  C26      1.0000 0.64330  0.93100  0.54810  Biso   1.000  C
  C27      1.0000 0.68210  0.89860  0.48360  Biso   1.000  C
  C28      1.0000 0.72770  0.90720  0.51850  Biso   1.000  C
  H17      1.0000 0.73390  0.93180  0.58620  Biso   1.000  H
  C29      1.0000 0.76430  0.88090  0.45730  Biso   1.000  C
  C30      1.0000 0.48750  0.84180  0.61300  Biso   1.000  C
  C31      1.0000 0.51450  0.79350  0.68340  Biso   1.000  C
  C32      1.0000 0.56310  0.79290  0.68460  Biso   1.000  C
  H18      1.0000 0.57930  0.82240  0.63980  Biso   1.000  H
  C33      1.0000 0.56320  0.96550  0.84580  Biso   1.000  C
  C34      1.0000 0.54630  0.94170  0.97060  Biso   1.000  C
  C35      1.0000 0.55680  0.97440  0.07510  Biso   1.000  C
  H19      1.0000 0.57510  0.00960  0.06940  Biso   1.000  H
  C36      1.0000 0.54040  0.95560  0.19000  Biso   1.000  C
  C37      1.0000 0.54950  0.99420  0.30160  Biso   1.000  C
  C38      1.0000 0.51420  0.90210  0.19630  Biso   1.000  C
  H20      1.0000 0.50390  0.88760  0.27160  Biso   1.000  H
  C39      1.0000 0.50330  0.86970  0.08860  Biso   1.000  C
  H21      1.0000 0.48520  0.83420  0.09250  Biso   1.000  H
  C40      1.0000 0.51920  0.89040  0.97870  Biso   1.000  C
  H22      1.0000 0.51140  0.86910  0.90780  Biso   1.000  H
  C41      1.0000 0.81300  0.89330  0.49340  Biso   1.000  C
  Co4      1.0000 0.54452  0.96408  0.57479  Biso   1.000  Co
  Co5      1.0000 0.59077  0.08987  0.43605  Biso   1.000  Co
  Co6      1.0000 0.63362  0.04395  0.71369  Biso   1.000  Co
  O12      1.0000 0.57670  0.05100  0.59410  Biso   1.000  O
  O13      1.0000 0.81959  0.91260  0.59630  Biso   1.000  O
  O14      1.0000 0.84463  0.88500  0.41620  Biso   1.000  O
  O15      1.0000 0.59407  0.00650  0.84900  Biso   1.000  O
  O16      1.0000 0.54454  0.94200  0.75540  Biso   1.000  O
  O17      1.0000 0.50756  0.88210  0.54930  Biso   1.000  O
  O18      1.0000 0.44339  0.83810  0.62170  Biso   1.000  O
  O19      1.0000 0.52301  0.98523  0.39310  Biso   1.000  O
  O20      1.0000 0.60294  0.92520  0.50610  Biso   1.000  O
  O21      1.0000 0.65469  0.96180  0.63940  Biso   1.000  O
  O22      1.0000 0.58256  0.03040  0.29910  Biso   1.000  O
  H23      1.0000 0.55800  0.07700  0.62100  Biso   1.000  H
  C42      1.0000 0.75520  0.85410  0.33660  Biso   1.000  C
  H24      1.0000 0.77920  0.83690  0.29120  Biso   1.000  H
  C43      1.0000 0.70950  0.85480  0.29000  Biso   1.000  C
  H25      1.0000 0.70360  0.84710  0.20770  Biso   1.000  H
  C44      1.0000 0.67310  0.86750  0.37200  Biso   1.000  C
  H26      1.0000 0.64290  0.85540  0.35300  Biso   1.000  H
  C45      1.0000 0.75490  0.67130  0.10900  Biso   1.000  C
  H27      1.0000 0.77700  0.70240  0.11760  Biso   1.000  H
  C46      1.0000 0.70900  0.67640  0.16500  Biso   1.000  C
  H28      1.0000 0.70180  0.68780  0.24470  Biso   1.000  H
  C47      1.0000 0.67380  0.65800  0.05800  Biso   1.000  C
  H29      1.0000 0.65030  0.68350  0.02880  Biso   1.000  H
  C48      1.0000 0.64330  0.56900  0.95190  Biso   1.000  C
  C49      1.0000 0.68210  0.60140  0.01640  Biso   1.000  C
  C50      1.0000 0.72770  0.59280  0.98150  Biso   1.000  C
  H30      1.0000 0.73390  0.56820  0.91380  Biso   1.000  H
  C51      1.0000 0.76430  0.61910  0.04270  Biso   1.000  C
  C52      1.0000 0.48750  0.65820  0.88700  Biso   1.000  C
  C53      1.0000 0.51450  0.70650  0.81660  Biso   1.000  C
  C54      1.0000 0.56310  0.70710  0.81540  Biso   1.000  C
  H31      1.0000 0.57930  0.67760  0.86020  Biso   1.000  H
  C55      1.0000 0.56320  0.53450  0.65420  Biso   1.000  C
  C56      1.0000 0.54630  0.55830  0.52940  Biso   1.000  C
  C57      1.0000 0.55680  0.52560  0.42490  Biso   1.000  C
  H32      1.0000 0.57510  0.49040  0.43060  Biso   1.000  H
  C58      1.0000 0.54040  0.54440  0.31000  Biso   1.000  C
  C59      1.0000 0.54950  0.50580  0.19840  Biso   1.000  C
  C60      1.0000 0.51420  0.59790  0.30370  Biso   1.000  C
  H33      1.0000 0.50390  0.61240  0.22840  Biso   1.000  H
  C61      1.0000 0.50330  0.63030  0.41140  Biso   1.000  C
  H34      1.0000 0.48520  0.66580  0.40750  Biso   1.000  H
  C62      1.0000 0.51920  0.60960  0.52130  Biso   1.000  C
  H35      1.0000 0.51140  0.63090  0.59220  Biso   1.000  H
  C63      1.0000 0.81300  0.60670  0.00660  Biso   1.000  C
  Co7      1.0000 0.54452  0.53592  0.92521  Biso   1.000  Co
  Co8      1.0000 0.59077  0.41013  0.06395  Biso   1.000  Co
  Co9      1.0000 0.63362  0.45605  0.78631  Biso   1.000  Co
  O23      1.0000 0.57670  0.44900  0.90590  Biso   1.000  O
  O24      1.0000 0.81959  0.58740  0.90370  Biso   1.000  O
  O25      1.0000 0.84463  0.61500  0.08380  Biso   1.000  O
  O26      1.0000 0.59407  0.49350  0.65100  Biso   1.000  O
  O27      1.0000 0.54454  0.55800  0.74460  Biso   1.000  O
  O28      1.0000 0.50756  0.61790  0.95070  Biso   1.000  O
  O29      1.0000 0.44339  0.66190  0.87830  Biso   1.000  O
  O30      1.0000 0.52301  0.51477  0.10690  Biso   1.000  O
  O31      1.0000 0.60294  0.57480  0.99390  Biso   1.000  O
  O32      1.0000 0.65469  0.53820  0.86060  Biso   1.000  O
  O33      1.0000 0.58256  0.46960  0.20090  Biso   1.000  O
  H36      1.0000 0.55800  0.42300  0.87900  Biso   1.000  H
  C64      1.0000 0.75520  0.64590  0.16340  Biso   1.000  C
  H37      1.0000 0.77920  0.66310  0.20880  Biso   1.000  H
  C65      1.0000 0.70950  0.64520  0.21000  Biso   1.000  C
  H38      1.0000 0.70360  0.65290  0.29230  Biso   1.000  H
  C66      1.0000 0.67310  0.63250  0.12800  Biso   1.000  C
  H39      1.0000 0.64290  0.64460  0.14700  Biso   1.000  H
  C67      1.0000 0.74510  0.32870  0.10900  Biso   1.000  C
  H40      1.0000 0.72300  0.29760  0.11760  Biso   1.000  H
  C68      1.0000 0.79100  0.32360  0.16500  Biso   1.000  C
  H41      1.0000 0.79820  0.31220  0.24470  Biso   1.000  H
  C69      1.0000 0.82620  0.34200  0.05800  Biso   1.000  C
  H42      1.0000 0.84970  0.31650  0.02880  Biso   1.000  H
  C70      1.0000 0.85670  0.43100  0.95190  Biso   1.000  C
  C71      1.0000 0.81790  0.39860  0.01640  Biso   1.000  C
  C72      1.0000 0.77230  0.40720  0.98150  Biso   1.000  C
  H43      1.0000 0.76610  0.43180  0.91380  Biso   1.000  H
  C73      1.0000 0.73570  0.38090  0.04270  Biso   1.000  C
  C74      1.0000 0.01250  0.34180  0.88700  Biso   1.000  C
  C75      1.0000 0.98550  0.29350  0.81660  Biso   1.000  C
  C76      1.0000 0.93690  0.29290  0.81540  Biso   1.000  C
  H44      1.0000 0.92070  0.32240  0.86020  Biso   1.000  H
  C77      1.0000 0.93680  0.46550  0.65420  Biso   1.000  C
  C78      1.0000 0.95370  0.44170  0.52940  Biso   1.000  C
  C79      1.0000 0.94320  0.47440  0.42490  Biso   1.000  C
  H45      1.0000 0.92490  0.50960  0.43060  Biso   1.000  H
  C80      1.0000 0.95960  0.45560  0.31000  Biso   1.000  C
  C81      1.0000 0.95050  0.49420  0.19840  Biso   1.000  C
  C82      1.0000 0.98580  0.40210  0.30370  Biso   1.000  C
  H46      1.0000 0.99610  0.38760  0.22840  Biso   1.000  H
  C83      1.0000 0.99670  0.36970  0.41140  Biso   1.000  C
  H47      1.0000 0.01480  0.33420  0.40750  Biso   1.000  H
  C84      1.0000 0.98080  0.39040  0.52130  Biso   1.000  C
  H48      1.0000 0.98860  0.36910  0.59220  Biso   1.000  H
  C85      1.0000 0.68700  0.39330  0.00660  Biso   1.000  C
  Co10     1.0000 0.95548  0.46408  0.92521  Biso   1.000  Co
  Co11     1.0000 0.90923  0.58987  0.06395  Biso   1.000  Co
  Co12     1.0000 0.86638  0.54395  0.78631  Biso   1.000  Co
  O34      1.0000 0.92330  0.55100  0.90590  Biso   1.000  O
  O35      1.0000 0.68041  0.41260  0.90370  Biso   1.000  O
  O36      1.0000 0.65537  0.38500  0.08380  Biso   1.000  O
  O37      1.0000 0.90593  0.50650  0.65100  Biso   1.000  O
  O38      1.0000 0.95546  0.44200  0.74460  Biso   1.000  O
  O39      1.0000 0.99244  0.38210  0.95070  Biso   1.000  O
  O40      1.0000 0.05661  0.33810  0.87830  Biso   1.000  O
  O41      1.0000 0.97699  0.48523  0.10690  Biso   1.000  O
  O42      1.0000 0.89706  0.42520  0.99390  Biso   1.000  O
  O43      1.0000 0.84531  0.46180  0.86060  Biso   1.000  O
  O44      1.0000 0.91744  0.53040  0.20090  Biso   1.000  O
  H49      1.0000 0.94200  0.57700  0.87900  Biso   1.000  H
  C86      1.0000 0.74480  0.35410  0.16340  Biso   1.000  C
  H50      1.0000 0.72080  0.33690  0.20880  Biso   1.000  H
  C87      1.0000 0.79050  0.35480  0.21000  Biso   1.000  C
  H51      1.0000 0.79640  0.34710  0.29230  Biso   1.000  H
  C88      1.0000 0.82690  0.36750  0.12800  Biso   1.000  C
  H52      1.0000 0.85710  0.35540  0.14700  Biso   1.000  H
  C89      1.0000 0.25490  0.82870  0.60900  Biso   1.000  C
  H53      1.0000 0.27700  0.79760  0.61760  Biso   1.000  H
  C90      1.0000 0.20900  0.82360  0.66500  Biso   1.000  C
  H54      1.0000 0.20180  0.81220  0.74470  Biso   1.000  H
  C91      1.0000 0.17380  0.84200  0.55800  Biso   1.000  C
  H55      1.0000 0.15030  0.81650  0.52880  Biso   1.000  H
  C92      1.0000 0.14330  0.93100  0.45190  Biso   1.000  C
  C93      1.0000 0.18210  0.89860  0.51640  Biso   1.000  C
  C94      1.0000 0.22770  0.90720  0.48150  Biso   1.000  C
  H56      1.0000 0.23390  0.93180  0.41380  Biso   1.000  H
  C95      1.0000 0.26430  0.88090  0.54270  Biso   1.000  C
  C96      1.0000 0.98750  0.84180  0.38700  Biso   1.000  C
  C97      1.0000 0.01450  0.79350  0.31660  Biso   1.000  C
  C98      1.0000 0.06310  0.79290  0.31540  Biso   1.000  C
  H57      1.0000 0.07930  0.82240  0.36020  Biso   1.000  H
  C99      1.0000 0.06320  0.96550  0.15420  Biso   1.000  C
  C100     1.0000 0.04630  0.94170  0.02940  Biso   1.000  C
  C101     1.0000 0.05680  0.97440  0.92490  Biso   1.000  C
  H58      1.0000 0.07510  0.00960  0.93060  Biso   1.000  H
  C102     1.0000 0.04040  0.95560  0.81000  Biso   1.000  C
  C103     1.0000 0.04950  0.99420  0.69840  Biso   1.000  C
  C104     1.0000 0.01420  0.90210  0.80370  Biso   1.000  C
  H59      1.0000 0.00390  0.88760  0.72840  Biso   1.000  H
  C105     1.0000 0.00330  0.86970  0.91140  Biso   1.000  C
  H60      1.0000 0.98520  0.83420  0.90750  Biso   1.000  H
  C106     1.0000 0.01920  0.89040  0.02130  Biso   1.000  C
  H61      1.0000 0.01140  0.86910  0.09220  Biso   1.000  H
  C107     1.0000 0.31300  0.89330  0.50660  Biso   1.000  C
  Co13     1.0000 0.04452  0.96408  0.42521  Biso   1.000  Co
  Co14     1.0000 0.09077  0.08987  0.56395  Biso   1.000  Co
  Co15     1.0000 0.13362  0.04395  0.28631  Biso   1.000  Co
  O45      1.0000 0.07670  0.05100  0.40590  Biso   1.000  O
  O46      1.0000 0.31959  0.91260  0.40370  Biso   1.000  O
  O47      1.0000 0.34463  0.88500  0.58380  Biso   1.000  O
  O48      1.0000 0.09407  0.00650  0.15100  Biso   1.000  O
  O49      1.0000 0.04454  0.94200  0.24460  Biso   1.000  O
  O50      1.0000 0.00756  0.88210  0.45070  Biso   1.000  O
  O51      1.0000 0.94339  0.83810  0.37830  Biso   1.000  O
  O52      1.0000 0.02301  0.98523  0.60690  Biso   1.000  O
  O53      1.0000 0.10294  0.92520  0.49390  Biso   1.000  O
  O54      1.0000 0.15469  0.96180  0.36060  Biso   1.000  O
  O55      1.0000 0.08256  0.03040  0.70090  Biso   1.000  O
  H62      1.0000 0.05800  0.07700  0.37900  Biso   1.000  H
  C108     1.0000 0.25520  0.85410  0.66340  Biso   1.000  C
  H63      1.0000 0.27920  0.83690  0.70880  Biso   1.000  H
  C109     1.0000 0.20950  0.85480  0.71000  Biso   1.000  C
  H64      1.0000 0.20360  0.84710  0.79230  Biso   1.000  H
  C110     1.0000 0.17310  0.86750  0.62800  Biso   1.000  C
  H65      1.0000 0.14290  0.85540  0.64700  Biso   1.000  H
  C111     1.0000 0.24510  0.17130  0.60900  Biso   1.000  C
  H66      1.0000 0.22300  0.20240  0.61760  Biso   1.000  H
  C112     1.0000 0.29100  0.17640  0.66500  Biso   1.000  C
  H67      1.0000 0.29820  0.18780  0.74470  Biso   1.000  H
  C113     1.0000 0.32620  0.15800  0.55800  Biso   1.000  C
  H68      1.0000 0.34970  0.18350  0.52880  Biso   1.000  H
  C114     1.0000 0.35670  0.06900  0.45190  Biso   1.000  C
  C115     1.0000 0.31790  0.10140  0.51640  Biso   1.000  C
  C116     1.0000 0.27230  0.09280  0.48150  Biso   1.000  C
  H69      1.0000 0.26610  0.06820  0.41380  Biso   1.000  H
  C117     1.0000 0.23570  0.11910  0.54270  Biso   1.000  C
  C118     1.0000 0.51250  0.15820  0.38700  Biso   1.000  C
  C119     1.0000 0.48550  0.20650  0.31660  Biso   1.000  C
  C120     1.0000 0.43690  0.20710  0.31540  Biso   1.000  C
  H70      1.0000 0.42070  0.17760  0.36020  Biso   1.000  H
  C121     1.0000 0.43680  0.03450  0.15420  Biso   1.000  C
  C122     1.0000 0.45370  0.05830  0.02940  Biso   1.000  C
  C123     1.0000 0.44320  0.02560  0.92490  Biso   1.000  C
  H71      1.0000 0.42490  0.99040  0.93060  Biso   1.000  H
  C124     1.0000 0.45960  0.04440  0.81000  Biso   1.000  C
  C125     1.0000 0.45050  0.00580  0.69840  Biso   1.000  C
  C126     1.0000 0.48580  0.09790  0.80370  Biso   1.000  C
  H72      1.0000 0.49610  0.11240  0.72840  Biso   1.000  H
  C127     1.0000 0.49670  0.13030  0.91140  Biso   1.000  C
  H73      1.0000 0.51480  0.16580  0.90750  Biso   1.000  H
  C128     1.0000 0.48080  0.10960  0.02130  Biso   1.000  C
  H74      1.0000 0.48860  0.13090  0.09220  Biso   1.000  H
  C129     1.0000 0.18700  0.10670  0.50660  Biso   1.000  C
  Co16     1.0000 0.45548  0.03592  0.42521  Biso   1.000  Co
  Co17     1.0000 0.40923  0.91013  0.56395  Biso   1.000  Co
  Co18     1.0000 0.36638  0.95605  0.28631  Biso   1.000  Co
  O56      1.0000 0.42330  0.94900  0.40590  Biso   1.000  O
  O57      1.0000 0.18041  0.08740  0.40370  Biso   1.000  O
  O58      1.0000 0.15537  0.11500  0.58380  Biso   1.000  O
  O59      1.0000 0.40593  0.99350  0.15100  Biso   1.000  O
  O60      1.0000 0.45546  0.05800  0.24460  Biso   1.000  O
  O61      1.0000 0.49244  0.11790  0.45070  Biso   1.000  O
  O62      1.0000 0.55661  0.16190  0.37830  Biso   1.000  O
  O63      1.0000 0.47699  0.01477  0.60690  Biso   1.000  O
  O64      1.0000 0.39706  0.07480  0.49390  Biso   1.000  O
  O65      1.0000 0.34531  0.03820  0.36060  Biso   1.000  O
  O66      1.0000 0.41744  0.96960  0.70090  Biso   1.000  O
  H75      1.0000 0.44200  0.92300  0.37900  Biso   1.000  H
  C130     1.0000 0.24480  0.14590  0.66340  Biso   1.000  C
  H76      1.0000 0.22080  0.16310  0.70880  Biso   1.000  H
  C131     1.0000 0.29050  0.14520  0.71000  Biso   1.000  C
  H77      1.0000 0.29640  0.15290  0.79230  Biso   1.000  H
  C132     1.0000 0.32690  0.13250  0.62800  Biso   1.000  C
  H78      1.0000 0.35710  0.14460  0.64700  Biso   1.000  H
  C133     1.0000 0.24510  0.32870  0.89100  Biso   1.000  C
  H79      1.0000 0.22300  0.29760  0.88240  Biso   1.000  H
  C134     1.0000 0.29100  0.32360  0.83500  Biso   1.000  C
  H80      1.0000 0.29820  0.31220  0.75530  Biso   1.000  H
  C135     1.0000 0.32620  0.34200  0.94200  Biso   1.000  C
  H81      1.0000 0.34970  0.31650  0.97120  Biso   1.000  H
  C136     1.0000 0.35670  0.43100  0.04810  Biso   1.000  C
  C137     1.0000 0.31790  0.39860  0.98360  Biso   1.000  C
  C138     1.0000 0.27230  0.40720  0.01850  Biso   1.000  C
  H82      1.0000 0.26610  0.43180  0.08620  Biso   1.000  H
  C139     1.0000 0.23570  0.38090  0.95730  Biso   1.000  C
  C140     1.0000 0.51250  0.34180  0.11300  Biso   1.000  C
  C141     1.0000 0.48550  0.29350  0.18340  Biso   1.000  C
  C142     1.0000 0.43690  0.29290  0.18460  Biso   1.000  C
  H83      1.0000 0.42070  0.32240  0.13980  Biso   1.000  H
  C143     1.0000 0.43680  0.46550  0.34580  Biso   1.000  C
  C144     1.0000 0.45370  0.44170  0.47060  Biso   1.000  C
  C145     1.0000 0.44320  0.47440  0.57510  Biso   1.000  C
  H84      1.0000 0.42490  0.50960  0.56940  Biso   1.000  H
  C146     1.0000 0.45960  0.45560  0.69000  Biso   1.000  C
  C147     1.0000 0.45050  0.49420  0.80160  Biso   1.000  C
  C148     1.0000 0.48580  0.40210  0.69630  Biso   1.000  C
  H85      1.0000 0.49610  0.38760  0.77160  Biso   1.000  H
  C149     1.0000 0.49670  0.36970  0.58860  Biso   1.000  C
  H86      1.0000 0.51480  0.33420  0.59250  Biso   1.000  H
  C150     1.0000 0.48080  0.39040  0.47870  Biso   1.000  C
  H87      1.0000 0.48860  0.36910  0.40780  Biso   1.000  H
  C151     1.0000 0.18700  0.39330  0.99340  Biso   1.000  C
  Co19     1.0000 0.45548  0.46408  0.07479  Biso   1.000  Co
  Co20     1.0000 0.40923  0.58987  0.93605  Biso   1.000  Co
  Co21     1.0000 0.36638  0.54395  0.21369  Biso   1.000  Co
  O67      1.0000 0.42330  0.55100  0.09410  Biso   1.000  O
  O68      1.0000 0.18041  0.41260  0.09630  Biso   1.000  O
  O69      1.0000 0.15537  0.38500  0.91620  Biso   1.000  O
  O70      1.0000 0.40593  0.50650  0.34900  Biso   1.000  O
  O71      1.0000 0.45546  0.44200  0.25540  Biso   1.000  O
  O72      1.0000 0.49244  0.38210  0.04930  Biso   1.000  O
  O73      1.0000 0.55661  0.33810  0.12170  Biso   1.000  O
  O74      1.0000 0.47699  0.48523  0.89310  Biso   1.000  O
  O75      1.0000 0.39706  0.42520  0.00610  Biso   1.000  O
  O76      1.0000 0.34531  0.46180  0.13940  Biso   1.000  O
  O77      1.0000 0.41744  0.53040  0.79910  Biso   1.000  O
  H88      1.0000 0.44200  0.57700  0.12100  Biso   1.000  H
  C152     1.0000 0.24480  0.35410  0.83660  Biso   1.000  C
  H89      1.0000 0.22080  0.33690  0.79120  Biso   1.000  H
  C153     1.0000 0.29050  0.35480  0.79000  Biso   1.000  C
  H90      1.0000 0.29640  0.34710  0.70770  Biso   1.000  H
  C154     1.0000 0.32690  0.36750  0.87200  Biso   1.000  C
  H91      1.0000 0.35710  0.35540  0.85300  Biso   1.000  H
  C155     1.0000 0.25490  0.67130  0.89100  Biso   1.000  C
  H92      1.0000 0.27700  0.70240  0.88240  Biso   1.000  H
  C156     1.0000 0.20900  0.67640  0.83500  Biso   1.000  C
  H93      1.0000 0.20180  0.68780  0.75530  Biso   1.000  H
  C157     1.0000 0.17380  0.65800  0.94200  Biso   1.000  C
  H94      1.0000 0.15030  0.68350  0.97120  Biso   1.000  H
  C158     1.0000 0.14330  0.56900  0.04810  Biso   1.000  C
  C159     1.0000 0.18210  0.60140  0.98360  Biso   1.000  C
  C160     1.0000 0.22770  0.59280  0.01850  Biso   1.000  C
  H95      1.0000 0.23390  0.56820  0.08620  Biso   1.000  H
  C161     1.0000 0.26430  0.61910  0.95730  Biso   1.000  C
  C162     1.0000 0.98750  0.65820  0.11300  Biso   1.000  C
  C163     1.0000 0.01450  0.70650  0.18340  Biso   1.000  C
  C164     1.0000 0.06310  0.70710  0.18460  Biso   1.000  C
  H96      1.0000 0.07930  0.67760  0.13980  Biso   1.000  H
  C165     1.0000 0.06320  0.53450  0.34580  Biso   1.000  C
  C166     1.0000 0.04630  0.55830  0.47060  Biso   1.000  C
  C167     1.0000 0.05680  0.52560  0.57510  Biso   1.000  C
  H97      1.0000 0.07510  0.49040  0.56940  Biso   1.000  H
  C168     1.0000 0.04040  0.54440  0.69000  Biso   1.000  C
  C169     1.0000 0.04950  0.50580  0.80160  Biso   1.000  C
  C170     1.0000 0.01420  0.59790  0.69630  Biso   1.000  C
  H98      1.0000 0.00390  0.61240  0.77160  Biso   1.000  H
  C171     1.0000 0.00330  0.63030  0.58860  Biso   1.000  C
  H99      1.0000 0.98520  0.66580  0.59250  Biso   1.000  H
  C172     1.0000 0.01920  0.60960  0.47870  Biso   1.000  C
  H100     1.0000 0.01140  0.63090  0.40780  Biso   1.000  H
  C173     1.0000 0.31300  0.60670  0.99340  Biso   1.000  C
  Co22     1.0000 0.04452  0.53592  0.07479  Biso   1.000  Co
  Co23     1.0000 0.09077  0.41013  0.93605  Biso   1.000  Co
  Co24     1.0000 0.13362  0.45605  0.21369  Biso   1.000  Co
  O78      1.0000 0.07670  0.44900  0.09410  Biso   1.000  O
  O79      1.0000 0.31959  0.58740  0.09630  Biso   1.000  O
  O80      1.0000 0.34463  0.61500  0.91620  Biso   1.000  O
  O81      1.0000 0.09407  0.49350  0.34900  Biso   1.000  O
  O82      1.0000 0.04454  0.55800  0.25540  Biso   1.000  O
  O83      1.0000 0.00756  0.61790  0.04930  Biso   1.000  O
  O84      1.0000 0.94339  0.66190  0.12170  Biso   1.000  O
  O85      1.0000 0.02301  0.51477  0.89310  Biso   1.000  O
  O86      1.0000 0.10294  0.57480  0.00610  Biso   1.000  O
  O87      1.0000 0.15469  0.53820  0.13940  Biso   1.000  O
  O88      1.0000 0.08256  0.46960  0.79910  Biso   1.000  O
  H101     1.0000 0.05800  0.42300  0.12100  Biso   1.000  H
  C174     1.0000 0.25520  0.64590  0.83660  Biso   1.000  C
  H102     1.0000 0.27920  0.66310  0.79120  Biso   1.000  H
  C175     1.0000 0.20950  0.64520  0.79000  Biso   1.000  C
  H103     1.0000 0.20360  0.65290  0.70770  Biso   1.000  H
  C176     1.0000 0.17310  0.63250  0.87200  Biso   1.000  C
  H104     1.0000 0.14290  0.64460  0.85300  Biso   1.000  H
  C177     1.0000 0.00860  0.25000  0.75000  Biso   1.000  C
  H105     1.0000 0.04090  0.25000  0.75000  Biso   1.000  H
  C178     1.0000 0.91280  0.25000  0.75000  Biso   1.000  C
  H106     1.0000 0.88050  0.25000  0.75000  Biso   1.000  H
  C179     1.0000 0.49140  0.75000  0.75000  Biso   1.000  C
  H107     1.0000 0.45910  0.75000  0.75000  Biso   1.000  H
  C180     1.0000 0.58720  0.75000  0.75000  Biso   1.000  C
  H108     1.0000 0.61950  0.75000  0.75000  Biso   1.000  H
  C181     1.0000 0.99140  0.75000  0.25000  Biso   1.000  C
  H109     1.0000 0.95910  0.75000  0.25000  Biso   1.000  H
  C182     1.0000 0.08720  0.75000  0.25000  Biso   1.000  C
  H110     1.0000 0.11950  0.75000  0.25000  Biso   1.000  H
  C183     1.0000 0.50860  0.25000  0.25000  Biso   1.000  C
  H111     1.0000 0.54090  0.25000  0.25000  Biso   1.000  H
  C184     1.0000 0.41280  0.25000  0.25000  Biso   1.000  C
  H112     1.0000 0.38050  0.25000  0.25000  Biso   1.000  H
