data_image0
_cell_length_a       21.8879
_cell_length_b       7.0573
_cell_length_c       19.2414
_cell_angle_alpha    90
_cell_angle_beta     122.344
_cell_angle_gamma    90

_symmetry_space_group_name_H-M    "P 1"
_symmetry_int_tables_number       1

loop_
  _symmetry_equiv_pos_as_xyz
  'x, y, z'

loop_
  _atom_site_label
  _atom_site_occupancy
  _atom_site_fract_x
  _atom_site_fract_y
  _atom_site_fract_z
  _atom_site_thermal_displace_type
  _atom_site_B_iso_or_equiv
  _atom_site_type_symbol
  Cd1      1.0000 0.23585  0.46950  0.22143  Biso   1.000  Cd
  O1       1.0000 0.13310  0.39170  0.08840  Biso   1.000  O
  O2       1.0000 0.16910  0.16860  0.18100  Biso   1.000  O
  O3       1.0000 0.31920  0.37280  0.19640  Biso   1.000  O
  O4       1.0000 0.33960  0.08270  0.24420  Biso   1.000  O
  N1       1.0000 0.00710  0.35900  0.94620  Biso   1.000  N
  H1       1.0000 0.97220  0.39640  0.89870  Biso   1.000  H
  H2       1.0000 0.04270  0.43410  0.97650  Biso   1.000  H
  N2       1.0000 0.44100  0.57900  0.24900  Biso   1.000  N
  H3       1.0000 0.40210  0.58960  0.24900  Biso   1.000  H
  H4       1.0000 0.46560  0.67780  0.25270  Biso   1.000  H
  N3       1.0000 0.44800  0.88700  0.26100  Biso   1.000  N
  H5       1.0000 0.41160  0.87670  0.26670  Biso   1.000  H
  H6       1.0000 0.47290  0.78880  0.26550  Biso   1.000  H
  C1       1.0000 0.12460  0.23270  0.11010  Biso   1.000  C
  C2       1.0000 0.05960  0.11560  0.05230  Biso   1.000  C
  C3       1.0000 0.00590  0.18200  0.97360  Biso   1.000  C
  C4       1.0000 0.05170  0.93560  0.07600  Biso   1.000  C
  H7       1.0000 0.08710  0.89230  0.12800  Biso   1.000  H
  C5       1.0000 0.35710  0.23000  0.22450  Biso   1.000  C
  C6       1.0000 0.43100  0.23390  0.23580  Biso   1.000  C
  C7       1.0000 0.46460  0.40150  0.24230  Biso   1.000  C
  C8       1.0000 0.46580  0.06100  0.24480  Biso   1.000  C
  Cd2      1.0000 0.73585  0.96950  0.22143  Biso   1.000  Cd
  O5       1.0000 0.63310  0.89170  0.08840  Biso   1.000  O
  O6       1.0000 0.66910  0.66860  0.18100  Biso   1.000  O
  O7       1.0000 0.81920  0.87280  0.19640  Biso   1.000  O
  O8       1.0000 0.83960  0.58270  0.24420  Biso   1.000  O
  N4       1.0000 0.50710  0.85900  0.94620  Biso   1.000  N
  H8       1.0000 0.47220  0.89640  0.89870  Biso   1.000  H
  H9       1.0000 0.54270  0.93410  0.97650  Biso   1.000  H
  N5       1.0000 0.94100  0.07900  0.24900  Biso   1.000  N
  H10      1.0000 0.90210  0.08960  0.24900  Biso   1.000  H
  H11      1.0000 0.96560  0.17780  0.25270  Biso   1.000  H
  N6       1.0000 0.94800  0.38700  0.26100  Biso   1.000  N
  H12      1.0000 0.91160  0.37670  0.26670  Biso   1.000  H
  H13      1.0000 0.97290  0.28880  0.26550  Biso   1.000  H
  C9       1.0000 0.62460  0.73270  0.11010  Biso   1.000  C
  C10      1.0000 0.55960  0.61560  0.05230  Biso   1.000  C
  C11      1.0000 0.50590  0.68200  0.97360  Biso   1.000  C
  C12      1.0000 0.55170  0.43560  0.07600  Biso   1.000  C
  H14      1.0000 0.58710  0.39230  0.12800  Biso   1.000  H
  C13      1.0000 0.85710  0.73000  0.22450  Biso   1.000  C
  C14      1.0000 0.93100  0.73390  0.23580  Biso   1.000  C
  C15      1.0000 0.96460  0.90150  0.24230  Biso   1.000  C
  C16      1.0000 0.96580  0.56100  0.24480  Biso   1.000  C
  Cd3      1.0000 0.76415  0.46950  0.27857  Biso   1.000  Cd
  O9       1.0000 0.86690  0.39170  0.41160  Biso   1.000  O
  O10      1.0000 0.83090  0.16860  0.31900  Biso   1.000  O
  O11      1.0000 0.68080  0.37280  0.30360  Biso   1.000  O
  O12      1.0000 0.66040  0.08270  0.25580  Biso   1.000  O
  N7       1.0000 0.99290  0.35900  0.55380  Biso   1.000  N
  H15      1.0000 0.02780  0.39640  0.60130  Biso   1.000  H
  H16      1.0000 0.95730  0.43410  0.52350  Biso   1.000  H
  N8       1.0000 0.55900  0.57900  0.25100  Biso   1.000  N
  H17      1.0000 0.59790  0.58960  0.25100  Biso   1.000  H
  H18      1.0000 0.53440  0.67780  0.24730  Biso   1.000  H
  N9       1.0000 0.55200  0.88700  0.23900  Biso   1.000  N
  H19      1.0000 0.58840  0.87670  0.23330  Biso   1.000  H
  H20      1.0000 0.52710  0.78880  0.23450  Biso   1.000  H
  C17      1.0000 0.87540  0.23270  0.38990  Biso   1.000  C
  C18      1.0000 0.94040  0.11560  0.44770  Biso   1.000  C
  C19      1.0000 0.99410  0.18200  0.52640  Biso   1.000  C
  C20      1.0000 0.94830  0.93560  0.42400  Biso   1.000  C
  H21      1.0000 0.91290  0.89230  0.37200  Biso   1.000  H
  C21      1.0000 0.64290  0.23000  0.27550  Biso   1.000  C
  C22      1.0000 0.56900  0.23390  0.26420  Biso   1.000  C
  C23      1.0000 0.53540  0.40150  0.25770  Biso   1.000  C
  C24      1.0000 0.53420  0.06100  0.25520  Biso   1.000  C
  Cd4      1.0000 0.26415  0.96950  0.27857  Biso   1.000  Cd
  O13      1.0000 0.36690  0.89170  0.41160  Biso   1.000  O
  O14      1.0000 0.33090  0.66860  0.31900  Biso   1.000  O
  O15      1.0000 0.18080  0.87280  0.30360  Biso   1.000  O
  O16      1.0000 0.16040  0.58270  0.25580  Biso   1.000  O
  N10      1.0000 0.49290  0.85900  0.55380  Biso   1.000  N
  H22      1.0000 0.52780  0.89640  0.60130  Biso   1.000  H
  H23      1.0000 0.45730  0.93410  0.52350  Biso   1.000  H
  N11      1.0000 0.05900  0.07900  0.25100  Biso   1.000  N
  H24      1.0000 0.09790  0.08960  0.25100  Biso   1.000  H
  H25      1.0000 0.03440  0.17780  0.24730  Biso   1.000  H
  N12      1.0000 0.05200  0.38700  0.23900  Biso   1.000  N
  H26      1.0000 0.08840  0.37670  0.23330  Biso   1.000  H
  H27      1.0000 0.02710  0.28880  0.23450  Biso   1.000  H
  C25      1.0000 0.37540  0.73270  0.38990  Biso   1.000  C
  C26      1.0000 0.44040  0.61560  0.44770  Biso   1.000  C
  C27      1.0000 0.49410  0.68200  0.52640  Biso   1.000  C
  C28      1.0000 0.44830  0.43560  0.42400  Biso   1.000  C
  H28      1.0000 0.41290  0.39230  0.37200  Biso   1.000  H
  C29      1.0000 0.14290  0.73000  0.27550  Biso   1.000  C
  C30      1.0000 0.06900  0.73390  0.26420  Biso   1.000  C
  C31      1.0000 0.03540  0.90150  0.25770  Biso   1.000  C
  C32      1.0000 0.03420  0.56100  0.25520  Biso   1.000  C
  Cd5      1.0000 0.76415  0.53050  0.77857  Biso   1.000  Cd
  O17      1.0000 0.86690  0.60830  0.91160  Biso   1.000  O
  O18      1.0000 0.83090  0.83140  0.81900  Biso   1.000  O
  O19      1.0000 0.68080  0.62720  0.80360  Biso   1.000  O
  O20      1.0000 0.66040  0.91730  0.75580  Biso   1.000  O
  N13      1.0000 0.99290  0.64100  0.05380  Biso   1.000  N
  H29      1.0000 0.02780  0.60360  0.10130  Biso   1.000  H
  H30      1.0000 0.95730  0.56590  0.02350  Biso   1.000  H
  N14      1.0000 0.55900  0.42100  0.75100  Biso   1.000  N
  H31      1.0000 0.59790  0.41040  0.75100  Biso   1.000  H
  H32      1.0000 0.53440  0.32220  0.74730  Biso   1.000  H
  N15      1.0000 0.55200  0.11300  0.73900  Biso   1.000  N
  H33      1.0000 0.58840  0.12330  0.73330  Biso   1.000  H
  H34      1.0000 0.52710  0.21120  0.73450  Biso   1.000  H
  C33      1.0000 0.87540  0.76730  0.88990  Biso   1.000  C
  C34      1.0000 0.94040  0.88440  0.94770  Biso   1.000  C
  C35      1.0000 0.99410  0.81800  0.02640  Biso   1.000  C
  C36      1.0000 0.94830  0.06440  0.92400  Biso   1.000  C
  H35      1.0000 0.91290  0.10770  0.87200  Biso   1.000  H
  C37      1.0000 0.64290  0.77000  0.77550  Biso   1.000  C
  C38      1.0000 0.56900  0.76610  0.76420  Biso   1.000  C
  C39      1.0000 0.53540  0.59850  0.75770  Biso   1.000  C
  C40      1.0000 0.53420  0.93900  0.75520  Biso   1.000  C
  Cd6      1.0000 0.26415  0.03050  0.77857  Biso   1.000  Cd
  O21      1.0000 0.36690  0.10830  0.91160  Biso   1.000  O
  O22      1.0000 0.33090  0.33140  0.81900  Biso   1.000  O
  O23      1.0000 0.18080  0.12720  0.80360  Biso   1.000  O
  O24      1.0000 0.16040  0.41730  0.75580  Biso   1.000  O
  N16      1.0000 0.49290  0.14100  0.05380  Biso   1.000  N
  H36      1.0000 0.52780  0.10360  0.10130  Biso   1.000  H
  H37      1.0000 0.45730  0.06590  0.02350  Biso   1.000  H
  N17      1.0000 0.05900  0.92100  0.75100  Biso   1.000  N
  H38      1.0000 0.09790  0.91040  0.75100  Biso   1.000  H
  H39      1.0000 0.03440  0.82220  0.74730  Biso   1.000  H
  N18      1.0000 0.05200  0.61300  0.73900  Biso   1.000  N
  H40      1.0000 0.08840  0.62330  0.73330  Biso   1.000  H
  H41      1.0000 0.02710  0.71120  0.73450  Biso   1.000  H
  C41      1.0000 0.37540  0.26730  0.88990  Biso   1.000  C
  C42      1.0000 0.44040  0.38440  0.94770  Biso   1.000  C
  C43      1.0000 0.49410  0.31800  0.02640  Biso   1.000  C
  C44      1.0000 0.44830  0.56440  0.92400  Biso   1.000  C
  H42      1.0000 0.41290  0.60770  0.87200  Biso   1.000  H
  C45      1.0000 0.14290  0.27000  0.77550  Biso   1.000  C
  C46      1.0000 0.06900  0.26610  0.76420  Biso   1.000  C
  C47      1.0000 0.03540  0.09850  0.75770  Biso   1.000  C
  C48      1.0000 0.03420  0.43900  0.75520  Biso   1.000  C
  Cd7      1.0000 0.23585  0.53050  0.72143  Biso   1.000  Cd
  O25      1.0000 0.13310  0.60830  0.58840  Biso   1.000  O
  O26      1.0000 0.16910  0.83140  0.68100  Biso   1.000  O
  O27      1.0000 0.31920  0.62720  0.69640  Biso   1.000  O
  O28      1.0000 0.33960  0.91730  0.74420  Biso   1.000  O
  N19      1.0000 0.00710  0.64100  0.44620  Biso   1.000  N
  H43      1.0000 0.97220  0.60360  0.39870  Biso   1.000  H
  H44      1.0000 0.04270  0.56590  0.47650  Biso   1.000  H
  N20      1.0000 0.44100  0.42100  0.74900  Biso   1.000  N
  H45      1.0000 0.40210  0.41040  0.74900  Biso   1.000  H
  H46      1.0000 0.46560  0.32220  0.75270  Biso   1.000  H
  N21      1.0000 0.44800  0.11300  0.76100  Biso   1.000  N
  H47      1.0000 0.41160  0.12330  0.76670  Biso   1.000  H
  H48      1.0000 0.47290  0.21120  0.76550  Biso   1.000  H
  C49      1.0000 0.12460  0.76730  0.61010  Biso   1.000  C
  C50      1.0000 0.05960  0.88440  0.55230  Biso   1.000  C
  C51      1.0000 0.00590  0.81800  0.47360  Biso   1.000  C
  C52      1.0000 0.05170  0.06440  0.57600  Biso   1.000  C
  H49      1.0000 0.08710  0.10770  0.62800  Biso   1.000  H
  C53      1.0000 0.35710  0.77000  0.72450  Biso   1.000  C
  C54      1.0000 0.43100  0.76610  0.73580  Biso   1.000  C
  C55      1.0000 0.46460  0.59850  0.74230  Biso   1.000  C
  C56      1.0000 0.46580  0.93900  0.74480  Biso   1.000  C
  Cd8      1.0000 0.73585  0.03050  0.72143  Biso   1.000  Cd
  O29      1.0000 0.63310  0.10830  0.58840  Biso   1.000  O
  O30      1.0000 0.66910  0.33140  0.68100  Biso   1.000  O
  O31      1.0000 0.81920  0.12720  0.69640  Biso   1.000  O
  O32      1.0000 0.83960  0.41730  0.74420  Biso   1.000  O
  N22      1.0000 0.50710  0.14100  0.44620  Biso   1.000  N
  H50      1.0000 0.47220  0.10360  0.39870  Biso   1.000  H
  H51      1.0000 0.54270  0.06590  0.47650  Biso   1.000  H
  N23      1.0000 0.94100  0.92100  0.74900  Biso   1.000  N
  H52      1.0000 0.90210  0.91040  0.74900  Biso   1.000  H
  H53      1.0000 0.96560  0.82220  0.75270  Biso   1.000  H
  N24      1.0000 0.94800  0.61300  0.76100  Biso   1.000  N
  H54      1.0000 0.91160  0.62330  0.76670  Biso   1.000  H
  H55      1.0000 0.97290  0.71120  0.76550  Biso   1.000  H
  C57      1.0000 0.62460  0.26730  0.61010  Biso   1.000  C
  C58      1.0000 0.55960  0.38440  0.55230  Biso   1.000  C
  C59      1.0000 0.50590  0.31800  0.47360  Biso   1.000  C
  C60      1.0000 0.55170  0.56440  0.57600  Biso   1.000  C
  H56      1.0000 0.58710  0.60770  0.62800  Biso   1.000  H
  C61      1.0000 0.85710  0.27000  0.72450  Biso   1.000  C
  C62      1.0000 0.93100  0.26610  0.73580  Biso   1.000  C
  C63      1.0000 0.96460  0.09850  0.74230  Biso   1.000  C
  C64      1.0000 0.96580  0.43900  0.74480  Biso   1.000  C
