data_image0
_cell_length_a       10.024
_cell_length_b       18.725
_cell_length_c       24.813
_cell_angle_alpha    90
_cell_angle_beta     90
_cell_angle_gamma    90

_symmetry_space_group_name_H-M    "P 1"
_symmetry_int_tables_number       1

loop_
  _symmetry_equiv_pos_as_xyz
  'x, y, z'

loop_
  _atom_site_label
  _atom_site_occupancy
  _atom_site_fract_x
  _atom_site_fract_y
  _atom_site_fract_z
  _atom_site_thermal_displace_type
  _atom_site_B_iso_or_equiv
  _atom_site_type_symbol
  Rh1      1.0000 0.30612  0.17106  0.11315  Biso   1.000  Rh
  Ag1      1.0000 0.37512  0.21471  0.96284  Biso   1.000  Ag
  S1       1.0000 0.32003  0.26256  0.05059  Biso   1.000  S
  S2       1.0000 0.29342  0.08266  0.04771  Biso   1.000  S
  S3       1.0000 0.53499  0.16002  0.11771  Biso   1.000  S
  O1       1.0000 0.84550  0.22890  0.08950  Biso   1.000  O
  O2       1.0000 0.89650  0.34430  0.09270  Biso   1.000  O
  O3       1.0000 0.22500  0.96840  0.22820  Biso   1.000  O
  O4       1.0000 0.12970  0.91170  0.16290  Biso   1.000  O
  H1       1.0000 0.12780  0.87830  0.18550  Biso   1.000  H
  O5       1.0000 0.37020  0.30400  0.27590  Biso   1.000  O
  O6       1.0000 0.58900  0.31230  0.26320  Biso   1.000  O
  H2       1.0000 0.64590  0.29440  0.24230  Biso   1.000  H
  N1       1.0000 0.09940  0.18940  0.11081  Biso   1.000  N
  H3       1.0000 0.06050  0.16010  0.08560  Biso   1.000  H
  H4       1.0000 0.06240  0.17930  0.14390  Biso   1.000  H
  N2       1.0000 0.27700  0.08750  0.16821  Biso   1.000  N
  H5       1.0000 0.35830  0.07270  0.18130  Biso   1.000  H
  H6       1.0000 0.22730  0.10380  0.19680  Biso   1.000  H
  N3       1.0000 0.32790  0.24300  0.17712  Biso   1.000  N
  H7       1.0000 0.32680  0.28890  0.16380  Biso   1.000  H
  H8       1.0000 0.25680  0.23810  0.20030  Biso   1.000  H
  C1       1.0000 0.14270  0.28090  0.04360  Biso   1.000  C
  H9       1.0000 0.12890  0.33160  0.03370  Biso   1.000  H
  H10      1.0000 0.10430  0.25070  0.01470  Biso   1.000  H
  C2       1.0000 0.07420  0.26490  0.09680  Biso   1.000  C
  H11      1.0000 0.11290  0.29620  0.12540  Biso   1.000  H
  C3       1.0000 0.92530  0.27980  0.09210  Biso   1.000  C
  C4       1.0000 0.28560  0.00560  0.09357  Biso   1.000  C
  H12      1.0000 0.24090  0.96500  0.07550  Biso   1.000  H
  H13      1.0000 0.37690  0.99060  0.10380  Biso   1.000  H
  C5       1.0000 0.20860  0.02710  0.14300  Biso   1.000  C
  H14      1.0000 0.11630  0.04180  0.13240  Biso   1.000  H
  C6       1.0000 0.20090  0.96460  0.18210  Biso   1.000  C
  C7       1.0000 0.56720  0.22930  0.16790  Biso   1.000  C
  H15      1.0000 0.65130  0.21880  0.18730  Biso   1.000  H
  H16      1.0000 0.57670  0.27620  0.14990  Biso   1.000  H
  C8       1.0000 0.45270  0.23150  0.20720  Biso   1.000  C
  H17      1.0000 0.44670  0.18330  0.22440  Biso   1.000  H
  C9       1.0000 0.46990  0.28570  0.25210  Biso   1.000  C
  O7       1.0000 0.84050  0.24110  0.10130  Biso   1.000  O
  O8       1.0000 0.90520  0.35010  0.07650  Biso   1.000  O
  H18      1.0000 0.82300  0.35820  0.07400  Biso   1.000  H
  O9       1.0000 0.29310  0.95480  0.21640  Biso   1.000  O
  O10      1.0000 0.10920  0.92410  0.17610  Biso   1.000  O
  O11      1.0000 0.36840  0.32490  0.26090  Biso   1.000  O
  H19      1.0000 0.38520  0.35340  0.28610  Biso   1.000  H
  O12      1.0000 0.57580  0.29180  0.27700  Biso   1.000  O
  Rh2      1.0000 0.80612  0.67106  0.61315  Biso   1.000  Rh
  Ag2      1.0000 0.87512  0.71471  0.46284  Biso   1.000  Ag
  S4       1.0000 0.82003  0.76256  0.55059  Biso   1.000  S
  S5       1.0000 0.79342  0.58266  0.54771  Biso   1.000  S
  S6       1.0000 0.03499  0.66002  0.61771  Biso   1.000  S
  O13      1.0000 0.34550  0.72890  0.58950  Biso   1.000  O
  O14      1.0000 0.39650  0.84430  0.59270  Biso   1.000  O
  O15      1.0000 0.72500  0.46840  0.72820  Biso   1.000  O
  O16      1.0000 0.62970  0.41170  0.66290  Biso   1.000  O
  H20      1.0000 0.62780  0.37830  0.68550  Biso   1.000  H
  O17      1.0000 0.87020  0.80400  0.77590  Biso   1.000  O
  O18      1.0000 0.08900  0.81230  0.76320  Biso   1.000  O
  H21      1.0000 0.14590  0.79440  0.74230  Biso   1.000  H
  N4       1.0000 0.59940  0.68940  0.61081  Biso   1.000  N
  H22      1.0000 0.56050  0.66010  0.58560  Biso   1.000  H
  H23      1.0000 0.56240  0.67930  0.64390  Biso   1.000  H
  N5       1.0000 0.77700  0.58750  0.66821  Biso   1.000  N
  H24      1.0000 0.85830  0.57270  0.68130  Biso   1.000  H
  H25      1.0000 0.72730  0.60380  0.69680  Biso   1.000  H
  N6       1.0000 0.82790  0.74300  0.67712  Biso   1.000  N
  H26      1.0000 0.82680  0.78890  0.66380  Biso   1.000  H
  H27      1.0000 0.75680  0.73810  0.70030  Biso   1.000  H
  C10      1.0000 0.64270  0.78090  0.54360  Biso   1.000  C
  H28      1.0000 0.62890  0.83160  0.53370  Biso   1.000  H
  H29      1.0000 0.60430  0.75070  0.51470  Biso   1.000  H
  C11      1.0000 0.57420  0.76490  0.59680  Biso   1.000  C
  H30      1.0000 0.61290  0.79620  0.62540  Biso   1.000  H
  C12      1.0000 0.42530  0.77980  0.59210  Biso   1.000  C
  C13      1.0000 0.78560  0.50560  0.59357  Biso   1.000  C
  H31      1.0000 0.74090  0.46500  0.57550  Biso   1.000  H
  H32      1.0000 0.87690  0.49060  0.60380  Biso   1.000  H
  C14      1.0000 0.70860  0.52710  0.64300  Biso   1.000  C
  H33      1.0000 0.61630  0.54180  0.63240  Biso   1.000  H
  C15      1.0000 0.70090  0.46460  0.68210  Biso   1.000  C
  C16      1.0000 0.06720  0.72930  0.66790  Biso   1.000  C
  H34      1.0000 0.15130  0.71880  0.68730  Biso   1.000  H
  H35      1.0000 0.07670  0.77620  0.64990  Biso   1.000  H
  C17      1.0000 0.95270  0.73150  0.70720  Biso   1.000  C
  H36      1.0000 0.94670  0.68330  0.72440  Biso   1.000  H
  C18      1.0000 0.96990  0.78570  0.75210  Biso   1.000  C
  O19      1.0000 0.34050  0.74110  0.60130  Biso   1.000  O
  O20      1.0000 0.40520  0.85010  0.57650  Biso   1.000  O
  H37      1.0000 0.32300  0.85820  0.57400  Biso   1.000  H
  O21      1.0000 0.79310  0.45480  0.71640  Biso   1.000  O
  O22      1.0000 0.60920  0.42410  0.67610  Biso   1.000  O
  O23      1.0000 0.86840  0.82490  0.76090  Biso   1.000  O
  H38      1.0000 0.88520  0.85340  0.78610  Biso   1.000  H
  O24      1.0000 0.07580  0.79180  0.77700  Biso   1.000  O
  Rh3      1.0000 0.69388  0.82894  0.11315  Biso   1.000  Rh
  Ag3      1.0000 0.62488  0.78529  0.96284  Biso   1.000  Ag
  S7       1.0000 0.67997  0.73744  0.05059  Biso   1.000  S
  S8       1.0000 0.70658  0.91734  0.04771  Biso   1.000  S
  S9       1.0000 0.46501  0.83998  0.11771  Biso   1.000  S
  O25      1.0000 0.15450  0.77110  0.08950  Biso   1.000  O
  O26      1.0000 0.10350  0.65570  0.09270  Biso   1.000  O
  O27      1.0000 0.77500  0.03160  0.22820  Biso   1.000  O
  O28      1.0000 0.87030  0.08830  0.16290  Biso   1.000  O
  H39      1.0000 0.87220  0.12170  0.18550  Biso   1.000  H
  O29      1.0000 0.62980  0.69600  0.27590  Biso   1.000  O
  O30      1.0000 0.41100  0.68770  0.26320  Biso   1.000  O
  H40      1.0000 0.35410  0.70560  0.24230  Biso   1.000  H
  N7       1.0000 0.90060  0.81060  0.11081  Biso   1.000  N
  H41      1.0000 0.93950  0.83990  0.08560  Biso   1.000  H
  H42      1.0000 0.93760  0.82070  0.14390  Biso   1.000  H
  N8       1.0000 0.72300  0.91250  0.16821  Biso   1.000  N
  H43      1.0000 0.64170  0.92730  0.18130  Biso   1.000  H
  H44      1.0000 0.77270  0.89620  0.19680  Biso   1.000  H
  N9       1.0000 0.67210  0.75700  0.17712  Biso   1.000  N
  H45      1.0000 0.67320  0.71110  0.16380  Biso   1.000  H
  H46      1.0000 0.74320  0.76190  0.20030  Biso   1.000  H
  C19      1.0000 0.85730  0.71910  0.04360  Biso   1.000  C
  H47      1.0000 0.87110  0.66840  0.03370  Biso   1.000  H
  H48      1.0000 0.89570  0.74930  0.01470  Biso   1.000  H
  C20      1.0000 0.92580  0.73510  0.09680  Biso   1.000  C
  H49      1.0000 0.88710  0.70380  0.12540  Biso   1.000  H
  C21      1.0000 0.07470  0.72020  0.09210  Biso   1.000  C
  C22      1.0000 0.71440  0.99440  0.09357  Biso   1.000  C
  H50      1.0000 0.75910  0.03500  0.07550  Biso   1.000  H
  H51      1.0000 0.62310  0.00940  0.10380  Biso   1.000  H
  C23      1.0000 0.79140  0.97290  0.14300  Biso   1.000  C
  H52      1.0000 0.88370  0.95820  0.13240  Biso   1.000  H
  C24      1.0000 0.79910  0.03540  0.18210  Biso   1.000  C
  C25      1.0000 0.43280  0.77070  0.16790  Biso   1.000  C
  H53      1.0000 0.34870  0.78120  0.18730  Biso   1.000  H
  H54      1.0000 0.42330  0.72380  0.14990  Biso   1.000  H
  C26      1.0000 0.54730  0.76850  0.20720  Biso   1.000  C
  H55      1.0000 0.55330  0.81670  0.22440  Biso   1.000  H
  C27      1.0000 0.53010  0.71430  0.25210  Biso   1.000  C
  O31      1.0000 0.15950  0.75890  0.10130  Biso   1.000  O
  O32      1.0000 0.09480  0.64990  0.07650  Biso   1.000  O
  H56      1.0000 0.17700  0.64180  0.07400  Biso   1.000  H
  O33      1.0000 0.70690  0.04520  0.21640  Biso   1.000  O
  O34      1.0000 0.89080  0.07590  0.17610  Biso   1.000  O
  O35      1.0000 0.63160  0.67510  0.26090  Biso   1.000  O
  H57      1.0000 0.61480  0.64660  0.28610  Biso   1.000  H
  O36      1.0000 0.42420  0.70820  0.27700  Biso   1.000  O
  Rh4      1.0000 0.19388  0.32894  0.61315  Biso   1.000  Rh
  Ag4      1.0000 0.12488  0.28529  0.46284  Biso   1.000  Ag
  S10      1.0000 0.17997  0.23744  0.55059  Biso   1.000  S
  S11      1.0000 0.20658  0.41734  0.54771  Biso   1.000  S
  S12      1.0000 0.96501  0.33998  0.61771  Biso   1.000  S
  O37      1.0000 0.65450  0.27110  0.58950  Biso   1.000  O
  O38      1.0000 0.60350  0.15570  0.59270  Biso   1.000  O
  O39      1.0000 0.27500  0.53160  0.72820  Biso   1.000  O
  O40      1.0000 0.37030  0.58830  0.66290  Biso   1.000  O
  H58      1.0000 0.37220  0.62170  0.68550  Biso   1.000  H
  O41      1.0000 0.12980  0.19600  0.77590  Biso   1.000  O
  O42      1.0000 0.91100  0.18770  0.76320  Biso   1.000  O
  H59      1.0000 0.85410  0.20560  0.74230  Biso   1.000  H
  N10      1.0000 0.40060  0.31060  0.61081  Biso   1.000  N
  H60      1.0000 0.43950  0.33990  0.58560  Biso   1.000  H
  H61      1.0000 0.43760  0.32070  0.64390  Biso   1.000  H
  N11      1.0000 0.22300  0.41250  0.66821  Biso   1.000  N
  H62      1.0000 0.14170  0.42730  0.68130  Biso   1.000  H
  H63      1.0000 0.27270  0.39620  0.69680  Biso   1.000  H
  N12      1.0000 0.17210  0.25700  0.67712  Biso   1.000  N
  H64      1.0000 0.17320  0.21110  0.66380  Biso   1.000  H
  H65      1.0000 0.24320  0.26190  0.70030  Biso   1.000  H
  C28      1.0000 0.35730  0.21910  0.54360  Biso   1.000  C
  H66      1.0000 0.37110  0.16840  0.53370  Biso   1.000  H
  H67      1.0000 0.39570  0.24930  0.51470  Biso   1.000  H
  C29      1.0000 0.42580  0.23510  0.59680  Biso   1.000  C
  H68      1.0000 0.38710  0.20380  0.62540  Biso   1.000  H
  C30      1.0000 0.57470  0.22020  0.59210  Biso   1.000  C
  C31      1.0000 0.21440  0.49440  0.59357  Biso   1.000  C
  H69      1.0000 0.25910  0.53500  0.57550  Biso   1.000  H
  H70      1.0000 0.12310  0.50940  0.60380  Biso   1.000  H
  C32      1.0000 0.29140  0.47290  0.64300  Biso   1.000  C
  H71      1.0000 0.38370  0.45820  0.63240  Biso   1.000  H
  C33      1.0000 0.29910  0.53540  0.68210  Biso   1.000  C
  C34      1.0000 0.93280  0.27070  0.66790  Biso   1.000  C
  H72      1.0000 0.84870  0.28120  0.68730  Biso   1.000  H
  H73      1.0000 0.92330  0.22380  0.64990  Biso   1.000  H
  C35      1.0000 0.04730  0.26850  0.70720  Biso   1.000  C
  H74      1.0000 0.05330  0.31670  0.72440  Biso   1.000  H
  C36      1.0000 0.03010  0.21430  0.75210  Biso   1.000  C
  O43      1.0000 0.65950  0.25890  0.60130  Biso   1.000  O
  O44      1.0000 0.59480  0.14990  0.57650  Biso   1.000  O
  H75      1.0000 0.67700  0.14180  0.57400  Biso   1.000  H
  O45      1.0000 0.20690  0.54520  0.71640  Biso   1.000  O
  O46      1.0000 0.39080  0.57590  0.67610  Biso   1.000  O
  O47      1.0000 0.13160  0.17510  0.76090  Biso   1.000  O
  H76      1.0000 0.11480  0.14660  0.78610  Biso   1.000  H
  O48      1.0000 0.92420  0.20820  0.77700  Biso   1.000  O
  Rh5      1.0000 0.69388  0.17106  0.88685  Biso   1.000  Rh
  Ag5      1.0000 0.62488  0.21471  0.03716  Biso   1.000  Ag
  S13      1.0000 0.67997  0.26256  0.94941  Biso   1.000  S
  S14      1.0000 0.70658  0.08266  0.95229  Biso   1.000  S
  S15      1.0000 0.46501  0.16002  0.88229  Biso   1.000  S
  O49      1.0000 0.15450  0.22890  0.91050  Biso   1.000  O
  O50      1.0000 0.10350  0.34430  0.90730  Biso   1.000  O
  O51      1.0000 0.77500  0.96840  0.77180  Biso   1.000  O
  O52      1.0000 0.87030  0.91170  0.83710  Biso   1.000  O
  H77      1.0000 0.87220  0.87830  0.81450  Biso   1.000  H
  O53      1.0000 0.62980  0.30400  0.72410  Biso   1.000  O
  O54      1.0000 0.41100  0.31230  0.73680  Biso   1.000  O
  H78      1.0000 0.35410  0.29440  0.75770  Biso   1.000  H
  N13      1.0000 0.90060  0.18940  0.88919  Biso   1.000  N
  H79      1.0000 0.93950  0.16010  0.91440  Biso   1.000  H
  H80      1.0000 0.93760  0.17930  0.85610  Biso   1.000  H
  N14      1.0000 0.72300  0.08750  0.83179  Biso   1.000  N
  H81      1.0000 0.64170  0.07270  0.81870  Biso   1.000  H
  H82      1.0000 0.77270  0.10380  0.80320  Biso   1.000  H
  N15      1.0000 0.67210  0.24300  0.82288  Biso   1.000  N
  H83      1.0000 0.67320  0.28890  0.83620  Biso   1.000  H
  H84      1.0000 0.74320  0.23810  0.79970  Biso   1.000  H
  C37      1.0000 0.85730  0.28090  0.95640  Biso   1.000  C
  H85      1.0000 0.87110  0.33160  0.96630  Biso   1.000  H
  H86      1.0000 0.89570  0.25070  0.98530  Biso   1.000  H
  C38      1.0000 0.92580  0.26490  0.90320  Biso   1.000  C
  H87      1.0000 0.88710  0.29620  0.87460  Biso   1.000  H
  C39      1.0000 0.07470  0.27980  0.90790  Biso   1.000  C
  C40      1.0000 0.71440  0.00560  0.90643  Biso   1.000  C
  H88      1.0000 0.75910  0.96500  0.92450  Biso   1.000  H
  H89      1.0000 0.62310  0.99060  0.89620  Biso   1.000  H
  C41      1.0000 0.79140  0.02710  0.85700  Biso   1.000  C
  H90      1.0000 0.88370  0.04180  0.86760  Biso   1.000  H
  C42      1.0000 0.79910  0.96460  0.81790  Biso   1.000  C
  C43      1.0000 0.43280  0.22930  0.83210  Biso   1.000  C
  H91      1.0000 0.34870  0.21880  0.81270  Biso   1.000  H
  H92      1.0000 0.42330  0.27620  0.85010  Biso   1.000  H
  C44      1.0000 0.54730  0.23150  0.79280  Biso   1.000  C
  H93      1.0000 0.55330  0.18330  0.77560  Biso   1.000  H
  C45      1.0000 0.53010  0.28570  0.74790  Biso   1.000  C
  O55      1.0000 0.15950  0.24110  0.89870  Biso   1.000  O
  O56      1.0000 0.09480  0.35010  0.92350  Biso   1.000  O
  H94      1.0000 0.17700  0.35820  0.92600  Biso   1.000  H
  O57      1.0000 0.70690  0.95480  0.78360  Biso   1.000  O
  O58      1.0000 0.89080  0.92410  0.82390  Biso   1.000  O
  O59      1.0000 0.63160  0.32490  0.73910  Biso   1.000  O
  H95      1.0000 0.61480  0.35340  0.71390  Biso   1.000  H
  O60      1.0000 0.42420  0.29180  0.72300  Biso   1.000  O
  Rh6      1.0000 0.19388  0.67106  0.38685  Biso   1.000  Rh
  Ag6      1.0000 0.12488  0.71471  0.53716  Biso   1.000  Ag
  S16      1.0000 0.17997  0.76256  0.44941  Biso   1.000  S
  S17      1.0000 0.20658  0.58266  0.45229  Biso   1.000  S
  S18      1.0000 0.96501  0.66002  0.38229  Biso   1.000  S
  O61      1.0000 0.65450  0.72890  0.41050  Biso   1.000  O
  O62      1.0000 0.60350  0.84430  0.40730  Biso   1.000  O
  O63      1.0000 0.27500  0.46840  0.27180  Biso   1.000  O
  O64      1.0000 0.37030  0.41170  0.33710  Biso   1.000  O
  H96      1.0000 0.37220  0.37830  0.31450  Biso   1.000  H
  O65      1.0000 0.12980  0.80400  0.22410  Biso   1.000  O
  O66      1.0000 0.91100  0.81230  0.23680  Biso   1.000  O
  H97      1.0000 0.85410  0.79440  0.25770  Biso   1.000  H
  N16      1.0000 0.40060  0.68940  0.38919  Biso   1.000  N
  H98      1.0000 0.43950  0.66010  0.41440  Biso   1.000  H
  H99      1.0000 0.43760  0.67930  0.35610  Biso   1.000  H
  N17      1.0000 0.22300  0.58750  0.33179  Biso   1.000  N
  H100     1.0000 0.14170  0.57270  0.31870  Biso   1.000  H
  H101     1.0000 0.27270  0.60380  0.30320  Biso   1.000  H
  N18      1.0000 0.17210  0.74300  0.32288  Biso   1.000  N
  H102     1.0000 0.17320  0.78890  0.33620  Biso   1.000  H
  H103     1.0000 0.24320  0.73810  0.29970  Biso   1.000  H
  C46      1.0000 0.35730  0.78090  0.45640  Biso   1.000  C
  H104     1.0000 0.37110  0.83160  0.46630  Biso   1.000  H
  H105     1.0000 0.39570  0.75070  0.48530  Biso   1.000  H
  C47      1.0000 0.42580  0.76490  0.40320  Biso   1.000  C
  H106     1.0000 0.38710  0.79620  0.37460  Biso   1.000  H
  C48      1.0000 0.57470  0.77980  0.40790  Biso   1.000  C
  C49      1.0000 0.21440  0.50560  0.40643  Biso   1.000  C
  H107     1.0000 0.25910  0.46500  0.42450  Biso   1.000  H
  H108     1.0000 0.12310  0.49060  0.39620  Biso   1.000  H
  C50      1.0000 0.29140  0.52710  0.35700  Biso   1.000  C
  H109     1.0000 0.38370  0.54180  0.36760  Biso   1.000  H
  C51      1.0000 0.29910  0.46460  0.31790  Biso   1.000  C
  C52      1.0000 0.93280  0.72930  0.33210  Biso   1.000  C
  H110     1.0000 0.84870  0.71880  0.31270  Biso   1.000  H
  H111     1.0000 0.92330  0.77620  0.35010  Biso   1.000  H
  C53      1.0000 0.04730  0.73150  0.29280  Biso   1.000  C
  H112     1.0000 0.05330  0.68330  0.27560  Biso   1.000  H
  C54      1.0000 0.03010  0.78570  0.24790  Biso   1.000  C
  O67      1.0000 0.65950  0.74110  0.39870  Biso   1.000  O
  O68      1.0000 0.59480  0.85010  0.42350  Biso   1.000  O
  H113     1.0000 0.67700  0.85820  0.42600  Biso   1.000  H
  O69      1.0000 0.20690  0.45480  0.28360  Biso   1.000  O
  O70      1.0000 0.39080  0.42410  0.32390  Biso   1.000  O
  O71      1.0000 0.13160  0.82490  0.23910  Biso   1.000  O
  H114     1.0000 0.11480  0.85340  0.21390  Biso   1.000  H
  O72      1.0000 0.92420  0.79180  0.22300  Biso   1.000  O
  Rh7      1.0000 0.30612  0.82894  0.88685  Biso   1.000  Rh
  Ag7      1.0000 0.37512  0.78529  0.03716  Biso   1.000  Ag
  S19      1.0000 0.32003  0.73744  0.94941  Biso   1.000  S
  S20      1.0000 0.29342  0.91734  0.95229  Biso   1.000  S
  S21      1.0000 0.53499  0.83998  0.88229  Biso   1.000  S
  O73      1.0000 0.84550  0.77110  0.91050  Biso   1.000  O
  O74      1.0000 0.89650  0.65570  0.90730  Biso   1.000  O
  O75      1.0000 0.22500  0.03160  0.77180  Biso   1.000  O
  O76      1.0000 0.12970  0.08830  0.83710  Biso   1.000  O
  H115     1.0000 0.12780  0.12170  0.81450  Biso   1.000  H
  O77      1.0000 0.37020  0.69600  0.72410  Biso   1.000  O
  O78      1.0000 0.58900  0.68770  0.73680  Biso   1.000  O
  H116     1.0000 0.64590  0.70560  0.75770  Biso   1.000  H
  N19      1.0000 0.09940  0.81060  0.88919  Biso   1.000  N
  H117     1.0000 0.06050  0.83990  0.91440  Biso   1.000  H
  H118     1.0000 0.06240  0.82070  0.85610  Biso   1.000  H
  N20      1.0000 0.27700  0.91250  0.83179  Biso   1.000  N
  H119     1.0000 0.35830  0.92730  0.81870  Biso   1.000  H
  H120     1.0000 0.22730  0.89620  0.80320  Biso   1.000  H
  N21      1.0000 0.32790  0.75700  0.82288  Biso   1.000  N
  H121     1.0000 0.32680  0.71110  0.83620  Biso   1.000  H
  H122     1.0000 0.25680  0.76190  0.79970  Biso   1.000  H
  C55      1.0000 0.14270  0.71910  0.95640  Biso   1.000  C
  H123     1.0000 0.12890  0.66840  0.96630  Biso   1.000  H
  H124     1.0000 0.10430  0.74930  0.98530  Biso   1.000  H
  C56      1.0000 0.07420  0.73510  0.90320  Biso   1.000  C
  H125     1.0000 0.11290  0.70380  0.87460  Biso   1.000  H
  C57      1.0000 0.92530  0.72020  0.90790  Biso   1.000  C
  C58      1.0000 0.28560  0.99440  0.90643  Biso   1.000  C
  H126     1.0000 0.24090  0.03500  0.92450  Biso   1.000  H
  H127     1.0000 0.37690  0.00940  0.89620  Biso   1.000  H
  C59      1.0000 0.20860  0.97290  0.85700  Biso   1.000  C
  H128     1.0000 0.11630  0.95820  0.86760  Biso   1.000  H
  C60      1.0000 0.20090  0.03540  0.81790  Biso   1.000  C
  C61      1.0000 0.56720  0.77070  0.83210  Biso   1.000  C
  H129     1.0000 0.65130  0.78120  0.81270  Biso   1.000  H
  H130     1.0000 0.57670  0.72380  0.85010  Biso   1.000  H
  C62      1.0000 0.45270  0.76850  0.79280  Biso   1.000  C
  H131     1.0000 0.44670  0.81670  0.77560  Biso   1.000  H
  C63      1.0000 0.46990  0.71430  0.74790  Biso   1.000  C
  O79      1.0000 0.84050  0.75890  0.89870  Biso   1.000  O
  O80      1.0000 0.90520  0.64990  0.92350  Biso   1.000  O
  H132     1.0000 0.82300  0.64180  0.92600  Biso   1.000  H
  O81      1.0000 0.29310  0.04520  0.78360  Biso   1.000  O
  O82      1.0000 0.10920  0.07590  0.82390  Biso   1.000  O
  O83      1.0000 0.36840  0.67510  0.73910  Biso   1.000  O
  H133     1.0000 0.38520  0.64660  0.71390  Biso   1.000  H
  O84      1.0000 0.57580  0.70820  0.72300  Biso   1.000  O
  Rh8      1.0000 0.80612  0.32894  0.38685  Biso   1.000  Rh
  Ag8      1.0000 0.87512  0.28529  0.53716  Biso   1.000  Ag
  S22      1.0000 0.82003  0.23744  0.44941  Biso   1.000  S
  S23      1.0000 0.79342  0.41734  0.45229  Biso   1.000  S
  S24      1.0000 0.03499  0.33998  0.38229  Biso   1.000  S
  O85      1.0000 0.34550  0.27110  0.41050  Biso   1.000  O
  O86      1.0000 0.39650  0.15570  0.40730  Biso   1.000  O
  O87      1.0000 0.72500  0.53160  0.27180  Biso   1.000  O
  O88      1.0000 0.62970  0.58830  0.33710  Biso   1.000  O
  H134     1.0000 0.62780  0.62170  0.31450  Biso   1.000  H
  O89      1.0000 0.87020  0.19600  0.22410  Biso   1.000  O
  O90      1.0000 0.08900  0.18770  0.23680  Biso   1.000  O
  H135     1.0000 0.14590  0.20560  0.25770  Biso   1.000  H
  N22      1.0000 0.59940  0.31060  0.38919  Biso   1.000  N
  H136     1.0000 0.56050  0.33990  0.41440  Biso   1.000  H
  H137     1.0000 0.56240  0.32070  0.35610  Biso   1.000  H
  N23      1.0000 0.77700  0.41250  0.33179  Biso   1.000  N
  H138     1.0000 0.85830  0.42730  0.31870  Biso   1.000  H
  H139     1.0000 0.72730  0.39620  0.30320  Biso   1.000  H
  N24      1.0000 0.82790  0.25700  0.32288  Biso   1.000  N
  H140     1.0000 0.82680  0.21110  0.33620  Biso   1.000  H
  H141     1.0000 0.75680  0.26190  0.29970  Biso   1.000  H
  C64      1.0000 0.64270  0.21910  0.45640  Biso   1.000  C
  H142     1.0000 0.62890  0.16840  0.46630  Biso   1.000  H
  H143     1.0000 0.60430  0.24930  0.48530  Biso   1.000  H
  C65      1.0000 0.57420  0.23510  0.40320  Biso   1.000  C
  H144     1.0000 0.61290  0.20380  0.37460  Biso   1.000  H
  C66      1.0000 0.42530  0.22020  0.40790  Biso   1.000  C
  C67      1.0000 0.78560  0.49440  0.40643  Biso   1.000  C
  H145     1.0000 0.74090  0.53500  0.42450  Biso   1.000  H
  H146     1.0000 0.87690  0.50940  0.39620  Biso   1.000  H
  C68      1.0000 0.70860  0.47290  0.35700  Biso   1.000  C
  H147     1.0000 0.61630  0.45820  0.36760  Biso   1.000  H
  C69      1.0000 0.70090  0.53540  0.31790  Biso   1.000  C
  C70      1.0000 0.06720  0.27070  0.33210  Biso   1.000  C
  H148     1.0000 0.15130  0.28120  0.31270  Biso   1.000  H
  H149     1.0000 0.07670  0.22380  0.35010  Biso   1.000  H
  C71      1.0000 0.95270  0.26850  0.29280  Biso   1.000  C
  H150     1.0000 0.94670  0.31670  0.27560  Biso   1.000  H
  C72      1.0000 0.96990  0.21430  0.24790  Biso   1.000  C
  O91      1.0000 0.34050  0.25890  0.39870  Biso   1.000  O
  O92      1.0000 0.40520  0.14990  0.42350  Biso   1.000  O
  H151     1.0000 0.32300  0.14180  0.42600  Biso   1.000  H
  O93      1.0000 0.79310  0.54520  0.28360  Biso   1.000  O
  O94      1.0000 0.60920  0.57590  0.32390  Biso   1.000  O
  O95      1.0000 0.86840  0.17510  0.23910  Biso   1.000  O
  H152     1.0000 0.88520  0.14660  0.21390  Biso   1.000  H
  O96      1.0000 0.07580  0.20820  0.22300  Biso   1.000  O
  Ag9      1.0000 0.50000  0.07838  0.00000  Biso   1.000  Ag
  Ag10     1.0000 0.00000  0.57838  0.50000  Biso   1.000  Ag
  Ag11     1.0000 0.50000  0.92162  0.00000  Biso   1.000  Ag
  Ag12     1.0000 0.00000  0.42162  0.50000  Biso   1.000  Ag
