data_FISGOF_clean
_audit_creation_date              2015-10-16
_audit_creation_method            'Materials Studio'
_symmetry_space_group_name_H-M    'P1'
_symmetry_Int_Tables_number       1
_symmetry_cell_setting            triclinic
loop_
_symmetry_equiv_pos_as_xyz
  x,y,z
_cell_length_a                    19.4017
_cell_length_b                    19.4017
_cell_length_c                    19.4017
_cell_angle_alpha                 84.9869
_cell_angle_beta                  84.9869
_cell_angle_gamma                 84.9869
loop_
_atom_site_label
_atom_site_type_symbol
_atom_site_fract_x
_atom_site_fract_y
_atom_site_fract_z
_atom_site_U_iso_or_equiv
_atom_site_adp_type
_atom_site_occupancy
Cu1    Cu    0.36536   0.77219   0.77219   0.01267  Uiso   1.00
Cu2    Cu    0.48975   0.80025   0.80025   0.01267  Uiso   1.00
Cu3    Cu    0.80025   0.80025   0.48975   0.01267  Uiso   1.00
Cu4    Cu    0.80025   0.48975   0.80025   0.01267  Uiso   1.00
Cu5    Cu    0.77219   0.77219   0.36536   0.01267  Uiso   1.00
Cu6    Cu    0.77219   0.36536   0.77219   0.01267  Uiso   1.00
H1     H     0.77530   0.39230   0.24290   0.01267  Uiso   1.00
H2     H     0.80320   0.45630   0.01780   0.01267  Uiso   1.00
H3     H     0.24290   0.77530   0.39230   0.01267  Uiso   1.00
H4     H     0.10240   0.24270   0.72400   0.01267  Uiso   1.00
H5     H     0.80170   0.59660   0.59660   0.01267  Uiso   1.00
H6     H     0.76230   0.19630   0.19630   0.01267  Uiso   1.00
H7     H     0.41500   0.13360   0.80520   0.01267  Uiso   1.00
H8     H     0.80520   0.41500   0.13360   0.01267  Uiso   1.00
H9     H     0.45630   0.80320   0.01780   0.01267  Uiso   1.00
H10    H     0.27310   0.75020   0.97860   0.01267  Uiso   1.00
H11    H     0.97860   0.27310   0.75020   0.01267  Uiso   1.00
H12    H     0.72400   0.24270   0.10240   0.01267  Uiso   1.00
H13    H     0.13360   0.80520   0.41500   0.01267  Uiso   1.00
H14    H     0.10240   0.72400   0.24270   0.01267  Uiso   1.00
H15    H     0.59660   0.59660   0.80170   0.01267  Uiso   1.00
H16    H     0.77530   0.24290   0.39230   0.01267  Uiso   1.00
H17    H     0.39230   0.24290   0.77530   0.01267  Uiso   1.00
H18    H     0.24290   0.39230   0.77530   0.01267  Uiso   1.00
H19    H     0.24270   0.72400   0.10240   0.01267  Uiso   1.00
H20    H     0.54870   0.77540   0.39570   0.01267  Uiso   1.00
H21    H     0.01780   0.45630   0.80320   0.01267  Uiso   1.00
H22    H     0.77540   0.39570   0.54870   0.01267  Uiso   1.00
H23    H     0.72400   0.10240   0.24270   0.01267  Uiso   1.00
H24    H     0.39570   0.77540   0.54870   0.01267  Uiso   1.00
H25    H     0.77540   0.54870   0.39570   0.01267  Uiso   1.00
H26    H     0.19630   0.76230   0.19630   0.01267  Uiso   1.00
H27    H     0.59660   0.80170   0.59660   0.01267  Uiso   1.00
H28    H     0.01780   0.80320   0.45630   0.01267  Uiso   1.00
H29    H     0.80320   0.01780   0.45630   0.01267  Uiso   1.00
H30    H     0.27310   0.97860   0.75020   0.01267  Uiso   1.00
H31    H     0.13360   0.41500   0.80520   0.01267  Uiso   1.00
H32    H     0.19630   0.19630   0.76230   0.01267  Uiso   1.00
H33    H     0.75020   0.27310   0.97860   0.01267  Uiso   1.00
H34    H     0.80520   0.13360   0.41500   0.01267  Uiso   1.00
H35    H     0.39570   0.54870   0.77540   0.01267  Uiso   1.00
H36    H     0.75020   0.97860   0.27310   0.01267  Uiso   1.00
H37    H     0.24270   0.10240   0.72400   0.01267  Uiso   1.00
H38    H     0.97860   0.75020   0.27310   0.01267  Uiso   1.00
H39    H     0.45630   0.01780   0.80320   0.01267  Uiso   1.00
H40    H     0.41500   0.80520   0.13360   0.01267  Uiso   1.00
H41    H     0.39230   0.77530   0.24290   0.01267  Uiso   1.00
H42    H     0.54870   0.39570   0.77540   0.01267  Uiso   1.00
C1     C     0.53410   0.44210   0.78020   0.01267  Uiso   1.00
C2     C     0.38680   0.10200   0.79090   0.01267  Uiso   1.00
C3     C     0.78020   0.53410   0.44210   0.01267  Uiso   1.00
C4     C     0.20580   0.77080   0.29980   0.01267  Uiso   1.00
C5     C     0.79190   0.03340   0.41180   0.01267  Uiso   1.00
C6     C     0.53410   0.78020   0.44210   0.01267  Uiso   1.00
C7     C     0.22820   0.22820   0.76720   0.01267  Uiso   1.00
C8     C     0.78790   0.49090   0.58230   0.01267  Uiso   1.00
C9     C     0.75660   0.01150   0.30370   0.01267  Uiso   1.00
C10    C     0.08560   0.74600   0.28220   0.01267  Uiso   1.00
C11    C     0.78180   0.91310   0.38710   0.01267  Uiso   1.00
C12    C     0.28220   0.74600   0.08560   0.01267  Uiso   1.00
C13    C     0.91310   0.38710   0.78180   0.01267  Uiso   1.00
C14    C     0.10200   0.79090   0.38680   0.01267  Uiso   1.00
C15    C     0.77450   0.42000   0.42000   0.01267  Uiso   1.00
C16    C     0.91310   0.78180   0.38710   0.01267  Uiso   1.00
C17    C     0.38220   0.77210   0.38220   0.01267  Uiso   1.00
C18    C     0.77020   0.32330   0.12650   0.01267  Uiso   1.00
C19    C     0.77220   0.32890   0.32890   0.01267  Uiso   1.00
C20    C     0.79020   0.46000   0.66070   0.01267  Uiso   1.00
C21    C     0.46500   0.46500   0.77990   0.01267  Uiso   1.00
C22    C     0.79020   0.66070   0.46000   0.01267  Uiso   1.00
C23    C     0.46000   0.79020   0.66070   0.01267  Uiso   1.00
C24    C     0.78020   0.44210   0.53410   0.01267  Uiso   1.00
C25    C     0.77300   0.25770   0.34560   0.01267  Uiso   1.00
C26    C     0.49090   0.58230   0.78790   0.01267  Uiso   1.00
C27    C     0.29980   0.20580   0.77080   0.01267  Uiso   1.00
C28    C     0.28220   0.08560   0.74600   0.01267  Uiso   1.00
C29    C     0.38680   0.79090   0.10200   0.01267  Uiso   1.00
C30    C     0.77990   0.46500   0.46500   0.01267  Uiso   1.00
C31    C     0.79190   0.41180   0.03340   0.01267  Uiso   1.00
C32    C     0.76720   0.22820   0.22820   0.01267  Uiso   1.00
C33    C     0.56500   0.79440   0.56500   0.01267  Uiso   1.00
C34    C     0.77080   0.20580   0.29980   0.01267  Uiso   1.00
C35    C     0.42000   0.77450   0.42000   0.01267  Uiso   1.00
C36    C     0.41180   0.79190   0.03340   0.01267  Uiso   1.00
C37    C     0.56500   0.56500   0.79440   0.01267  Uiso   1.00
C38    C     0.25770   0.34560   0.77300   0.01267  Uiso   1.00
C39    C     0.42000   0.42000   0.77450   0.01267  Uiso   1.00
C40    C     0.38710   0.78180   0.91310   0.01267  Uiso   1.00
C41    C     0.32890   0.77220   0.32890   0.01267  Uiso   1.00
C42    C     0.79090   0.10200   0.38680   0.01267  Uiso   1.00
C43    C     0.99140   0.77510   0.36620   0.01267  Uiso   1.00
C44    C     0.46000   0.66070   0.79020   0.01267  Uiso   1.00
C45    C     0.01150   0.75660   0.30370   0.01267  Uiso   1.00
C46    C     0.44210   0.53410   0.78020   0.01267  Uiso   1.00
C47    C     0.08560   0.28220   0.74600   0.01267  Uiso   1.00
C48    C     0.79440   0.56500   0.56500   0.01267  Uiso   1.00
C49    C     0.03340   0.41180   0.79190   0.01267  Uiso   1.00
C50    C     0.58230   0.49090   0.78790   0.01267  Uiso   1.00
C51    C     0.74600   0.28220   0.08560   0.01267  Uiso   1.00
C52    C     0.99140   0.36620   0.77510   0.01267  Uiso   1.00
C53    C     0.34560   0.25770   0.77300   0.01267  Uiso   1.00
C54    C     0.32890   0.32890   0.77220   0.01267  Uiso   1.00
C55    C     0.22820   0.76720   0.22820   0.01267  Uiso   1.00
C56    C     0.32330   0.77020   0.12650   0.01267  Uiso   1.00
C57    C     0.36620   0.77510   0.99140   0.01267  Uiso   1.00
C58    C     0.30370   0.01150   0.75660   0.01267  Uiso   1.00
C59    C     0.20580   0.29980   0.77080   0.01267  Uiso   1.00
C60    C     0.79090   0.38680   0.10200   0.01267  Uiso   1.00
C61    C     0.38220   0.38220   0.77210   0.01267  Uiso   1.00
C62    C     0.66070   0.46000   0.79020   0.01267  Uiso   1.00
C63    C     0.25770   0.77300   0.34560   0.01267  Uiso   1.00
C64    C     0.30370   0.75660   0.01150   0.01267  Uiso   1.00
C65    C     0.77080   0.29980   0.20580   0.01267  Uiso   1.00
C66    C     0.34560   0.77300   0.25770   0.01267  Uiso   1.00
C67    C     0.10200   0.38680   0.79090   0.01267  Uiso   1.00
C68    C     0.66070   0.79020   0.46000   0.01267  Uiso   1.00
C69    C     0.77210   0.38220   0.38220   0.01267  Uiso   1.00
C70    C     0.41180   0.03340   0.79190   0.01267  Uiso   1.00
C71    C     0.29980   0.77080   0.20580   0.01267  Uiso   1.00
C72    C     0.36620   0.99140   0.77510   0.01267  Uiso   1.00
C73    C     0.44210   0.78020   0.53410   0.01267  Uiso   1.00
C74    C     0.46500   0.77990   0.46500   0.01267  Uiso   1.00
C75    C     0.49090   0.78790   0.58230   0.01267  Uiso   1.00
C76    C     0.01150   0.30370   0.75660   0.01267  Uiso   1.00
C77    C     0.12650   0.32330   0.77020   0.01267  Uiso   1.00
C78    C     0.77510   0.36620   0.99140   0.01267  Uiso   1.00
C79    C     0.78180   0.38710   0.91310   0.01267  Uiso   1.00
C80    C     0.74600   0.08560   0.28220   0.01267  Uiso   1.00
C81    C     0.77510   0.99140   0.36620   0.01267  Uiso   1.00
C82    C     0.77020   0.12650   0.32330   0.01267  Uiso   1.00
C83    C     0.32330   0.12650   0.77020   0.01267  Uiso   1.00
C84    C     0.77300   0.34560   0.25770   0.01267  Uiso   1.00
C85    C     0.38710   0.91310   0.78180   0.01267  Uiso   1.00
C86    C     0.58230   0.78790   0.49090   0.01267  Uiso   1.00
C87    C     0.12650   0.77020   0.32330   0.01267  Uiso   1.00
C88    C     0.78790   0.58230   0.49090   0.01267  Uiso   1.00
C89    C     0.75660   0.30370   0.01150   0.01267  Uiso   1.00
C90    C     0.03340   0.79190   0.41180   0.01267  Uiso   1.00
O1     O     0.87162   0.76832   0.34492   0.01267  Uiso   1.00
O2     O     0.87162   0.34492   0.76832   0.01267  Uiso   1.00
O3     O     0.34492   0.87162   0.76832   0.01267  Uiso   1.00
O4     O     0.40070   0.77830   0.67880   0.01267  Uiso   1.00
O5     O     0.70056   0.80456   0.51096   0.01267  Uiso   1.00
O6     O     0.79343   0.45163   0.89433   0.01267  Uiso   1.00
O7     O     0.67880   0.40070   0.77830   0.01267  Uiso   1.00
O8     O     0.70056   0.51096   0.80456   0.01267  Uiso   1.00
O9     O     0.34492   0.76832   0.87162   0.01267  Uiso   1.00
O10    O     0.76832   0.34492   0.87162   0.01267  Uiso   1.00
O11    O     0.45163   0.79343   0.89433   0.01267  Uiso   1.00
O12    O     0.80456   0.70056   0.51096   0.01267  Uiso   1.00
O13    O     0.79343   0.89433   0.45163   0.01267  Uiso   1.00
O14    O     0.76832   0.87162   0.34492   0.01267  Uiso   1.00
O15    O     0.51096   0.70056   0.80456   0.01267  Uiso   1.00
O16    O     0.67880   0.77830   0.40070   0.01267  Uiso   1.00
O17    O     0.89433   0.45163   0.79343   0.01267  Uiso   1.00
O18    O     0.51096   0.80456   0.70056   0.01267  Uiso   1.00
O19    O     0.40070   0.67880   0.77830   0.01267  Uiso   1.00
O20    O     0.77830   0.67880   0.40070   0.01267  Uiso   1.00
O21    O     0.89433   0.79343   0.45163   0.01267  Uiso   1.00
O22    O     0.77830   0.40070   0.67880   0.01267  Uiso   1.00
O23    O     0.80456   0.51096   0.70056   0.01267  Uiso   1.00
O24    O     0.45163   0.89433   0.79343   0.01267  Uiso   1.00
