data_image0
_cell_length_a       22.4022
_cell_length_b       22.4022
_cell_length_c       9.1637
_cell_angle_alpha    90
_cell_angle_beta     90
_cell_angle_gamma    120

_symmetry_space_group_name_H-M    "P 1"
_symmetry_int_tables_number       1

loop_
  _symmetry_equiv_pos_as_xyz
  'x, y, z'

loop_
  _atom_site_label
  _atom_site_occupancy
  _atom_site_fract_x
  _atom_site_fract_y
  _atom_site_fract_z
  _atom_site_thermal_displace_type
  _atom_site_B_iso_or_equiv
  _atom_site_type_symbol
  O1       1.0000 0.33920  0.61440  0.49080  Biso   1.000  O
  O2       1.0000 0.57650  0.37680  0.48480  Biso   1.000  O
  C1       1.0000 0.47540  0.59300  0.62550  Biso   1.000  C
  C2       1.0000 0.51310  0.55620  0.58800  Biso   1.000  C
  C3       1.0000 0.57490  0.57470  0.65860  Biso   1.000  C
  C4       1.0000 0.60410  0.53280  0.64770  Biso   1.000  C
  C5       1.0000 0.57150  0.47240  0.56630  Biso   1.000  C
  C6       1.0000 0.50970  0.45390  0.49570  Biso   1.000  C
  C7       1.0000 0.48050  0.49580  0.50660  Biso   1.000  C
  H1       1.0000 0.59510  0.61770  0.72090  Biso   1.000  H
  H2       1.0000 0.64460  0.54690  0.70560  Biso   1.000  H
  H3       1.0000 0.48720  0.41420  0.44320  Biso   1.000  H
  H4       1.0000 0.43780  0.48500  0.45850  Biso   1.000  H
  H5       1.0000 0.39060  0.53930  0.53890  Biso   1.000  H
  H6       1.0000 0.50020  0.63600  0.69520  Biso   1.000  H
  O3       1.0000 0.38560  0.72480  0.15747  Biso   1.000  O
  O4       1.0000 0.62320  0.19970  0.15147  Biso   1.000  O
  C8       1.0000 0.40700  0.88240  0.29217  Biso   1.000  C
  C9       1.0000 0.44380  0.95690  0.25467  Biso   1.000  C
  C10      1.0000 0.42530  0.00020  0.32527  Biso   1.000  C
  C11      1.0000 0.46720  0.07130  0.31437  Biso   1.000  C
  C12      1.0000 0.52760  0.09910  0.23297  Biso   1.000  C
  C13      1.0000 0.54610  0.05580  0.16237  Biso   1.000  C
  C14      1.0000 0.50420  0.98470  0.17327  Biso   1.000  C
  H7       1.0000 0.38230  0.97740  0.38757  Biso   1.000  H
  H8       1.0000 0.45310  0.09770  0.37227  Biso   1.000  H
  H9       1.0000 0.58580  0.07300  0.10987  Biso   1.000  H
  H10      1.0000 0.51500  0.95280  0.12517  Biso   1.000  H
  H11      1.0000 0.46070  0.85130  0.20557  Biso   1.000  H
  H12      1.0000 0.36400  0.86420  0.36187  Biso   1.000  H
  O5       1.0000 0.27520  0.66080  0.82413  Biso   1.000  O
  O6       1.0000 0.80030  0.42350  0.81813  Biso   1.000  O
  C15      1.0000 0.11760  0.52460  0.95883  Biso   1.000  C
  C16      1.0000 0.04310  0.48690  0.92133  Biso   1.000  C
  C17      1.0000 0.99980  0.42510  0.99193  Biso   1.000  C
  C18      1.0000 0.92870  0.39590  0.98103  Biso   1.000  C
  C19      1.0000 0.90090  0.42850  0.89963  Biso   1.000  C
  C20      1.0000 0.94420  0.49030  0.82903  Biso   1.000  C
  C21      1.0000 0.01530  0.51950  0.83993  Biso   1.000  C
  H13      1.0000 0.02260  0.40490  0.05423  Biso   1.000  H
  H14      1.0000 0.90230  0.35540  0.03893  Biso   1.000  H
  H15      1.0000 0.92700  0.51280  0.77653  Biso   1.000  H
  H16      1.0000 0.04720  0.56220  0.79183  Biso   1.000  H
  H17      1.0000 0.14870  0.60940  0.87223  Biso   1.000  H
  H18      1.0000 0.13580  0.49980  0.02853  Biso   1.000  H
  O7       1.0000 0.66080  0.38560  0.99080  Biso   1.000  O
  O8       1.0000 0.42350  0.62320  0.98480  Biso   1.000  O
  C22      1.0000 0.52460  0.40700  0.12550  Biso   1.000  C
  C23      1.0000 0.48690  0.44380  0.08800  Biso   1.000  C
  C24      1.0000 0.42510  0.42530  0.15860  Biso   1.000  C
  C25      1.0000 0.39590  0.46720  0.14770  Biso   1.000  C
  C26      1.0000 0.42850  0.52760  0.06630  Biso   1.000  C
  C27      1.0000 0.49030  0.54610  0.99570  Biso   1.000  C
  C28      1.0000 0.51950  0.50420  0.00660  Biso   1.000  C
  H19      1.0000 0.40490  0.38230  0.22090  Biso   1.000  H
  H20      1.0000 0.35540  0.45310  0.20560  Biso   1.000  H
  H21      1.0000 0.51280  0.58580  0.94320  Biso   1.000  H
  H22      1.0000 0.56220  0.51500  0.95850  Biso   1.000  H
  H23      1.0000 0.60940  0.46070  0.03890  Biso   1.000  H
  H24      1.0000 0.49980  0.36400  0.19520  Biso   1.000  H
  O9       1.0000 0.61440  0.27520  0.65747  Biso   1.000  O
  O10      1.0000 0.37680  0.80030  0.65147  Biso   1.000  O
  C29      1.0000 0.59300  0.11760  0.79217  Biso   1.000  C
  C30      1.0000 0.55620  0.04310  0.75467  Biso   1.000  C
  C31      1.0000 0.57470  0.99980  0.82527  Biso   1.000  C
  C32      1.0000 0.53280  0.92870  0.81437  Biso   1.000  C
  C33      1.0000 0.47240  0.90090  0.73297  Biso   1.000  C
  C34      1.0000 0.45390  0.94420  0.66237  Biso   1.000  C
  C35      1.0000 0.49580  0.01530  0.67327  Biso   1.000  C
  H25      1.0000 0.61770  0.02260  0.88757  Biso   1.000  H
  H26      1.0000 0.54690  0.90230  0.87227  Biso   1.000  H
  H27      1.0000 0.41420  0.92700  0.60987  Biso   1.000  H
  H28      1.0000 0.48500  0.04720  0.62517  Biso   1.000  H
  H29      1.0000 0.53930  0.14870  0.70557  Biso   1.000  H
  H30      1.0000 0.63600  0.13580  0.86187  Biso   1.000  H
  O11      1.0000 0.72480  0.33920  0.32413  Biso   1.000  O
  O12      1.0000 0.19970  0.57650  0.31813  Biso   1.000  O
  C36      1.0000 0.88240  0.47540  0.45883  Biso   1.000  C
  C37      1.0000 0.95690  0.51310  0.42133  Biso   1.000  C
  C38      1.0000 0.00020  0.57490  0.49193  Biso   1.000  C
  C39      1.0000 0.07130  0.60410  0.48103  Biso   1.000  C
  C40      1.0000 0.09910  0.57150  0.39963  Biso   1.000  C
  C41      1.0000 0.05580  0.50970  0.32903  Biso   1.000  C
  C42      1.0000 0.98470  0.48050  0.33993  Biso   1.000  C
  H31      1.0000 0.97740  0.59510  0.55423  Biso   1.000  H
  H32      1.0000 0.09770  0.64460  0.53893  Biso   1.000  H
  H33      1.0000 0.07300  0.48720  0.27653  Biso   1.000  H
  H34      1.0000 0.95280  0.43780  0.29183  Biso   1.000  H
  H35      1.0000 0.85130  0.39060  0.37223  Biso   1.000  H
  H36      1.0000 0.86420  0.50020  0.52853  Biso   1.000  H
  O13      1.0000 0.61440  0.33920  0.17587  Biso   1.000  O
  O14      1.0000 0.37680  0.57650  0.18187  Biso   1.000  O
  C43      1.0000 0.59300  0.47540  0.04117  Biso   1.000  C
  C44      1.0000 0.55620  0.51310  0.07867  Biso   1.000  C
  C45      1.0000 0.57470  0.57490  0.00807  Biso   1.000  C
  C46      1.0000 0.53280  0.60410  0.01897  Biso   1.000  C
  C47      1.0000 0.47240  0.57150  0.10037  Biso   1.000  C
  C48      1.0000 0.45390  0.50970  0.17097  Biso   1.000  C
  C49      1.0000 0.49580  0.48050  0.16007  Biso   1.000  C
  H37      1.0000 0.61770  0.59510  0.94577  Biso   1.000  H
  H38      1.0000 0.54690  0.64460  0.96107  Biso   1.000  H
  H39      1.0000 0.41420  0.48720  0.22347  Biso   1.000  H
  H40      1.0000 0.48500  0.43780  0.20817  Biso   1.000  H
  H41      1.0000 0.53930  0.39060  0.12777  Biso   1.000  H
  H42      1.0000 0.63600  0.50020  0.97147  Biso   1.000  H
  O15      1.0000 0.72480  0.38560  0.50920  Biso   1.000  O
  O16      1.0000 0.19970  0.62320  0.51520  Biso   1.000  O
  C50      1.0000 0.88240  0.40700  0.37450  Biso   1.000  C
  C51      1.0000 0.95690  0.44380  0.41200  Biso   1.000  C
  C52      1.0000 0.00020  0.42530  0.34140  Biso   1.000  C
  C53      1.0000 0.07130  0.46720  0.35230  Biso   1.000  C
  C54      1.0000 0.09910  0.52760  0.43370  Biso   1.000  C
  C55      1.0000 0.05580  0.54610  0.50430  Biso   1.000  C
  C56      1.0000 0.98470  0.50420  0.49340  Biso   1.000  C
  H43      1.0000 0.97740  0.38230  0.27910  Biso   1.000  H
  H44      1.0000 0.09770  0.45310  0.29440  Biso   1.000  H
  H45      1.0000 0.07300  0.58580  0.55680  Biso   1.000  H
  H46      1.0000 0.95280  0.51500  0.54150  Biso   1.000  H
  H47      1.0000 0.85130  0.46070  0.46110  Biso   1.000  H
  H48      1.0000 0.86420  0.36400  0.30480  Biso   1.000  H
  O17      1.0000 0.66080  0.27520  0.84253  Biso   1.000  O
  O18      1.0000 0.42350  0.80030  0.84853  Biso   1.000  O
  C57      1.0000 0.52460  0.11760  0.70783  Biso   1.000  C
  C58      1.0000 0.48690  0.04310  0.74533  Biso   1.000  C
  C59      1.0000 0.42510  0.99980  0.67473  Biso   1.000  C
  C60      1.0000 0.39590  0.92870  0.68563  Biso   1.000  C
  C61      1.0000 0.42850  0.90090  0.76703  Biso   1.000  C
  C62      1.0000 0.49030  0.94420  0.83763  Biso   1.000  C
  C63      1.0000 0.51950  0.01530  0.82673  Biso   1.000  C
  H49      1.0000 0.40490  0.02260  0.61243  Biso   1.000  H
  H50      1.0000 0.35540  0.90230  0.62773  Biso   1.000  H
  H51      1.0000 0.51280  0.92700  0.89013  Biso   1.000  H
  H52      1.0000 0.56220  0.04720  0.87483  Biso   1.000  H
  H53      1.0000 0.60940  0.14870  0.79443  Biso   1.000  H
  H54      1.0000 0.49980  0.13580  0.63813  Biso   1.000  H
  O19      1.0000 0.38560  0.66080  0.67587  Biso   1.000  O
  O20      1.0000 0.62320  0.42350  0.68187  Biso   1.000  O
  C64      1.0000 0.40700  0.52460  0.54117  Biso   1.000  C
  C65      1.0000 0.44380  0.48690  0.57867  Biso   1.000  C
  C66      1.0000 0.42530  0.42510  0.50807  Biso   1.000  C
  C67      1.0000 0.46720  0.39590  0.51897  Biso   1.000  C
  C68      1.0000 0.52760  0.42850  0.60037  Biso   1.000  C
  C69      1.0000 0.54610  0.49030  0.67097  Biso   1.000  C
  C70      1.0000 0.50420  0.51950  0.66007  Biso   1.000  C
  H55      1.0000 0.38230  0.40490  0.44577  Biso   1.000  H
  H56      1.0000 0.45310  0.35540  0.46107  Biso   1.000  H
  H57      1.0000 0.58580  0.51280  0.72347  Biso   1.000  H
  H58      1.0000 0.51500  0.56220  0.70817  Biso   1.000  H
  H59      1.0000 0.46070  0.60940  0.62777  Biso   1.000  H
  H60      1.0000 0.36400  0.49980  0.47147  Biso   1.000  H
  O21      1.0000 0.27520  0.61440  0.00920  Biso   1.000  O
  O22      1.0000 0.80030  0.37680  0.01520  Biso   1.000  O
  C71      1.0000 0.11760  0.59300  0.87450  Biso   1.000  C
  C72      1.0000 0.04310  0.55620  0.91200  Biso   1.000  C
  C73      1.0000 0.99980  0.57470  0.84140  Biso   1.000  C
  C74      1.0000 0.92870  0.53280  0.85230  Biso   1.000  C
  C75      1.0000 0.90090  0.47240  0.93370  Biso   1.000  C
  C76      1.0000 0.94420  0.45390  0.00430  Biso   1.000  C
  C77      1.0000 0.01530  0.49580  0.99340  Biso   1.000  C
  H61      1.0000 0.02260  0.61770  0.77910  Biso   1.000  H
  H62      1.0000 0.90230  0.54690  0.79440  Biso   1.000  H
  H63      1.0000 0.92700  0.41420  0.05680  Biso   1.000  H
  H64      1.0000 0.04720  0.48500  0.04150  Biso   1.000  H
  H65      1.0000 0.14870  0.53930  0.96110  Biso   1.000  H
  H66      1.0000 0.13580  0.63600  0.80480  Biso   1.000  H
  O23      1.0000 0.33920  0.72480  0.34253  Biso   1.000  O
  O24      1.0000 0.57650  0.19970  0.34853  Biso   1.000  O
  C78      1.0000 0.47540  0.88240  0.20783  Biso   1.000  C
  C79      1.0000 0.51310  0.95690  0.24533  Biso   1.000  C
  C80      1.0000 0.57490  0.00020  0.17473  Biso   1.000  C
  C81      1.0000 0.60410  0.07130  0.18563  Biso   1.000  C
  C82      1.0000 0.57150  0.09910  0.26703  Biso   1.000  C
  C83      1.0000 0.50970  0.05580  0.33763  Biso   1.000  C
  C84      1.0000 0.48050  0.98470  0.32673  Biso   1.000  C
  H67      1.0000 0.59510  0.97740  0.11243  Biso   1.000  H
  H68      1.0000 0.64460  0.09770  0.12773  Biso   1.000  H
  H69      1.0000 0.48720  0.07300  0.39013  Biso   1.000  H
  H70      1.0000 0.43780  0.95280  0.37483  Biso   1.000  H
  H71      1.0000 0.39060  0.85130  0.29443  Biso   1.000  H
  H72      1.0000 0.50020  0.86420  0.13813  Biso   1.000  H
  Cd1      1.0000 0.30385  0.69615  0.58333  Biso   1.000  Cd
  C85      1.0000 0.37744  0.62256  0.58333  Biso   1.000  C
  C86      1.0000 0.58620  0.41380  0.58333  Biso   1.000  C
  C87      1.0000 0.41570  0.58430  0.58333  Biso   1.000  C
  Cd2      1.0000 0.30385  0.60770  0.25000  Biso   1.000  Cd
  C88      1.0000 0.37744  0.75488  0.25000  Biso   1.000  C
  C89      1.0000 0.58620  0.17240  0.25000  Biso   1.000  C
  C90      1.0000 0.41570  0.83140  0.25000  Biso   1.000  C
  Cd3      1.0000 0.39230  0.69615  0.91667  Biso   1.000  Cd
  C91      1.0000 0.24512  0.62256  0.91667  Biso   1.000  C
  C92      1.0000 0.82760  0.41380  0.91667  Biso   1.000  C
  C93      1.0000 0.16860  0.58430  0.91667  Biso   1.000  C
  Cd4      1.0000 0.69615  0.30385  0.08333  Biso   1.000  Cd
  C94      1.0000 0.62256  0.37744  0.08333  Biso   1.000  C
  C95      1.0000 0.41380  0.58620  0.08333  Biso   1.000  C
  C96      1.0000 0.58430  0.41570  0.08333  Biso   1.000  C
  Cd5      1.0000 0.69615  0.39230  0.75000  Biso   1.000  Cd
  C97      1.0000 0.62256  0.24512  0.75000  Biso   1.000  C
  C98      1.0000 0.41380  0.82760  0.75000  Biso   1.000  C
  C99      1.0000 0.58430  0.16860  0.75000  Biso   1.000  C
  Cd6      1.0000 0.60770  0.30385  0.41667  Biso   1.000  Cd
  C100     1.0000 0.75488  0.37744  0.41667  Biso   1.000  C
  C101     1.0000 0.17240  0.58620  0.41667  Biso   1.000  C
  C102     1.0000 0.83140  0.41570  0.41667  Biso   1.000  C
