data_image0
_cell_length_a       21.5599
_cell_length_b       21.5599
_cell_length_c       12.8974
_cell_angle_alpha    90
_cell_angle_beta     90
_cell_angle_gamma    90

_symmetry_space_group_name_H-M    "P 1"
_symmetry_int_tables_number       1

loop_
  _symmetry_equiv_pos_as_xyz
  'x, y, z'

loop_
  _atom_site_label
  _atom_site_occupancy
  _atom_site_fract_x
  _atom_site_fract_y
  _atom_site_fract_z
  _atom_site_thermal_displace_type
  _atom_site_B_iso_or_equiv
  _atom_site_type_symbol
  Cu1      1.0000 0.05812  0.31314  0.68584  Biso   1.000  Cu
  O1       1.0000 0.14595  0.26221  0.56020  Biso   1.000  O
  O2       1.0000 0.05305  0.30172  0.53160  Biso   1.000  O
  O3       1.0000 0.09439  0.39404  0.66540  Biso   1.000  O
  N1       1.0000 0.16338  0.22898  0.36520  Biso   1.000  N
  H1       1.0000 0.16320  0.19350  0.32430  Biso   1.000  H
  N2       1.0000 0.09811  0.31818  0.82610  Biso   1.000  N
  H2       1.0000 0.12130  0.28200  0.83270  Biso   1.000  H
  C1       1.0000 0.09960  0.27183  0.50210  Biso   1.000  C
  C2       1.0000 0.09797  0.24310  0.39570  Biso   1.000  C
  H3       1.0000 0.07930  0.27300  0.34520  Biso   1.000  H
  C3       1.0000 0.05970  0.18430  0.39890  Biso   1.000  C
  C4       1.0000 0.19123  0.28050  0.30380  Biso   1.000  C
  H4       1.0000 0.23530  0.27080  0.28940  Biso   1.000  H
  H5       1.0000 0.19000  0.31910  0.34550  Biso   1.000  H
  C5       1.0000 0.15759  0.29140  0.20200  Biso   1.000  C
  C6       1.0000 0.15410  0.24610  0.12720  Biso   1.000  C
  H6       1.0000 0.17510  0.20790  0.13790  Biso   1.000  H
  C7       1.0000 0.12130  0.25450  0.03800  Biso   1.000  C
  H7       1.0000 0.11920  0.22180  0.98870  Biso   1.000  H
  C8       1.0000 0.09101  0.30950  0.01790  Biso   1.000  C
  C9       1.0000 0.09590  0.35620  0.09230  Biso   1.000  C
  H8       1.0000 0.07610  0.39490  0.08070  Biso   1.000  H
  C10      1.0000 0.12850  0.34700  0.18140  Biso   1.000  C
  H9       1.0000 0.13130  0.37980  0.23050  Biso   1.000  H
  C11      1.0000 0.12908  0.41378  0.73680  Biso   1.000  C
  C12      1.0000 0.14388  0.36931  0.82600  Biso   1.000  C
  H10      1.0000 0.14120  0.39230  0.89320  Biso   1.000  H
  C13      1.0000 0.20992  0.34300  0.81300  Biso   1.000  C
  H11      1.0000 0.21280  0.30400  0.85340  Biso   1.000  H
  H12      1.0000 0.21590  0.33210  0.73910  Biso   1.000  H
  C14      1.0000 0.26250  0.38460  0.84560  Biso   1.000  C
  H13      1.0000 0.25770  0.42480  0.80780  Biso   1.000  H
  C15      1.0000 0.26270  0.39870  0.95940  Biso   1.000  C
  H14      1.0000 0.29790  0.42590  0.97570  Biso   1.000  H
  H15      1.0000 0.26660  0.36000  0.99870  Biso   1.000  H
  H16      1.0000 0.22390  0.41950  0.97830  Biso   1.000  H
  C16      1.0000 0.32340  0.35650  0.81250  Biso   1.000  C
  H17      1.0000 0.35750  0.38370  0.83390  Biso   1.000  H
  H18      1.0000 0.32390  0.35190  0.73690  Biso   1.000  H
  H19      1.0000 0.32840  0.31580  0.84510  Biso   1.000  H
  C17      1.0000 0.05630  0.31930  0.91750  Biso   1.000  C
  H20      1.0000 0.02460  0.28650  0.90980  Biso   1.000  H
  H21      1.0000 0.03470  0.35980  0.92000  Biso   1.000  H
  O4       1.0000 0.15396  0.46528  0.73810  Biso   1.000  O
  C18      1.0000 0.02420  0.16670  0.30350  Biso   1.000  C
  H22      1.0000 0.05640  0.15090  0.25440  Biso   1.000  H
  C19      1.0000 0.98920  0.21620  0.24180  Biso   1.000  C
  H23      1.0000 0.96010  0.23780  0.28770  Biso   1.000  H
  H24      1.0000 0.96630  0.19650  0.18510  Biso   1.000  H
  H25      1.0000 0.01890  0.24610  0.21320  Biso   1.000  H
  C20      1.0000 0.98100  0.11150  0.32070  Biso   1.000  C
  H26      1.0000 0.00270  0.07950  0.36080  Biso   1.000  H
  H27      1.0000 0.96840  0.09430  0.25350  Biso   1.000  H
  H28      1.0000 0.94410  0.12510  0.35890  Biso   1.000  H
  C21      1.0000 0.99340  0.18380  0.39350  Biso   1.000  C
  H29      1.0000 0.97850  0.20560  0.45730  Biso   1.000  H
  C22      1.0000 0.97060  0.11600  0.40300  Biso   1.000  C
  H30      1.0000 0.98390  0.09240  0.34200  Biso   1.000  H
  H31      1.0000 0.92520  0.11540  0.40750  Biso   1.000  H
  H32      1.0000 0.98820  0.09720  0.46560  Biso   1.000  H
  C23      1.0000 0.97100  0.22290  0.30170  Biso   1.000  C
  H33      1.0000 0.99580  0.26100  0.29740  Biso   1.000  H
  H34      1.0000 0.92730  0.23370  0.31150  Biso   1.000  H
  H35      1.0000 0.97580  0.19920  0.23740  Biso   1.000  H
  Cu2      1.0000 0.94188  0.68686  0.68584  Biso   1.000  Cu
  O5       1.0000 0.85405  0.73779  0.56020  Biso   1.000  O
  O6       1.0000 0.94695  0.69828  0.53160  Biso   1.000  O
  O7       1.0000 0.90561  0.60596  0.66540  Biso   1.000  O
  N3       1.0000 0.83662  0.77102  0.36520  Biso   1.000  N
  H36      1.0000 0.83680  0.80650  0.32430  Biso   1.000  H
  N4       1.0000 0.90189  0.68182  0.82610  Biso   1.000  N
  H37      1.0000 0.87870  0.71800  0.83270  Biso   1.000  H
  C24      1.0000 0.90040  0.72817  0.50210  Biso   1.000  C
  C25      1.0000 0.90203  0.75690  0.39570  Biso   1.000  C
  H38      1.0000 0.92070  0.72700  0.34520  Biso   1.000  H
  C26      1.0000 0.94030  0.81570  0.39890  Biso   1.000  C
  C27      1.0000 0.80877  0.71950  0.30380  Biso   1.000  C
  H39      1.0000 0.76470  0.72920  0.28940  Biso   1.000  H
  H40      1.0000 0.81000  0.68090  0.34550  Biso   1.000  H
  C28      1.0000 0.84241  0.70860  0.20200  Biso   1.000  C
  C29      1.0000 0.84590  0.75390  0.12720  Biso   1.000  C
  H41      1.0000 0.82490  0.79210  0.13790  Biso   1.000  H
  C30      1.0000 0.87870  0.74550  0.03800  Biso   1.000  C
  H42      1.0000 0.88080  0.77820  0.98870  Biso   1.000  H
  C31      1.0000 0.90899  0.69050  0.01790  Biso   1.000  C
  C32      1.0000 0.90410  0.64380  0.09230  Biso   1.000  C
  H43      1.0000 0.92390  0.60510  0.08070  Biso   1.000  H
  C33      1.0000 0.87150  0.65300  0.18140  Biso   1.000  C
  H44      1.0000 0.86870  0.62020  0.23050  Biso   1.000  H
  C34      1.0000 0.87092  0.58622  0.73680  Biso   1.000  C
  C35      1.0000 0.85612  0.63069  0.82600  Biso   1.000  C
  H45      1.0000 0.85880  0.60770  0.89320  Biso   1.000  H
  C36      1.0000 0.79008  0.65700  0.81300  Biso   1.000  C
  H46      1.0000 0.78720  0.69600  0.85340  Biso   1.000  H
  H47      1.0000 0.78410  0.66790  0.73910  Biso   1.000  H
  C37      1.0000 0.73750  0.61540  0.84560  Biso   1.000  C
  H48      1.0000 0.74230  0.57520  0.80780  Biso   1.000  H
  C38      1.0000 0.73730  0.60130  0.95940  Biso   1.000  C
  H49      1.0000 0.70210  0.57410  0.97570  Biso   1.000  H
  H50      1.0000 0.73340  0.64000  0.99870  Biso   1.000  H
  H51      1.0000 0.77610  0.58050  0.97830  Biso   1.000  H
  C39      1.0000 0.67660  0.64350  0.81250  Biso   1.000  C
  H52      1.0000 0.64250  0.61630  0.83390  Biso   1.000  H
  H53      1.0000 0.67610  0.64810  0.73690  Biso   1.000  H
  H54      1.0000 0.67160  0.68420  0.84510  Biso   1.000  H
  C40      1.0000 0.94370  0.68070  0.91750  Biso   1.000  C
  H55      1.0000 0.97540  0.71350  0.90980  Biso   1.000  H
  H56      1.0000 0.96530  0.64020  0.92000  Biso   1.000  H
  O8       1.0000 0.84604  0.53472  0.73810  Biso   1.000  O
  C41      1.0000 0.97580  0.83330  0.30350  Biso   1.000  C
  H57      1.0000 0.94360  0.84910  0.25440  Biso   1.000  H
  C42      1.0000 0.01080  0.78380  0.24180  Biso   1.000  C
  H58      1.0000 0.03990  0.76220  0.28770  Biso   1.000  H
  H59      1.0000 0.03370  0.80350  0.18510  Biso   1.000  H
  H60      1.0000 0.98110  0.75390  0.21320  Biso   1.000  H
  C43      1.0000 0.01900  0.88850  0.32070  Biso   1.000  C
  H61      1.0000 0.99730  0.92050  0.36080  Biso   1.000  H
  H62      1.0000 0.03160  0.90570  0.25350  Biso   1.000  H
  H63      1.0000 0.05590  0.87490  0.35890  Biso   1.000  H
  C44      1.0000 0.00660  0.81620  0.39350  Biso   1.000  C
  H64      1.0000 0.02150  0.79440  0.45730  Biso   1.000  H
  C45      1.0000 0.02940  0.88400  0.40300  Biso   1.000  C
  H65      1.0000 0.01610  0.90760  0.34200  Biso   1.000  H
  H66      1.0000 0.07480  0.88460  0.40750  Biso   1.000  H
  H67      1.0000 0.01180  0.90280  0.46560  Biso   1.000  H
  C46      1.0000 0.02900  0.77710  0.30170  Biso   1.000  C
  H68      1.0000 0.00420  0.73900  0.29740  Biso   1.000  H
  H69      1.0000 0.07270  0.76630  0.31150  Biso   1.000  H
  H70      1.0000 0.02420  0.80080  0.23740  Biso   1.000  H
  Cu3      1.0000 0.18686  0.55812  0.68584  Biso   1.000  Cu
  O9       1.0000 0.23779  0.64595  0.56020  Biso   1.000  O
  O10      1.0000 0.19828  0.55305  0.53160  Biso   1.000  O
  O11      1.0000 0.10596  0.59439  0.66540  Biso   1.000  O
  N5       1.0000 0.27102  0.66338  0.36520  Biso   1.000  N
  H71      1.0000 0.30650  0.66320  0.32430  Biso   1.000  H
  N6       1.0000 0.18182  0.59811  0.82610  Biso   1.000  N
  H72      1.0000 0.21800  0.62130  0.83270  Biso   1.000  H
  C47      1.0000 0.22817  0.59960  0.50210  Biso   1.000  C
  C48      1.0000 0.25690  0.59797  0.39570  Biso   1.000  C
  H73      1.0000 0.22700  0.57930  0.34520  Biso   1.000  H
  C49      1.0000 0.31570  0.55970  0.39890  Biso   1.000  C
  C50      1.0000 0.21950  0.69123  0.30380  Biso   1.000  C
  H74      1.0000 0.22920  0.73530  0.28940  Biso   1.000  H
  H75      1.0000 0.18090  0.69000  0.34550  Biso   1.000  H
  C51      1.0000 0.20860  0.65759  0.20200  Biso   1.000  C
  C52      1.0000 0.25390  0.65410  0.12720  Biso   1.000  C
  H76      1.0000 0.29210  0.67510  0.13790  Biso   1.000  H
  C53      1.0000 0.24550  0.62130  0.03800  Biso   1.000  C
  H77      1.0000 0.27820  0.61920  0.98870  Biso   1.000  H
  C54      1.0000 0.19050  0.59101  0.01790  Biso   1.000  C
  C55      1.0000 0.14380  0.59590  0.09230  Biso   1.000  C
  H78      1.0000 0.10510  0.57610  0.08070  Biso   1.000  H
  C56      1.0000 0.15300  0.62850  0.18140  Biso   1.000  C
  H79      1.0000 0.12020  0.63130  0.23050  Biso   1.000  H
  C57      1.0000 0.08622  0.62908  0.73680  Biso   1.000  C
  C58      1.0000 0.13069  0.64388  0.82600  Biso   1.000  C
  H80      1.0000 0.10770  0.64120  0.89320  Biso   1.000  H
  C59      1.0000 0.15700  0.70992  0.81300  Biso   1.000  C
  H81      1.0000 0.19600  0.71280  0.85340  Biso   1.000  H
  H82      1.0000 0.16790  0.71590  0.73910  Biso   1.000  H
  C60      1.0000 0.11540  0.76250  0.84560  Biso   1.000  C
  H83      1.0000 0.07520  0.75770  0.80780  Biso   1.000  H
  C61      1.0000 0.10130  0.76270  0.95940  Biso   1.000  C
  H84      1.0000 0.07410  0.79790  0.97570  Biso   1.000  H
  H85      1.0000 0.14000  0.76660  0.99870  Biso   1.000  H
  H86      1.0000 0.08050  0.72390  0.97830  Biso   1.000  H
  C62      1.0000 0.14350  0.82340  0.81250  Biso   1.000  C
  H87      1.0000 0.11630  0.85750  0.83390  Biso   1.000  H
  H88      1.0000 0.14810  0.82390  0.73690  Biso   1.000  H
  H89      1.0000 0.18420  0.82840  0.84510  Biso   1.000  H
  C63      1.0000 0.18070  0.55630  0.91750  Biso   1.000  C
  H90      1.0000 0.21350  0.52460  0.90980  Biso   1.000  H
  H91      1.0000 0.14020  0.53470  0.92000  Biso   1.000  H
  O12      1.0000 0.03472  0.65396  0.73810  Biso   1.000  O
  C64      1.0000 0.33330  0.52420  0.30350  Biso   1.000  C
  H92      1.0000 0.34910  0.55640  0.25440  Biso   1.000  H
  C65      1.0000 0.28380  0.48920  0.24180  Biso   1.000  C
  H93      1.0000 0.26220  0.46010  0.28770  Biso   1.000  H
  H94      1.0000 0.30350  0.46630  0.18510  Biso   1.000  H
  H95      1.0000 0.25390  0.51890  0.21320  Biso   1.000  H
  C66      1.0000 0.38850  0.48100  0.32070  Biso   1.000  C
  H96      1.0000 0.42050  0.50270  0.36080  Biso   1.000  H
  H97      1.0000 0.40570  0.46840  0.25350  Biso   1.000  H
  H98      1.0000 0.37490  0.44410  0.35890  Biso   1.000  H
  C67      1.0000 0.31620  0.49340  0.39350  Biso   1.000  C
  H99      1.0000 0.29440  0.47850  0.45730  Biso   1.000  H
  C68      1.0000 0.38400  0.47060  0.40300  Biso   1.000  C
  H100     1.0000 0.40760  0.48390  0.34200  Biso   1.000  H
  H101     1.0000 0.38460  0.42520  0.40750  Biso   1.000  H
  H102     1.0000 0.40280  0.48820  0.46560  Biso   1.000  H
  C69      1.0000 0.27710  0.47100  0.30170  Biso   1.000  C
  H103     1.0000 0.23900  0.49580  0.29740  Biso   1.000  H
  H104     1.0000 0.26630  0.42730  0.31150  Biso   1.000  H
  H105     1.0000 0.30080  0.47580  0.23740  Biso   1.000  H
  Cu4      1.0000 0.81314  0.44188  0.68584  Biso   1.000  Cu
  O13      1.0000 0.76221  0.35405  0.56020  Biso   1.000  O
  O14      1.0000 0.80172  0.44695  0.53160  Biso   1.000  O
  O15      1.0000 0.89404  0.40561  0.66540  Biso   1.000  O
  N7       1.0000 0.72898  0.33662  0.36520  Biso   1.000  N
  H106     1.0000 0.69350  0.33680  0.32430  Biso   1.000  H
  N8       1.0000 0.81818  0.40189  0.82610  Biso   1.000  N
  H107     1.0000 0.78200  0.37870  0.83270  Biso   1.000  H
  C70      1.0000 0.77183  0.40040  0.50210  Biso   1.000  C
  C71      1.0000 0.74310  0.40203  0.39570  Biso   1.000  C
  H108     1.0000 0.77300  0.42070  0.34520  Biso   1.000  H
  C72      1.0000 0.68430  0.44030  0.39890  Biso   1.000  C
  C73      1.0000 0.78050  0.30877  0.30380  Biso   1.000  C
  H109     1.0000 0.77080  0.26470  0.28940  Biso   1.000  H
  H110     1.0000 0.81910  0.31000  0.34550  Biso   1.000  H
  C74      1.0000 0.79140  0.34241  0.20200  Biso   1.000  C
  C75      1.0000 0.74610  0.34590  0.12720  Biso   1.000  C
  H111     1.0000 0.70790  0.32490  0.13790  Biso   1.000  H
  C76      1.0000 0.75450  0.37870  0.03800  Biso   1.000  C
  H112     1.0000 0.72180  0.38080  0.98870  Biso   1.000  H
  C77      1.0000 0.80950  0.40899  0.01790  Biso   1.000  C
  C78      1.0000 0.85620  0.40410  0.09230  Biso   1.000  C
  H113     1.0000 0.89490  0.42390  0.08070  Biso   1.000  H
  C79      1.0000 0.84700  0.37150  0.18140  Biso   1.000  C
  H114     1.0000 0.87980  0.36870  0.23050  Biso   1.000  H
  C80      1.0000 0.91378  0.37092  0.73680  Biso   1.000  C
  C81      1.0000 0.86931  0.35612  0.82600  Biso   1.000  C
  H115     1.0000 0.89230  0.35880  0.89320  Biso   1.000  H
  C82      1.0000 0.84300  0.29008  0.81300  Biso   1.000  C
  H116     1.0000 0.80400  0.28720  0.85340  Biso   1.000  H
  H117     1.0000 0.83210  0.28410  0.73910  Biso   1.000  H
  C83      1.0000 0.88460  0.23750  0.84560  Biso   1.000  C
  H118     1.0000 0.92480  0.24230  0.80780  Biso   1.000  H
  C84      1.0000 0.89870  0.23730  0.95940  Biso   1.000  C
  H119     1.0000 0.92590  0.20210  0.97570  Biso   1.000  H
  H120     1.0000 0.86000  0.23340  0.99870  Biso   1.000  H
  H121     1.0000 0.91950  0.27610  0.97830  Biso   1.000  H
  C85      1.0000 0.85650  0.17660  0.81250  Biso   1.000  C
  H122     1.0000 0.88370  0.14250  0.83390  Biso   1.000  H
  H123     1.0000 0.85190  0.17610  0.73690  Biso   1.000  H
  H124     1.0000 0.81580  0.17160  0.84510  Biso   1.000  H
  C86      1.0000 0.81930  0.44370  0.91750  Biso   1.000  C
  H125     1.0000 0.78650  0.47540  0.90980  Biso   1.000  H
  H126     1.0000 0.85980  0.46530  0.92000  Biso   1.000  H
  O16      1.0000 0.96528  0.34604  0.73810  Biso   1.000  O
  C87      1.0000 0.66670  0.47580  0.30350  Biso   1.000  C
  H127     1.0000 0.65090  0.44360  0.25440  Biso   1.000  H
  C88      1.0000 0.71620  0.51080  0.24180  Biso   1.000  C
  H128     1.0000 0.73780  0.53990  0.28770  Biso   1.000  H
  H129     1.0000 0.69650  0.53370  0.18510  Biso   1.000  H
  H130     1.0000 0.74610  0.48110  0.21320  Biso   1.000  H
  C89      1.0000 0.61150  0.51900  0.32070  Biso   1.000  C
  H131     1.0000 0.57950  0.49730  0.36080  Biso   1.000  H
  H132     1.0000 0.59430  0.53160  0.25350  Biso   1.000  H
  H133     1.0000 0.62510  0.55590  0.35890  Biso   1.000  H
  C90      1.0000 0.68380  0.50660  0.39350  Biso   1.000  C
  H134     1.0000 0.70560  0.52150  0.45730  Biso   1.000  H
  C91      1.0000 0.61600  0.52940  0.40300  Biso   1.000  C
  H135     1.0000 0.59240  0.51610  0.34200  Biso   1.000  H
  H136     1.0000 0.61540  0.57480  0.40750  Biso   1.000  H
  H137     1.0000 0.59720  0.51180  0.46560  Biso   1.000  H
  C92      1.0000 0.72290  0.52900  0.30170  Biso   1.000  C
  H138     1.0000 0.76100  0.50420  0.29740  Biso   1.000  H
  H139     1.0000 0.73370  0.57270  0.31150  Biso   1.000  H
  H140     1.0000 0.69920  0.52420  0.23740  Biso   1.000  H
  Cu5      1.0000 0.44188  0.81314  0.31416  Biso   1.000  Cu
  O17      1.0000 0.35405  0.76221  0.43980  Biso   1.000  O
  O18      1.0000 0.44695  0.80172  0.46840  Biso   1.000  O
  O19      1.0000 0.40561  0.89404  0.33460  Biso   1.000  O
  N9       1.0000 0.33662  0.72898  0.63480  Biso   1.000  N
  H141     1.0000 0.33680  0.69350  0.67570  Biso   1.000  H
  N10      1.0000 0.40189  0.81818  0.17390  Biso   1.000  N
  H142     1.0000 0.37870  0.78200  0.16730  Biso   1.000  H
  C93      1.0000 0.40040  0.77183  0.49790  Biso   1.000  C
  C94      1.0000 0.40203  0.74310  0.60430  Biso   1.000  C
  H143     1.0000 0.42070  0.77300  0.65480  Biso   1.000  H
  C95      1.0000 0.44030  0.68430  0.60110  Biso   1.000  C
  C96      1.0000 0.30877  0.78050  0.69620  Biso   1.000  C
  H144     1.0000 0.26470  0.77080  0.71060  Biso   1.000  H
  H145     1.0000 0.31000  0.81910  0.65450  Biso   1.000  H
  C97      1.0000 0.34241  0.79140  0.79800  Biso   1.000  C
  C98      1.0000 0.34590  0.74610  0.87280  Biso   1.000  C
  H146     1.0000 0.32490  0.70790  0.86210  Biso   1.000  H
  C99      1.0000 0.37870  0.75450  0.96200  Biso   1.000  C
  H147     1.0000 0.38080  0.72180  0.01130  Biso   1.000  H
  C100     1.0000 0.40899  0.80950  0.98210  Biso   1.000  C
  C101     1.0000 0.40410  0.85620  0.90770  Biso   1.000  C
  H148     1.0000 0.42390  0.89490  0.91930  Biso   1.000  H
  C102     1.0000 0.37150  0.84700  0.81860  Biso   1.000  C
  H149     1.0000 0.36870  0.87980  0.76950  Biso   1.000  H
  C103     1.0000 0.37092  0.91378  0.26320  Biso   1.000  C
  C104     1.0000 0.35612  0.86931  0.17400  Biso   1.000  C
  H150     1.0000 0.35880  0.89230  0.10680  Biso   1.000  H
  C105     1.0000 0.29008  0.84300  0.18700  Biso   1.000  C
  H151     1.0000 0.28720  0.80400  0.14660  Biso   1.000  H
  H152     1.0000 0.28410  0.83210  0.26090  Biso   1.000  H
  C106     1.0000 0.23750  0.88460  0.15440  Biso   1.000  C
  H153     1.0000 0.24230  0.92480  0.19220  Biso   1.000  H
  C107     1.0000 0.23730  0.89870  0.04060  Biso   1.000  C
  H154     1.0000 0.20210  0.92590  0.02430  Biso   1.000  H
  H155     1.0000 0.23340  0.86000  0.00130  Biso   1.000  H
  H156     1.0000 0.27610  0.91950  0.02170  Biso   1.000  H
  C108     1.0000 0.17660  0.85650  0.18750  Biso   1.000  C
  H157     1.0000 0.14250  0.88370  0.16610  Biso   1.000  H
  H158     1.0000 0.17610  0.85190  0.26310  Biso   1.000  H
  H159     1.0000 0.17160  0.81580  0.15490  Biso   1.000  H
  C109     1.0000 0.44370  0.81930  0.08250  Biso   1.000  C
  H160     1.0000 0.47540  0.78650  0.09020  Biso   1.000  H
  H161     1.0000 0.46530  0.85980  0.08000  Biso   1.000  H
  O20      1.0000 0.34604  0.96528  0.26190  Biso   1.000  O
  C110     1.0000 0.47580  0.66670  0.69650  Biso   1.000  C
  H162     1.0000 0.44360  0.65090  0.74560  Biso   1.000  H
  C111     1.0000 0.51080  0.71620  0.75820  Biso   1.000  C
  H163     1.0000 0.53990  0.73780  0.71230  Biso   1.000  H
  H164     1.0000 0.53370  0.69650  0.81490  Biso   1.000  H
  H165     1.0000 0.48110  0.74610  0.78680  Biso   1.000  H
  C112     1.0000 0.51900  0.61150  0.67930  Biso   1.000  C
  H166     1.0000 0.49730  0.57950  0.63920  Biso   1.000  H
  H167     1.0000 0.53160  0.59430  0.74650  Biso   1.000  H
  H168     1.0000 0.55590  0.62510  0.64110  Biso   1.000  H
  C113     1.0000 0.50660  0.68380  0.60650  Biso   1.000  C
  H169     1.0000 0.52150  0.70560  0.54270  Biso   1.000  H
  C114     1.0000 0.52940  0.61600  0.59700  Biso   1.000  C
  H170     1.0000 0.51610  0.59240  0.65800  Biso   1.000  H
  H171     1.0000 0.57480  0.61540  0.59250  Biso   1.000  H
  H172     1.0000 0.51180  0.59720  0.53440  Biso   1.000  H
  C115     1.0000 0.52900  0.72290  0.69830  Biso   1.000  C
  H173     1.0000 0.50420  0.76100  0.70260  Biso   1.000  H
  H174     1.0000 0.57270  0.73370  0.68850  Biso   1.000  H
  H175     1.0000 0.52420  0.69920  0.76260  Biso   1.000  H
  Cu6      1.0000 0.55812  0.18686  0.31416  Biso   1.000  Cu
  O21      1.0000 0.64595  0.23779  0.43980  Biso   1.000  O
  O22      1.0000 0.55305  0.19828  0.46840  Biso   1.000  O
  O23      1.0000 0.59439  0.10596  0.33460  Biso   1.000  O
  N11      1.0000 0.66338  0.27102  0.63480  Biso   1.000  N
  H176     1.0000 0.66320  0.30650  0.67570  Biso   1.000  H
  N12      1.0000 0.59811  0.18182  0.17390  Biso   1.000  N
  H177     1.0000 0.62130  0.21800  0.16730  Biso   1.000  H
  C116     1.0000 0.59960  0.22817  0.49790  Biso   1.000  C
  C117     1.0000 0.59797  0.25690  0.60430  Biso   1.000  C
  H178     1.0000 0.57930  0.22700  0.65480  Biso   1.000  H
  C118     1.0000 0.55970  0.31570  0.60110  Biso   1.000  C
  C119     1.0000 0.69123  0.21950  0.69620  Biso   1.000  C
  H179     1.0000 0.73530  0.22920  0.71060  Biso   1.000  H
  H180     1.0000 0.69000  0.18090  0.65450  Biso   1.000  H
  C120     1.0000 0.65759  0.20860  0.79800  Biso   1.000  C
  C121     1.0000 0.65410  0.25390  0.87280  Biso   1.000  C
  H181     1.0000 0.67510  0.29210  0.86210  Biso   1.000  H
  C122     1.0000 0.62130  0.24550  0.96200  Biso   1.000  C
  H182     1.0000 0.61920  0.27820  0.01130  Biso   1.000  H
  C123     1.0000 0.59101  0.19050  0.98210  Biso   1.000  C
  C124     1.0000 0.59590  0.14380  0.90770  Biso   1.000  C
  H183     1.0000 0.57610  0.10510  0.91930  Biso   1.000  H
  C125     1.0000 0.62850  0.15300  0.81860  Biso   1.000  C
  H184     1.0000 0.63130  0.12020  0.76950  Biso   1.000  H
  C126     1.0000 0.62908  0.08622  0.26320  Biso   1.000  C
  C127     1.0000 0.64388  0.13069  0.17400  Biso   1.000  C
  H185     1.0000 0.64120  0.10770  0.10680  Biso   1.000  H
  C128     1.0000 0.70992  0.15700  0.18700  Biso   1.000  C
  H186     1.0000 0.71280  0.19600  0.14660  Biso   1.000  H
  H187     1.0000 0.71590  0.16790  0.26090  Biso   1.000  H
  C129     1.0000 0.76250  0.11540  0.15440  Biso   1.000  C
  H188     1.0000 0.75770  0.07520  0.19220  Biso   1.000  H
  C130     1.0000 0.76270  0.10130  0.04060  Biso   1.000  C
  H189     1.0000 0.79790  0.07410  0.02430  Biso   1.000  H
  H190     1.0000 0.76660  0.14000  0.00130  Biso   1.000  H
  H191     1.0000 0.72390  0.08050  0.02170  Biso   1.000  H
  C131     1.0000 0.82340  0.14350  0.18750  Biso   1.000  C
  H192     1.0000 0.85750  0.11630  0.16610  Biso   1.000  H
  H193     1.0000 0.82390  0.14810  0.26310  Biso   1.000  H
  H194     1.0000 0.82840  0.18420  0.15490  Biso   1.000  H
  C132     1.0000 0.55630  0.18070  0.08250  Biso   1.000  C
  H195     1.0000 0.52460  0.21350  0.09020  Biso   1.000  H
  H196     1.0000 0.53470  0.14020  0.08000  Biso   1.000  H
  O24      1.0000 0.65396  0.03472  0.26190  Biso   1.000  O
  C133     1.0000 0.52420  0.33330  0.69650  Biso   1.000  C
  H197     1.0000 0.55640  0.34910  0.74560  Biso   1.000  H
  C134     1.0000 0.48920  0.28380  0.75820  Biso   1.000  C
  H198     1.0000 0.46010  0.26220  0.71230  Biso   1.000  H
  H199     1.0000 0.46630  0.30350  0.81490  Biso   1.000  H
  H200     1.0000 0.51890  0.25390  0.78680  Biso   1.000  H
  C135     1.0000 0.48100  0.38850  0.67930  Biso   1.000  C
  H201     1.0000 0.50270  0.42050  0.63920  Biso   1.000  H
  H202     1.0000 0.46840  0.40570  0.74650  Biso   1.000  H
  H203     1.0000 0.44410  0.37490  0.64110  Biso   1.000  H
  C136     1.0000 0.49340  0.31620  0.60650  Biso   1.000  C
  H204     1.0000 0.47850  0.29440  0.54270  Biso   1.000  H
  C137     1.0000 0.47060  0.38400  0.59700  Biso   1.000  C
  H205     1.0000 0.48390  0.40760  0.65800  Biso   1.000  H
  H206     1.0000 0.42520  0.38460  0.59250  Biso   1.000  H
  H207     1.0000 0.48820  0.40280  0.53440  Biso   1.000  H
  C138     1.0000 0.47100  0.27710  0.69830  Biso   1.000  C
  H208     1.0000 0.49580  0.23900  0.70260  Biso   1.000  H
  H209     1.0000 0.42730  0.26630  0.68850  Biso   1.000  H
  H210     1.0000 0.47580  0.30080  0.76260  Biso   1.000  H
  Cu7      1.0000 0.31314  0.05812  0.31416  Biso   1.000  Cu
  O25      1.0000 0.26221  0.14595  0.43980  Biso   1.000  O
  O26      1.0000 0.30172  0.05305  0.46840  Biso   1.000  O
  O27      1.0000 0.39404  0.09439  0.33460  Biso   1.000  O
  N13      1.0000 0.22898  0.16338  0.63480  Biso   1.000  N
  H211     1.0000 0.19350  0.16320  0.67570  Biso   1.000  H
  N14      1.0000 0.31818  0.09811  0.17390  Biso   1.000  N
  H212     1.0000 0.28200  0.12130  0.16730  Biso   1.000  H
  C139     1.0000 0.27183  0.09960  0.49790  Biso   1.000  C
  C140     1.0000 0.24310  0.09797  0.60430  Biso   1.000  C
  H213     1.0000 0.27300  0.07930  0.65480  Biso   1.000  H
  C141     1.0000 0.18430  0.05970  0.60110  Biso   1.000  C
  C142     1.0000 0.28050  0.19123  0.69620  Biso   1.000  C
  H214     1.0000 0.27080  0.23530  0.71060  Biso   1.000  H
  H215     1.0000 0.31910  0.19000  0.65450  Biso   1.000  H
  C143     1.0000 0.29140  0.15759  0.79800  Biso   1.000  C
  C144     1.0000 0.24610  0.15410  0.87280  Biso   1.000  C
  H216     1.0000 0.20790  0.17510  0.86210  Biso   1.000  H
  C145     1.0000 0.25450  0.12130  0.96200  Biso   1.000  C
  H217     1.0000 0.22180  0.11920  0.01130  Biso   1.000  H
  C146     1.0000 0.30950  0.09101  0.98210  Biso   1.000  C
  C147     1.0000 0.35620  0.09590  0.90770  Biso   1.000  C
  H218     1.0000 0.39490  0.07610  0.91930  Biso   1.000  H
  C148     1.0000 0.34700  0.12850  0.81860  Biso   1.000  C
  H219     1.0000 0.37980  0.13130  0.76950  Biso   1.000  H
  C149     1.0000 0.41378  0.12908  0.26320  Biso   1.000  C
  C150     1.0000 0.36931  0.14388  0.17400  Biso   1.000  C
  H220     1.0000 0.39230  0.14120  0.10680  Biso   1.000  H
  C151     1.0000 0.34300  0.20992  0.18700  Biso   1.000  C
  H221     1.0000 0.30400  0.21280  0.14660  Biso   1.000  H
  H222     1.0000 0.33210  0.21590  0.26090  Biso   1.000  H
  C152     1.0000 0.38460  0.26250  0.15440  Biso   1.000  C
  H223     1.0000 0.42480  0.25770  0.19220  Biso   1.000  H
  C153     1.0000 0.39870  0.26270  0.04060  Biso   1.000  C
  H224     1.0000 0.42590  0.29790  0.02430  Biso   1.000  H
  H225     1.0000 0.36000  0.26660  0.00130  Biso   1.000  H
  H226     1.0000 0.41950  0.22390  0.02170  Biso   1.000  H
  C154     1.0000 0.35650  0.32340  0.18750  Biso   1.000  C
  H227     1.0000 0.38370  0.35750  0.16610  Biso   1.000  H
  H228     1.0000 0.35190  0.32390  0.26310  Biso   1.000  H
  H229     1.0000 0.31580  0.32840  0.15490  Biso   1.000  H
  C155     1.0000 0.31930  0.05630  0.08250  Biso   1.000  C
  H230     1.0000 0.28650  0.02460  0.09020  Biso   1.000  H
  H231     1.0000 0.35980  0.03470  0.08000  Biso   1.000  H
  O28      1.0000 0.46528  0.15396  0.26190  Biso   1.000  O
  C156     1.0000 0.16670  0.02420  0.69650  Biso   1.000  C
  H232     1.0000 0.15090  0.05640  0.74560  Biso   1.000  H
  C157     1.0000 0.21620  0.98920  0.75820  Biso   1.000  C
  H233     1.0000 0.23780  0.96010  0.71230  Biso   1.000  H
  H234     1.0000 0.19650  0.96630  0.81490  Biso   1.000  H
  H235     1.0000 0.24610  0.01890  0.78680  Biso   1.000  H
  C158     1.0000 0.11150  0.98100  0.67930  Biso   1.000  C
  H236     1.0000 0.07950  0.00270  0.63920  Biso   1.000  H
  H237     1.0000 0.09430  0.96840  0.74650  Biso   1.000  H
  H238     1.0000 0.12510  0.94410  0.64110  Biso   1.000  H
  C159     1.0000 0.18380  0.99340  0.60650  Biso   1.000  C
  H239     1.0000 0.20560  0.97850  0.54270  Biso   1.000  H
  C160     1.0000 0.11600  0.97060  0.59700  Biso   1.000  C
  H240     1.0000 0.09240  0.98390  0.65800  Biso   1.000  H
  H241     1.0000 0.11540  0.92520  0.59250  Biso   1.000  H
  H242     1.0000 0.09720  0.98820  0.53440  Biso   1.000  H
  C161     1.0000 0.22290  0.97100  0.69830  Biso   1.000  C
  H243     1.0000 0.26100  0.99580  0.70260  Biso   1.000  H
  H244     1.0000 0.23370  0.92730  0.68850  Biso   1.000  H
  H245     1.0000 0.19920  0.97580  0.76260  Biso   1.000  H
  Cu8      1.0000 0.68686  0.94188  0.31416  Biso   1.000  Cu
  O29      1.0000 0.73779  0.85405  0.43980  Biso   1.000  O
  O30      1.0000 0.69828  0.94695  0.46840  Biso   1.000  O
  O31      1.0000 0.60596  0.90561  0.33460  Biso   1.000  O
  N15      1.0000 0.77102  0.83662  0.63480  Biso   1.000  N
  H246     1.0000 0.80650  0.83680  0.67570  Biso   1.000  H
  N16      1.0000 0.68182  0.90189  0.17390  Biso   1.000  N
  H247     1.0000 0.71800  0.87870  0.16730  Biso   1.000  H
  C162     1.0000 0.72817  0.90040  0.49790  Biso   1.000  C
  C163     1.0000 0.75690  0.90203  0.60430  Biso   1.000  C
  H248     1.0000 0.72700  0.92070  0.65480  Biso   1.000  H
  C164     1.0000 0.81570  0.94030  0.60110  Biso   1.000  C
  C165     1.0000 0.71950  0.80877  0.69620  Biso   1.000  C
  H249     1.0000 0.72920  0.76470  0.71060  Biso   1.000  H
  H250     1.0000 0.68090  0.81000  0.65450  Biso   1.000  H
  C166     1.0000 0.70860  0.84241  0.79800  Biso   1.000  C
  C167     1.0000 0.75390  0.84590  0.87280  Biso   1.000  C
  H251     1.0000 0.79210  0.82490  0.86210  Biso   1.000  H
  C168     1.0000 0.74550  0.87870  0.96200  Biso   1.000  C
  H252     1.0000 0.77820  0.88080  0.01130  Biso   1.000  H
  C169     1.0000 0.69050  0.90899  0.98210  Biso   1.000  C
  C170     1.0000 0.64380  0.90410  0.90770  Biso   1.000  C
  H253     1.0000 0.60510  0.92390  0.91930  Biso   1.000  H
  C171     1.0000 0.65300  0.87150  0.81860  Biso   1.000  C
  H254     1.0000 0.62020  0.86870  0.76950  Biso   1.000  H
  C172     1.0000 0.58622  0.87092  0.26320  Biso   1.000  C
  C173     1.0000 0.63069  0.85612  0.17400  Biso   1.000  C
  H255     1.0000 0.60770  0.85880  0.10680  Biso   1.000  H
  C174     1.0000 0.65700  0.79008  0.18700  Biso   1.000  C
  H256     1.0000 0.69600  0.78720  0.14660  Biso   1.000  H
  H257     1.0000 0.66790  0.78410  0.26090  Biso   1.000  H
  C175     1.0000 0.61540  0.73750  0.15440  Biso   1.000  C
  H258     1.0000 0.57520  0.74230  0.19220  Biso   1.000  H
  C176     1.0000 0.60130  0.73730  0.04060  Biso   1.000  C
  H259     1.0000 0.57410  0.70210  0.02430  Biso   1.000  H
  H260     1.0000 0.64000  0.73340  0.00130  Biso   1.000  H
  H261     1.0000 0.58050  0.77610  0.02170  Biso   1.000  H
  C177     1.0000 0.64350  0.67660  0.18750  Biso   1.000  C
  H262     1.0000 0.61630  0.64250  0.16610  Biso   1.000  H
  H263     1.0000 0.64810  0.67610  0.26310  Biso   1.000  H
  H264     1.0000 0.68420  0.67160  0.15490  Biso   1.000  H
  C178     1.0000 0.68070  0.94370  0.08250  Biso   1.000  C
  H265     1.0000 0.71350  0.97540  0.09020  Biso   1.000  H
  H266     1.0000 0.64020  0.96530  0.08000  Biso   1.000  H
  O32      1.0000 0.53472  0.84604  0.26190  Biso   1.000  O
  C179     1.0000 0.83330  0.97580  0.69650  Biso   1.000  C
  H267     1.0000 0.84910  0.94360  0.74560  Biso   1.000  H
  C180     1.0000 0.78380  0.01080  0.75820  Biso   1.000  C
  H268     1.0000 0.76220  0.03990  0.71230  Biso   1.000  H
  H269     1.0000 0.80350  0.03370  0.81490  Biso   1.000  H
  H270     1.0000 0.75390  0.98110  0.78680  Biso   1.000  H
  C181     1.0000 0.88850  0.01900  0.67930  Biso   1.000  C
  H271     1.0000 0.92050  0.99730  0.63920  Biso   1.000  H
  H272     1.0000 0.90570  0.03160  0.74650  Biso   1.000  H
  H273     1.0000 0.87490  0.05590  0.64110  Biso   1.000  H
  C182     1.0000 0.81620  0.00660  0.60650  Biso   1.000  C
  H274     1.0000 0.79440  0.02150  0.54270  Biso   1.000  H
  C183     1.0000 0.88400  0.02940  0.59700  Biso   1.000  C
  H275     1.0000 0.90760  0.01610  0.65800  Biso   1.000  H
  H276     1.0000 0.88460  0.07480  0.59250  Biso   1.000  H
  H277     1.0000 0.90280  0.01180  0.53440  Biso   1.000  H
  C184     1.0000 0.77710  0.02900  0.69830  Biso   1.000  C
  H278     1.0000 0.73900  0.00420  0.70260  Biso   1.000  H
  H279     1.0000 0.76630  0.07270  0.68850  Biso   1.000  H
  H280     1.0000 0.80080  0.02420  0.76260  Biso   1.000  H
  Cu9      1.0000 0.20947  0.20947  0.50000  Biso   1.000  Cu
  Cu10     1.0000 0.79053  0.79053  0.50000  Biso   1.000  Cu
  Cu11     1.0000 0.29053  0.70947  0.50000  Biso   1.000  Cu
  Cu12     1.0000 0.70947  0.29053  0.50000  Biso   1.000  Cu
