data_image0
_cell_length_a       9.6812
_cell_length_b       12.2892
_cell_length_c       15.7406
_cell_angle_alpha    88.977
_cell_angle_beta     77.463
_cell_angle_gamma    69.75

_symmetry_space_group_name_H-M    "P 1"
_symmetry_int_tables_number       1

loop_
  _symmetry_equiv_pos_as_xyz
  'x, y, z'

loop_
  _atom_site_label
  _atom_site_occupancy
  _atom_site_fract_x
  _atom_site_fract_y
  _atom_site_fract_z
  _atom_site_thermal_displace_type
  _atom_site_B_iso_or_equiv
  _atom_site_type_symbol
  Nd1      1.0000 0.29837  0.97316  0.51569  Biso   1.000  Nd
  O1       1.0000 0.15860  0.86660  0.60666  Biso   1.000  O
  O2       1.0000 0.01490  0.76280  0.59312  Biso   1.000  O
  H1       1.0000 0.98610  0.81300  0.55770  Biso   1.000  H
  O3       1.0000 0.25570  0.05310  0.66238  Biso   1.000  O
  O4       1.0000 0.46150  0.08200  0.59129  Biso   1.000  O
  O5       1.0000 0.30400  0.13680  0.43780  Biso   1.000  O
  O6       1.0000 0.51750  0.17450  0.42478  Biso   1.000  O
  O7       1.0000 0.19720  0.90470  0.40907  Biso   1.000  O
  O8       1.0000 0.96880  0.88990  0.45652  Biso   1.000  O
  C1       1.0000 0.22940  0.54370  0.93820  Biso   1.000  C
  C2       1.0000 0.26950  0.42260  0.94380  Biso   1.000  C
  C3       1.0000 0.29040  0.37600  0.02310  Biso   1.000  C
  H2       1.0000 0.32030  0.29400  0.02580  Biso   1.000  H
  C4       1.0000 0.27020  0.44230  0.09910  Biso   1.000  C
  C5       1.0000 0.22500  0.56340  0.09510  Biso   1.000  C
  C6       1.0000 0.20800  0.60970  0.01420  Biso   1.000  C
  H3       1.0000 0.18000  0.69160  0.01110  Biso   1.000  H
  C7       1.0000 0.20050  0.60370  0.85750  Biso   1.000  C
  C8       1.0000 0.12180  0.57100  0.80390  Biso   1.000  C
  H4       1.0000 0.08830  0.50740  0.81800  Biso   1.000  H
  C9       1.0000 0.09240  0.63000  0.73060  Biso   1.000  C
  H5       1.0000 0.03800  0.60740  0.69500  Biso   1.000  H
  C10      1.0000 0.14230  0.72310  0.70840  Biso   1.000  C
  C11      1.0000 0.22070  0.75720  0.76090  Biso   1.000  C
  H6       1.0000 0.25510  0.82020  0.74620  Biso   1.000  H
  C12      1.0000 0.24820  0.69790  0.83520  Biso   1.000  C
  H7       1.0000 0.30030  0.72180  0.87150  Biso   1.000  H
  C13      1.0000 0.10810  0.78980  0.63190  Biso   1.000  C
  C14      1.0000 0.29560  0.33950  0.86900  Biso   1.000  C
  C15      1.0000 0.40410  0.32830  0.79320  Biso   1.000  C
  H8       1.0000 0.46270  0.37720  0.78650  Biso   1.000  H
  C16      1.0000 0.42870  0.24680  0.72670  Biso   1.000  C
  H9       1.0000 0.50780  0.23730  0.67660  Biso   1.000  H
  C17      1.0000 0.33940  0.17910  0.73270  Biso   1.000  C
  C18      1.0000 0.22770  0.19030  0.80840  Biso   1.000  C
  H10      1.0000 0.16490  0.14480  0.81300  Biso   1.000  H
  C19      1.0000 0.20770  0.26810  0.87720  Biso   1.000  C
  H11      1.0000 0.13480  0.27290  0.92950  Biso   1.000  H
  C20      1.0000 0.35340  0.09810  0.65850  Biso   1.000  C
  C21      1.0000 0.30160  0.37860  0.17890  Biso   1.000  C
  C22      1.0000 0.25850  0.28300  0.19810  Biso   1.000  C
  H12      1.0000 0.20830  0.25900  0.16050  Biso   1.000  H
  C23      1.0000 0.28630  0.22200  0.27000  Biso   1.000  C
  H13      1.0000 0.25250  0.15840  0.28270  Biso   1.000  H
  C24      1.0000 0.36360  0.25270  0.32450  Biso   1.000  C
  C25      1.0000 0.41340  0.34490  0.30430  Biso   1.000  C
  H14      1.0000 0.47040  0.36460  0.33960  Biso   1.000  H
  C26      1.0000 0.38110  0.40870  0.23300  Biso   1.000  C
  H15      1.0000 0.41310  0.47340  0.22100  Biso   1.000  H
  C27      1.0000 0.39740  0.18330  0.40230  Biso   1.000  C
  C28      1.0000 0.18620  0.64530  0.17180  Biso   1.000  C
  C29      1.0000 0.08750  0.63680  0.24840  Biso   1.000  C
  H16      1.0000 0.04540  0.57710  0.25170  Biso   1.000  H
  C30      1.0000 0.04980  0.71480  0.32030  Biso   1.000  C
  H17      1.0000 0.97810  0.71050  0.37090  Biso   1.000  H
  C31      1.0000 0.11660  0.79900  0.31820  Biso   1.000  C
  C32      1.0000 0.21510  0.80830  0.24150  Biso   1.000  C
  H18      1.0000 0.26090  0.86570  0.23900  Biso   1.000  H
  C33      1.0000 0.24620  0.73420  0.16900  Biso   1.000  C
  H19      1.0000 0.30950  0.74390  0.11630  Biso   1.000  H
  C34      1.0000 0.09260  0.87120  0.39960  Biso   1.000  C
  Nd2      1.0000 0.70163  0.02684  0.48431  Biso   1.000  Nd
  O9       1.0000 0.84140  0.13340  0.39334  Biso   1.000  O
  O10      1.0000 0.98510  0.23720  0.40688  Biso   1.000  O
  H20      1.0000 0.01390  0.18700  0.44230  Biso   1.000  H
  O11      1.0000 0.74430  0.94690  0.33762  Biso   1.000  O
  O12      1.0000 0.53850  0.91800  0.40871  Biso   1.000  O
  O13      1.0000 0.69600  0.86320  0.56220  Biso   1.000  O
  O14      1.0000 0.48250  0.82550  0.57522  Biso   1.000  O
  O15      1.0000 0.80280  0.09530  0.59093  Biso   1.000  O
  O16      1.0000 0.03120  0.11010  0.54348  Biso   1.000  O
  C35      1.0000 0.77060  0.45630  0.06180  Biso   1.000  C
  C36      1.0000 0.73050  0.57740  0.05620  Biso   1.000  C
  C37      1.0000 0.70960  0.62400  0.97690  Biso   1.000  C
  H21      1.0000 0.67970  0.70600  0.97420  Biso   1.000  H
  C38      1.0000 0.72980  0.55770  0.90090  Biso   1.000  C
  C39      1.0000 0.77500  0.43660  0.90490  Biso   1.000  C
  C40      1.0000 0.79200  0.39030  0.98580  Biso   1.000  C
  H22      1.0000 0.82000  0.30840  0.98890  Biso   1.000  H
  C41      1.0000 0.79950  0.39630  0.14250  Biso   1.000  C
  C42      1.0000 0.87820  0.42900  0.19610  Biso   1.000  C
  H23      1.0000 0.91170  0.49260  0.18200  Biso   1.000  H
  C43      1.0000 0.90760  0.37000  0.26940  Biso   1.000  C
  H24      1.0000 0.96200  0.39260  0.30500  Biso   1.000  H
  C44      1.0000 0.85770  0.27690  0.29160  Biso   1.000  C
  C45      1.0000 0.77930  0.24280  0.23910  Biso   1.000  C
  H25      1.0000 0.74490  0.17980  0.25380  Biso   1.000  H
  C46      1.0000 0.75180  0.30210  0.16480  Biso   1.000  C
  H26      1.0000 0.69970  0.27820  0.12850  Biso   1.000  H
  C47      1.0000 0.89190  0.21020  0.36810  Biso   1.000  C
  C48      1.0000 0.70440  0.66050  0.13100  Biso   1.000  C
  C49      1.0000 0.59590  0.67170  0.20680  Biso   1.000  C
  H27      1.0000 0.53730  0.62280  0.21350  Biso   1.000  H
  C50      1.0000 0.57130  0.75320  0.27330  Biso   1.000  C
  H28      1.0000 0.49220  0.76270  0.32340  Biso   1.000  H
  C51      1.0000 0.66060  0.82090  0.26730  Biso   1.000  C
  C52      1.0000 0.77230  0.80970  0.19160  Biso   1.000  C
  H29      1.0000 0.83510  0.85520  0.18700  Biso   1.000  H
  C53      1.0000 0.79230  0.73190  0.12280  Biso   1.000  C
  H30      1.0000 0.86520  0.72710  0.07050  Biso   1.000  H
  C54      1.0000 0.64660  0.90190  0.34150  Biso   1.000  C
  C55      1.0000 0.69840  0.62140  0.82110  Biso   1.000  C
  C56      1.0000 0.74150  0.71700  0.80190  Biso   1.000  C
  H31      1.0000 0.79170  0.74100  0.83950  Biso   1.000  H
  C57      1.0000 0.71370  0.77800  0.73000  Biso   1.000  C
  H32      1.0000 0.74750  0.84160  0.71730  Biso   1.000  H
  C58      1.0000 0.63640  0.74730  0.67550  Biso   1.000  C
  C59      1.0000 0.58660  0.65510  0.69570  Biso   1.000  C
  H33      1.0000 0.52960  0.63540  0.66040  Biso   1.000  H
  C60      1.0000 0.61890  0.59130  0.76700  Biso   1.000  C
  H34      1.0000 0.58690  0.52660  0.77900  Biso   1.000  H
  C61      1.0000 0.60260  0.81670  0.59770  Biso   1.000  C
  C62      1.0000 0.81380  0.35470  0.82820  Biso   1.000  C
  C63      1.0000 0.91250  0.36320  0.75160  Biso   1.000  C
  H35      1.0000 0.95460  0.42290  0.74830  Biso   1.000  H
  C64      1.0000 0.95020  0.28520  0.67970  Biso   1.000  C
  H36      1.0000 0.02190  0.28950  0.62910  Biso   1.000  H
  C65      1.0000 0.88340  0.20100  0.68180  Biso   1.000  C
  C66      1.0000 0.78490  0.19170  0.75850  Biso   1.000  C
  H37      1.0000 0.73910  0.13430  0.76100  Biso   1.000  H
  C67      1.0000 0.75380  0.26580  0.83100  Biso   1.000  C
  H38      1.0000 0.69050  0.25610  0.88370  Biso   1.000  H
  C68      1.0000 0.90740  0.12880  0.60040  Biso   1.000  C
  C69      1.0000 0.18870  0.97330  0.93280  Biso   1.000  C
  C70      1.0000 0.29480  0.98170  0.97810  Biso   1.000  C
  C71      1.0000 0.24810  0.00840  0.06800  Biso   1.000  C
  C72      1.0000 0.09900  0.02650  0.11130  Biso   1.000  C
  C73      1.0000 0.99530  0.01800  0.06510  Biso   1.000  C
  C74      1.0000 0.03910  0.99120  0.97480  Biso   1.000  C
  C75      1.0000 0.45510  0.96330  0.93000  Biso   1.000  C
  C76      1.0000 0.92690  0.98160  0.92460  Biso   1.000  C
  H39      1.0000 0.21890  0.95540  0.87290  Biso   1.000  H
  H40      1.0000 0.31670  0.01410  0.09940  Biso   1.000  H
  H41      1.0000 0.06890  0.04430  0.17110  Biso   1.000  H
  H42      1.0000 0.89620  0.03030  0.09440  Biso   1.000  H
  H43      1.0000 0.50080  0.88660  0.90200  Biso   1.000  H
  H44      1.0000 0.45440  0.01970  0.88690  Biso   1.000  H
  H45      1.0000 0.51210  0.97210  0.97060  Biso   1.000  H
  H46      1.0000 0.91700  0.03740  0.88080  Biso   1.000  H
  H47      1.0000 0.96170  0.90470  0.89720  Biso   1.000  H
  H48      1.0000 0.83040  0.99650  0.96380  Biso   1.000  H
  C77      1.0000 0.29540  0.02130  0.08050  Biso   1.000  C
  C78      1.0000 0.44660  0.00130  0.03920  Biso   1.000  C
  C79      1.0000 0.49500  0.96310  0.95100  Biso   1.000  C
  C80      1.0000 0.24540  0.96530  0.94790  Biso   1.000  C
  C81      1.0000 0.39490  0.94510  0.90570  Biso   1.000  C
  C82      1.0000 0.19350  0.00390  0.03630  Biso   1.000  C
  C83      1.0000 0.55390  0.01970  0.08960  Biso   1.000  C
  C84      1.0000 0.03110  0.02610  0.08220  Biso   1.000  C
  H49      1.0000 0.26200  0.04690  0.13910  Biso   1.000  H
  H50      1.0000 0.59470  0.94960  0.92230  Biso   1.000  H
  H51      1.0000 0.17950  0.95300  0.91730  Biso   1.000  H
  H52      1.0000 0.42830  0.91960  0.84710  Biso   1.000  H
  H53      1.0000 0.51680  0.09920  0.11210  Biso   1.000  H
  H54      1.0000 0.56100  0.96940  0.13710  Biso   1.000  H
  H55      1.0000 0.65200  0.00220  0.05160  Biso   1.000  H
  H56      1.0000 0.02820  0.97690  0.13010  Biso   1.000  H
  H57      1.0000 0.98370  0.10600  0.10380  Biso   1.000  H
  H58      1.0000 0.97820  0.00960  0.04200  Biso   1.000  H
  C85      1.0000 0.81130  0.02670  0.06720  Biso   1.000  C
  C86      1.0000 0.70520  0.01830  0.02190  Biso   1.000  C
  C87      1.0000 0.75190  0.99160  0.93200  Biso   1.000  C
  C88      1.0000 0.90100  0.97350  0.88870  Biso   1.000  C
  C89      1.0000 0.00470  0.98200  0.93490  Biso   1.000  C
  C90      1.0000 0.96090  0.00880  0.02520  Biso   1.000  C
  C91      1.0000 0.54490  0.03670  0.07000  Biso   1.000  C
  C92      1.0000 0.07310  0.01840  0.07540  Biso   1.000  C
  H59      1.0000 0.78110  0.04460  0.12710  Biso   1.000  H
  H60      1.0000 0.68330  0.98590  0.90060  Biso   1.000  H
  H61      1.0000 0.93110  0.95570  0.82890  Biso   1.000  H
  H62      1.0000 0.10380  0.96970  0.90560  Biso   1.000  H
  H63      1.0000 0.49920  0.11340  0.09800  Biso   1.000  H
  H64      1.0000 0.54560  0.98030  0.11310  Biso   1.000  H
  H65      1.0000 0.48790  0.02790  0.02940  Biso   1.000  H
  H66      1.0000 0.08300  0.96260  0.11920  Biso   1.000  H
  H67      1.0000 0.03830  0.09530  0.10280  Biso   1.000  H
  H68      1.0000 0.16960  0.00350  0.03620  Biso   1.000  H
  C93      1.0000 0.70460  0.97870  0.91950  Biso   1.000  C
  C94      1.0000 0.55340  0.99870  0.96080  Biso   1.000  C
  C95      1.0000 0.50500  0.03690  0.04900  Biso   1.000  C
  C96      1.0000 0.75460  0.03470  0.05210  Biso   1.000  C
  C97      1.0000 0.60510  0.05490  0.09430  Biso   1.000  C
  C98      1.0000 0.80650  0.99610  0.96370  Biso   1.000  C
  C99      1.0000 0.44610  0.98030  0.91040  Biso   1.000  C
  C100     1.0000 0.96890  0.97390  0.91780  Biso   1.000  C
  H69      1.0000 0.73800  0.95310  0.86090  Biso   1.000  H
  H70      1.0000 0.40530  0.05040  0.07770  Biso   1.000  H
  H71      1.0000 0.82050  0.04700  0.08270  Biso   1.000  H
  H72      1.0000 0.57170  0.08040  0.15290  Biso   1.000  H
  H73      1.0000 0.48320  0.90080  0.88790  Biso   1.000  H
  H74      1.0000 0.43900  0.03060  0.86290  Biso   1.000  H
  H75      1.0000 0.34800  0.99780  0.94840  Biso   1.000  H
  H76      1.0000 0.97180  0.02310  0.86990  Biso   1.000  H
  H77      1.0000 0.01630  0.89400  0.89620  Biso   1.000  H
  H78      1.0000 0.02180  0.99040  0.95800  Biso   1.000  H
