data_image0
_cell_length_a       14.6595
_cell_length_b       14.5575
_cell_length_c       28.114
_cell_angle_alpha    90
_cell_angle_beta     90
_cell_angle_gamma    90

_symmetry_space_group_name_H-M    "P 1"
_symmetry_int_tables_number       1

loop_
  _symmetry_equiv_pos_as_xyz
  'x, y, z'

loop_
  _atom_site_label
  _atom_site_occupancy
  _atom_site_fract_x
  _atom_site_fract_y
  _atom_site_fract_z
  _atom_site_thermal_displace_type
  _atom_site_B_iso_or_equiv
  _atom_site_type_symbol
  Zn1      1.0000 0.53194  0.02257  0.03437  Biso   1.000  Zn
  Zn2      1.0000 0.48421  0.38625  0.08520  Biso   1.000  Zn
  Zn3      1.0000 0.45438  0.51868  0.89354  Biso   1.000  Zn
  Zn4      1.0000 0.59111  0.14623  0.83562  Biso   1.000  Zn
  Zn5      1.0000 0.40005  0.00855  0.15009  Biso   1.000  Zn
  Zn6      1.0000 0.49597  0.88809  0.84443  Biso   1.000  Zn
  Zn7      1.0000 0.38527  0.64972  0.09104  Biso   1.000  Zn
  Zn8      1.0000 0.41299  0.49594  0.27892  Biso   1.000  Zn
  P1       1.0000 0.46870  0.84777  0.08804  Biso   1.000  P
  P2       1.0000 0.43591  0.50717  0.17335  Biso   1.000  P
  P3       1.0000 0.50738  0.34111  0.83935  Biso   1.000  P
  P4       1.0000 0.44476  0.52128  0.00386  Biso   1.000  P
  P5       1.0000 0.55263  0.00755  0.75653  Biso   1.000  P
  P6       1.0000 0.52870  0.02242  0.92619  Biso   1.000  P
  P7       1.0000 0.53970  0.67975  0.83673  Biso   1.000  P
  P8       1.0000 0.43479  0.18209  0.08813  Biso   1.000  P
  P9       1.0000 0.28351  0.47281  0.82866  Biso   1.000  P
  P10      1.0000 0.72290  0.98027  0.08246  Biso   1.000  P
  P11      1.0000 0.69180  0.44737  0.10321  Biso   1.000  P
  P12      1.0000 0.78596  0.04570  0.84320  Biso   1.000  P
  P13      1.0000 0.29242  0.93950  0.82563  Biso   1.000  P
  O1       1.0000 0.63730  0.03630  0.07555  Biso   1.000  O
  O2       1.0000 0.47650  0.90390  0.13382  Biso   1.000  O
  O3       1.0000 0.36880  0.50320  0.21461  Biso   1.000  O
  O4       1.0000 0.59100  0.27990  0.83958  Biso   1.000  O
  O5       1.0000 0.58410  0.03280  0.97155  Biso   1.000  O
  O6       1.0000 0.46460  0.90890  0.04433  Biso   1.000  O
  O7       1.0000 0.54000  0.10590  0.77539  Biso   1.000  O
  O8       1.0000 0.50280  0.40600  0.79617  Biso   1.000  O
  O9       1.0000 0.38840  0.78200  0.08846  Biso   1.000  O
  O10      1.0000 0.34160  0.53880  0.85698  Biso   1.000  O
  O11      1.0000 0.62260  0.00180  0.71775  Biso   1.000  O
  O12      1.0000 0.49790  0.39460  0.88502  Biso   1.000  O
  O13      1.0000 0.39870  0.52380  0.95618  Biso   1.000  O
  O14      1.0000 0.43920  0.13090  0.13476  Biso   1.000  O
  O15      1.0000 0.55440  0.93130  0.90205  Biso   1.000  O
  O16      1.0000 0.43630  0.59730  0.14780  Biso   1.000  O
  O17      1.0000 0.41650  0.43510  0.03070  Biso   1.000  O
  O18      1.0000 0.53030  0.62230  0.88137  Biso   1.000  O
  O19      1.0000 0.47380  0.76000  0.83547  Biso   1.000  O
  O20      1.0000 0.33980  0.23400  0.08472  Biso   1.000  O
  H1       1.0000 0.30000  0.18900  0.08600  Biso   1.000  H
  O21      1.0000 0.55620  0.78640  0.08536  Biso   1.000  O
  H2       1.0000 0.60700  0.82100  0.08900  Biso   1.000  H
  O22      1.0000 0.50570  0.25690  0.08486  Biso   1.000  O
  O23      1.0000 0.42580  0.01610  0.94297  Biso   1.000  O
  O24      1.0000 0.28050  0.37820  0.85199  Biso   1.000  O
  O25      1.0000 0.45840  0.97950  0.73419  Biso   1.000  O
  O26      1.0000 0.75330  0.36820  0.09160  Biso   1.000  O
  O27      1.0000 0.42370  0.27400  0.83359  Biso   1.000  O
  H3       1.0000 0.37100  0.30000  0.84200  Biso   1.000  H
  O28      1.0000 0.57670  0.94270  0.79703  Biso   1.000  O
  O29      1.0000 0.73830  0.53970  0.08690  Biso   1.000  O
  H4       1.0000 0.79500  0.53800  0.09700  Biso   1.000  H
  O30      1.0000 0.54960  0.51450  0.99278  Biso   1.000  O
  H5       1.0000 0.58800  0.49200  0.01470  Biso   1.000  H
  O31      1.0000 0.78160  0.02020  0.12103  Biso   1.000  O
  O32      1.0000 0.70450  0.87910  0.09190  Biso   1.000  O
  O33      1.0000 0.52890  0.62260  0.79144  Biso   1.000  O
  O34      1.0000 0.41700  0.42770  0.14002  Biso   1.000  O
  O35      1.0000 0.53780  0.10220  0.89351  Biso   1.000  O
  O36      1.0000 0.53120  0.49590  0.19779  Biso   1.000  O
  H6       1.0000 0.58300  0.48400  0.18200  Biso   1.000  H
  O37      1.0000 0.60400  0.44380  0.07446  Biso   1.000  O
  O38      1.0000 0.44010  0.11570  0.04644  Biso   1.000  O
  O39      1.0000 0.77750  0.98480  0.03342  Biso   1.000  O
  O40      1.0000 0.67400  0.45460  0.15607  Biso   1.000  O
  O41      1.0000 0.32970  0.46070  0.77743  Biso   1.000  O
  H7       1.0000 0.38940  0.45500  0.78000  Biso   1.000  H
  O42      1.0000 0.63710  0.72510  0.83794  Biso   1.000  O
  H8       1.0000 0.68600  0.68900  0.84400  Biso   1.000  H
  O43      1.0000 0.19080  0.51290  0.81995  Biso   1.000  O
  O44      1.0000 0.42920  0.60790  0.03154  Biso   1.000  O
  O45      1.0000 0.75050  0.95440  0.83080  Biso   1.000  O
  O46      1.0000 0.72130  0.12450  0.83430  Biso   1.000  O
  O47      1.0000 0.87450  0.06260  0.85950  Biso   1.000  O
  O48      1.0000 0.38120  0.94380  0.82240  Biso   1.000  O
  O49      1.0000 0.82120  0.07170  0.77610  Biso   1.000  O
  O50      1.0000 0.29420  0.95750  0.89850  Biso   1.000  O
  Zn9      1.0000 0.46806  0.97743  0.53437  Biso   1.000  Zn
  Zn10     1.0000 0.51579  0.61375  0.58520  Biso   1.000  Zn
  Zn11     1.0000 0.54562  0.48132  0.39354  Biso   1.000  Zn
  Zn12     1.0000 0.40889  0.85377  0.33562  Biso   1.000  Zn
  Zn13     1.0000 0.59995  0.99145  0.65009  Biso   1.000  Zn
  Zn14     1.0000 0.50403  0.11191  0.34443  Biso   1.000  Zn
  Zn15     1.0000 0.61473  0.35028  0.59104  Biso   1.000  Zn
  Zn16     1.0000 0.58701  0.50406  0.77892  Biso   1.000  Zn
  P14      1.0000 0.53130  0.15223  0.58804  Biso   1.000  P
  P15      1.0000 0.56409  0.49283  0.67335  Biso   1.000  P
  P16      1.0000 0.49262  0.65889  0.33935  Biso   1.000  P
  P17      1.0000 0.55524  0.47872  0.50386  Biso   1.000  P
  P18      1.0000 0.44737  0.99245  0.25653  Biso   1.000  P
  P19      1.0000 0.47130  0.97758  0.42619  Biso   1.000  P
  P20      1.0000 0.46030  0.32025  0.33673  Biso   1.000  P
  P21      1.0000 0.56521  0.81791  0.58813  Biso   1.000  P
  P22      1.0000 0.71649  0.52719  0.32866  Biso   1.000  P
  P23      1.0000 0.27710  0.01973  0.58246  Biso   1.000  P
  P24      1.0000 0.30820  0.55263  0.60321  Biso   1.000  P
  P25      1.0000 0.21404  0.95430  0.34320  Biso   1.000  P
  P26      1.0000 0.70758  0.06050  0.32563  Biso   1.000  P
  O51      1.0000 0.36270  0.96370  0.57555  Biso   1.000  O
  O52      1.0000 0.52350  0.09610  0.63382  Biso   1.000  O
  O53      1.0000 0.63120  0.49680  0.71461  Biso   1.000  O
  O54      1.0000 0.40900  0.72010  0.33958  Biso   1.000  O
  O55      1.0000 0.41590  0.96720  0.47155  Biso   1.000  O
  O56      1.0000 0.53540  0.09110  0.54433  Biso   1.000  O
  O57      1.0000 0.46000  0.89410  0.27539  Biso   1.000  O
  O58      1.0000 0.49720  0.59400  0.29617  Biso   1.000  O
  O59      1.0000 0.61160  0.21800  0.58846  Biso   1.000  O
  O60      1.0000 0.65840  0.46120  0.35698  Biso   1.000  O
  O61      1.0000 0.37740  0.99820  0.21775  Biso   1.000  O
  O62      1.0000 0.50210  0.60540  0.38502  Biso   1.000  O
  O63      1.0000 0.60130  0.47620  0.45618  Biso   1.000  O
  O64      1.0000 0.56080  0.86910  0.63476  Biso   1.000  O
  O65      1.0000 0.44560  0.06870  0.40205  Biso   1.000  O
  O66      1.0000 0.56370  0.40270  0.64780  Biso   1.000  O
  O67      1.0000 0.58350  0.56490  0.53070  Biso   1.000  O
  O68      1.0000 0.46970  0.37770  0.38137  Biso   1.000  O
  O69      1.0000 0.52620  0.24000  0.33547  Biso   1.000  O
  O70      1.0000 0.66020  0.76600  0.58472  Biso   1.000  O
  H9       1.0000 0.70000  0.81100  0.58600  Biso   1.000  H
  O71      1.0000 0.44380  0.21360  0.58536  Biso   1.000  O
  H10      1.0000 0.39300  0.17900  0.58900  Biso   1.000  H
  O72      1.0000 0.49430  0.74310  0.58486  Biso   1.000  O
  O73      1.0000 0.57420  0.98390  0.44297  Biso   1.000  O
  O74      1.0000 0.71950  0.62180  0.35199  Biso   1.000  O
  O75      1.0000 0.54160  0.02050  0.23419  Biso   1.000  O
  O76      1.0000 0.24670  0.63180  0.59160  Biso   1.000  O
  O77      1.0000 0.57630  0.72600  0.33359  Biso   1.000  O
  H11      1.0000 0.62900  0.70000  0.34200  Biso   1.000  H
  O78      1.0000 0.42330  0.05730  0.29703  Biso   1.000  O
  O79      1.0000 0.26170  0.46030  0.58690  Biso   1.000  O
  H12      1.0000 0.20500  0.46200  0.59700  Biso   1.000  H
  O80      1.0000 0.45040  0.48550  0.49278  Biso   1.000  O
  H13      1.0000 0.41200  0.50800  0.51470  Biso   1.000  H
  O81      1.0000 0.21840  0.97980  0.62103  Biso   1.000  O
  O82      1.0000 0.29550  0.12090  0.59190  Biso   1.000  O
  O83      1.0000 0.47110  0.37740  0.29144  Biso   1.000  O
  O84      1.0000 0.58300  0.57230  0.64002  Biso   1.000  O
  O85      1.0000 0.46220  0.89780  0.39351  Biso   1.000  O
  O86      1.0000 0.46880  0.50410  0.69779  Biso   1.000  O
  H14      1.0000 0.41700  0.51600  0.68200  Biso   1.000  H
  O87      1.0000 0.39600  0.55620  0.57446  Biso   1.000  O
  O88      1.0000 0.55990  0.88430  0.54644  Biso   1.000  O
  O89      1.0000 0.22250  0.01520  0.53342  Biso   1.000  O
  O90      1.0000 0.32600  0.54540  0.65607  Biso   1.000  O
  O91      1.0000 0.67030  0.53930  0.27743  Biso   1.000  O
  H15      1.0000 0.61060  0.54500  0.28000  Biso   1.000  H
  O92      1.0000 0.36290  0.27490  0.33794  Biso   1.000  O
  H16      1.0000 0.31400  0.31100  0.34400  Biso   1.000  H
  O93      1.0000 0.80920  0.48710  0.31995  Biso   1.000  O
  O94      1.0000 0.57080  0.39210  0.53154  Biso   1.000  O
  O95      1.0000 0.24950  0.04560  0.33080  Biso   1.000  O
  O96      1.0000 0.27870  0.87550  0.33430  Biso   1.000  O
  O97      1.0000 0.12550  0.93740  0.35950  Biso   1.000  O
  O98      1.0000 0.61880  0.05620  0.32240  Biso   1.000  O
  O99      1.0000 0.17880  0.92830  0.27610  Biso   1.000  O
  O100     1.0000 0.70580  0.04250  0.39850  Biso   1.000  O
  Zn17     1.0000 0.03194  0.97743  0.03437  Biso   1.000  Zn
  Zn18     1.0000 0.98421  0.61375  0.08520  Biso   1.000  Zn
  Zn19     1.0000 0.95438  0.48132  0.89354  Biso   1.000  Zn
  Zn20     1.0000 0.09111  0.85377  0.83562  Biso   1.000  Zn
  Zn21     1.0000 0.90005  0.99145  0.15009  Biso   1.000  Zn
  Zn22     1.0000 0.99597  0.11191  0.84443  Biso   1.000  Zn
  Zn23     1.0000 0.88527  0.35028  0.09104  Biso   1.000  Zn
  Zn24     1.0000 0.91299  0.50406  0.27892  Biso   1.000  Zn
  P27      1.0000 0.96870  0.15223  0.08804  Biso   1.000  P
  P28      1.0000 0.93591  0.49283  0.17335  Biso   1.000  P
  P29      1.0000 0.00738  0.65889  0.83935  Biso   1.000  P
  P30      1.0000 0.94476  0.47872  0.00386  Biso   1.000  P
  P31      1.0000 0.05263  0.99245  0.75653  Biso   1.000  P
  P32      1.0000 0.02870  0.97758  0.92619  Biso   1.000  P
  P33      1.0000 0.03970  0.32025  0.83673  Biso   1.000  P
  P34      1.0000 0.93479  0.81791  0.08813  Biso   1.000  P
  P35      1.0000 0.78351  0.52719  0.82866  Biso   1.000  P
  P36      1.0000 0.22290  0.01973  0.08246  Biso   1.000  P
  P37      1.0000 0.19180  0.55263  0.10321  Biso   1.000  P
  P38      1.0000 0.28596  0.95430  0.84320  Biso   1.000  P
  P39      1.0000 0.79242  0.06050  0.82563  Biso   1.000  P
  O101     1.0000 0.13730  0.96370  0.07555  Biso   1.000  O
  O102     1.0000 0.97650  0.09610  0.13382  Biso   1.000  O
  O103     1.0000 0.86880  0.49680  0.21461  Biso   1.000  O
  O104     1.0000 0.09100  0.72010  0.83958  Biso   1.000  O
  O105     1.0000 0.08410  0.96720  0.97155  Biso   1.000  O
  O106     1.0000 0.96460  0.09110  0.04433  Biso   1.000  O
  O107     1.0000 0.04000  0.89410  0.77539  Biso   1.000  O
  O108     1.0000 0.00280  0.59400  0.79617  Biso   1.000  O
  O109     1.0000 0.88840  0.21800  0.08846  Biso   1.000  O
  O110     1.0000 0.84160  0.46120  0.85698  Biso   1.000  O
  O111     1.0000 0.12260  0.99820  0.71775  Biso   1.000  O
  O112     1.0000 0.99790  0.60540  0.88502  Biso   1.000  O
  O113     1.0000 0.89870  0.47620  0.95618  Biso   1.000  O
  O114     1.0000 0.93920  0.86910  0.13476  Biso   1.000  O
  O115     1.0000 0.05440  0.06870  0.90205  Biso   1.000  O
  O116     1.0000 0.93630  0.40270  0.14780  Biso   1.000  O
  O117     1.0000 0.91650  0.56490  0.03070  Biso   1.000  O
  O118     1.0000 0.03030  0.37770  0.88137  Biso   1.000  O
  O119     1.0000 0.97380  0.24000  0.83547  Biso   1.000  O
  O120     1.0000 0.83980  0.76600  0.08472  Biso   1.000  O
  H17      1.0000 0.80000  0.81100  0.08600  Biso   1.000  H
  O121     1.0000 0.05620  0.21360  0.08536  Biso   1.000  O
  H18      1.0000 0.10700  0.17900  0.08900  Biso   1.000  H
  O122     1.0000 0.00570  0.74310  0.08486  Biso   1.000  O
  O123     1.0000 0.92580  0.98390  0.94297  Biso   1.000  O
  O124     1.0000 0.78050  0.62180  0.85199  Biso   1.000  O
  O125     1.0000 0.95840  0.02050  0.73419  Biso   1.000  O
  O126     1.0000 0.25330  0.63180  0.09160  Biso   1.000  O
  O127     1.0000 0.92370  0.72600  0.83359  Biso   1.000  O
  H19      1.0000 0.87100  0.70000  0.84200  Biso   1.000  H
  O128     1.0000 0.07670  0.05730  0.79703  Biso   1.000  O
  O129     1.0000 0.23830  0.46030  0.08690  Biso   1.000  O
  H20      1.0000 0.29500  0.46200  0.09700  Biso   1.000  H
  O130     1.0000 0.04960  0.48550  0.99278  Biso   1.000  O
  H21      1.0000 0.08800  0.50800  0.01470  Biso   1.000  H
  O131     1.0000 0.28160  0.97980  0.12103  Biso   1.000  O
  O132     1.0000 0.20450  0.12090  0.09190  Biso   1.000  O
  O133     1.0000 0.02890  0.37740  0.79144  Biso   1.000  O
  O134     1.0000 0.91700  0.57230  0.14002  Biso   1.000  O
  O135     1.0000 0.03780  0.89780  0.89351  Biso   1.000  O
  O136     1.0000 0.03120  0.50410  0.19779  Biso   1.000  O
  H22      1.0000 0.08300  0.51600  0.18200  Biso   1.000  H
  O137     1.0000 0.10400  0.55620  0.07446  Biso   1.000  O
  O138     1.0000 0.94010  0.88430  0.04644  Biso   1.000  O
  O139     1.0000 0.27750  0.01520  0.03342  Biso   1.000  O
  O140     1.0000 0.17400  0.54540  0.15607  Biso   1.000  O
  O141     1.0000 0.82970  0.53930  0.77743  Biso   1.000  O
  H23      1.0000 0.88940  0.54500  0.78000  Biso   1.000  H
  O142     1.0000 0.13710  0.27490  0.83794  Biso   1.000  O
  H24      1.0000 0.18600  0.31100  0.84400  Biso   1.000  H
  O143     1.0000 0.69080  0.48710  0.81995  Biso   1.000  O
  O144     1.0000 0.92920  0.39210  0.03154  Biso   1.000  O
  O145     1.0000 0.25050  0.04560  0.83080  Biso   1.000  O
  O146     1.0000 0.22130  0.87550  0.83430  Biso   1.000  O
  O147     1.0000 0.37450  0.93740  0.85950  Biso   1.000  O
  O148     1.0000 0.88120  0.05620  0.82240  Biso   1.000  O
  O149     1.0000 0.32120  0.92830  0.77610  Biso   1.000  O
  O150     1.0000 0.79420  0.04250  0.89850  Biso   1.000  O
  Zn25     1.0000 0.96806  0.02257  0.53437  Biso   1.000  Zn
  Zn26     1.0000 0.01579  0.38625  0.58520  Biso   1.000  Zn
  Zn27     1.0000 0.04562  0.51868  0.39354  Biso   1.000  Zn
  Zn28     1.0000 0.90889  0.14623  0.33562  Biso   1.000  Zn
  Zn29     1.0000 0.09995  0.00855  0.65009  Biso   1.000  Zn
  Zn30     1.0000 0.00403  0.88809  0.34443  Biso   1.000  Zn
  Zn31     1.0000 0.11473  0.64972  0.59104  Biso   1.000  Zn
  Zn32     1.0000 0.08701  0.49594  0.77892  Biso   1.000  Zn
  P40      1.0000 0.03130  0.84777  0.58804  Biso   1.000  P
  P41      1.0000 0.06409  0.50717  0.67335  Biso   1.000  P
  P42      1.0000 0.99262  0.34111  0.33935  Biso   1.000  P
  P43      1.0000 0.05524  0.52128  0.50386  Biso   1.000  P
  P44      1.0000 0.94737  0.00755  0.25653  Biso   1.000  P
  P45      1.0000 0.97130  0.02242  0.42619  Biso   1.000  P
  P46      1.0000 0.96030  0.67975  0.33673  Biso   1.000  P
  P47      1.0000 0.06521  0.18209  0.58813  Biso   1.000  P
  P48      1.0000 0.21649  0.47281  0.32866  Biso   1.000  P
  P49      1.0000 0.77710  0.98027  0.58246  Biso   1.000  P
  P50      1.0000 0.80820  0.44737  0.60321  Biso   1.000  P
  P51      1.0000 0.71404  0.04570  0.34320  Biso   1.000  P
  P52      1.0000 0.20758  0.93950  0.32563  Biso   1.000  P
  O151     1.0000 0.86270  0.03630  0.57555  Biso   1.000  O
  O152     1.0000 0.02350  0.90390  0.63382  Biso   1.000  O
  O153     1.0000 0.13120  0.50320  0.71461  Biso   1.000  O
  O154     1.0000 0.90900  0.27990  0.33958  Biso   1.000  O
  O155     1.0000 0.91590  0.03280  0.47155  Biso   1.000  O
  O156     1.0000 0.03540  0.90890  0.54433  Biso   1.000  O
  O157     1.0000 0.96000  0.10590  0.27539  Biso   1.000  O
  O158     1.0000 0.99720  0.40600  0.29617  Biso   1.000  O
  O159     1.0000 0.11160  0.78200  0.58846  Biso   1.000  O
  O160     1.0000 0.15840  0.53880  0.35698  Biso   1.000  O
  O161     1.0000 0.87740  0.00180  0.21775  Biso   1.000  O
  O162     1.0000 0.00210  0.39460  0.38502  Biso   1.000  O
  O163     1.0000 0.10130  0.52380  0.45618  Biso   1.000  O
  O164     1.0000 0.06080  0.13090  0.63476  Biso   1.000  O
  O165     1.0000 0.94560  0.93130  0.40205  Biso   1.000  O
  O166     1.0000 0.06370  0.59730  0.64780  Biso   1.000  O
  O167     1.0000 0.08350  0.43510  0.53070  Biso   1.000  O
  O168     1.0000 0.96970  0.62230  0.38137  Biso   1.000  O
  O169     1.0000 0.02620  0.76000  0.33547  Biso   1.000  O
  O170     1.0000 0.16020  0.23400  0.58472  Biso   1.000  O
  H25      1.0000 0.20000  0.18900  0.58600  Biso   1.000  H
  O171     1.0000 0.94380  0.78640  0.58536  Biso   1.000  O
  H26      1.0000 0.89300  0.82100  0.58900  Biso   1.000  H
  O172     1.0000 0.99430  0.25690  0.58486  Biso   1.000  O
  O173     1.0000 0.07420  0.01610  0.44297  Biso   1.000  O
  O174     1.0000 0.21950  0.37820  0.35199  Biso   1.000  O
  O175     1.0000 0.04160  0.97950  0.23419  Biso   1.000  O
  O176     1.0000 0.74670  0.36820  0.59160  Biso   1.000  O
  O177     1.0000 0.07630  0.27400  0.33359  Biso   1.000  O
  H27      1.0000 0.12900  0.30000  0.34200  Biso   1.000  H
  O178     1.0000 0.92330  0.94270  0.29703  Biso   1.000  O
  O179     1.0000 0.76170  0.53970  0.58690  Biso   1.000  O
  H28      1.0000 0.70500  0.53800  0.59700  Biso   1.000  H
  O180     1.0000 0.95040  0.51450  0.49278  Biso   1.000  O
  H29      1.0000 0.91200  0.49200  0.51470  Biso   1.000  H
  O181     1.0000 0.71840  0.02020  0.62103  Biso   1.000  O
  O182     1.0000 0.79550  0.87910  0.59190  Biso   1.000  O
  O183     1.0000 0.97110  0.62260  0.29144  Biso   1.000  O
  O184     1.0000 0.08300  0.42770  0.64002  Biso   1.000  O
  O185     1.0000 0.96220  0.10220  0.39351  Biso   1.000  O
  O186     1.0000 0.96880  0.49590  0.69779  Biso   1.000  O
  H30      1.0000 0.91700  0.48400  0.68200  Biso   1.000  H
  O187     1.0000 0.89600  0.44380  0.57446  Biso   1.000  O
  O188     1.0000 0.05990  0.11570  0.54644  Biso   1.000  O
  O189     1.0000 0.72250  0.98480  0.53342  Biso   1.000  O
  O190     1.0000 0.82600  0.45460  0.65607  Biso   1.000  O
  O191     1.0000 0.17030  0.46070  0.27743  Biso   1.000  O
  H31      1.0000 0.11060  0.45500  0.28000  Biso   1.000  H
  O192     1.0000 0.86290  0.72510  0.33794  Biso   1.000  O
  H32      1.0000 0.81400  0.68900  0.34400  Biso   1.000  H
  O193     1.0000 0.30920  0.51290  0.31995  Biso   1.000  O
  O194     1.0000 0.07080  0.60790  0.53154  Biso   1.000  O
  O195     1.0000 0.74950  0.95440  0.33080  Biso   1.000  O
  O196     1.0000 0.77870  0.12450  0.33430  Biso   1.000  O
  O197     1.0000 0.62550  0.06260  0.35950  Biso   1.000  O
  O198     1.0000 0.11880  0.94380  0.32240  Biso   1.000  O
  O199     1.0000 0.67880  0.07170  0.27610  Biso   1.000  O
  O200     1.0000 0.20580  0.95750  0.39850  Biso   1.000  O
