data_image0
_cell_length_a       9.7441
_cell_length_b       12.3318
_cell_length_c       15.7737
_cell_angle_alpha    88.979
_cell_angle_beta     77.399
_cell_angle_gamma    69.498

_symmetry_space_group_name_H-M    "P 1"
_symmetry_int_tables_number       1

loop_
  _symmetry_equiv_pos_as_xyz
  'x, y, z'

loop_
  _atom_site_label
  _atom_site_occupancy
  _atom_site_fract_x
  _atom_site_fract_y
  _atom_site_fract_z
  _atom_site_thermal_displace_type
  _atom_site_B_iso_or_equiv
  _atom_site_type_symbol
  Ce1      1.0000 0.79883  0.47203  0.01559  Biso   1.000  Ce
  O1       1.0000 0.65670  0.36570  0.10780  Biso   1.000  O
  O2       1.0000 0.51480  0.26200  0.09370  Biso   1.000  O
  H1       1.0000 0.49290  0.30750  0.05440  Biso   1.000  H
  O3       1.0000 0.75410  0.55210  0.16610  Biso   1.000  O
  O4       1.0000 0.95350  0.58460  0.09140  Biso   1.000  O
  O5       1.0000 0.01610  0.67670  0.92260  Biso   1.000  O
  O6       1.0000 0.80630  0.63490  0.93360  Biso   1.000  O
  O7       1.0000 0.69530  0.40360  0.90820  Biso   1.000  O
  O8       1.0000 0.46890  0.38730  0.95580  Biso   1.000  O
  C1       1.0000 0.72840  0.04420  0.43790  Biso   1.000  C
  C2       1.0000 0.76940  0.92410  0.44260  Biso   1.000  C
  C3       1.0000 0.79170  0.87570  0.52190  Biso   1.000  C
  H2       1.0000 0.82220  0.79380  0.52450  Biso   1.000  H
  C4       1.0000 0.77110  0.94300  0.59750  Biso   1.000  C
  C5       1.0000 0.72590  0.06340  0.59350  Biso   1.000  C
  C6       1.0000 0.70770  0.11130  0.51320  Biso   1.000  C
  H3       1.0000 0.68010  0.19290  0.51020  Biso   1.000  H
  C7       1.0000 0.69890  0.10580  0.35740  Biso   1.000  C
  C8       1.0000 0.62090  0.07290  0.30440  Biso   1.000  C
  H4       1.0000 0.58790  0.00950  0.31870  Biso   1.000  H
  C9       1.0000 0.59130  0.13160  0.23130  Biso   1.000  C
  H5       1.0000 0.53730  0.10880  0.19610  Biso   1.000  H
  C10      1.0000 0.63960  0.22340  0.20890  Biso   1.000  C
  C11      1.0000 0.71800  0.25730  0.26110  Biso   1.000  C
  H6       1.0000 0.75080  0.32070  0.24660  Biso   1.000  H
  C12      1.0000 0.74770  0.19760  0.33440  Biso   1.000  C
  H7       1.0000 0.80230  0.22010  0.36940  Biso   1.000  H
  C13      1.0000 0.60420  0.29060  0.13250  Biso   1.000  C
  C14      1.0000 0.79340  0.84100  0.36840  Biso   1.000  C
  C15      1.0000 0.90160  0.83000  0.29200  Biso   1.000  C
  H8       1.0000 0.96020  0.87840  0.28510  Biso   1.000  H
  C16      1.0000 0.92450  0.74810  0.22570  Biso   1.000  C
  H9       1.0000 0.00210  0.73860  0.17500  Biso   1.000  H
  C17      1.0000 0.83590  0.68060  0.23270  Biso   1.000  C
  C18      1.0000 0.72660  0.69220  0.30890  Biso   1.000  C
  H10      1.0000 0.66420  0.64690  0.31430  Biso   1.000  H
  C19      1.0000 0.70820  0.76910  0.37670  Biso   1.000  C
  H11      1.0000 0.63700  0.77320  0.42950  Biso   1.000  H
  C20      1.0000 0.84940  0.60040  0.15980  Biso   1.000  C
  C21      1.0000 0.80240  0.87890  0.67660  Biso   1.000  C
  C22      1.0000 0.75810  0.78390  0.69600  Biso   1.000  C
  H12      1.0000 0.70750  0.76090  0.65860  Biso   1.000  H
  C23      1.0000 0.78580  0.72230  0.76800  Biso   1.000  C
  H13      1.0000 0.75110  0.65960  0.78100  Biso   1.000  H
  C24      1.0000 0.86510  0.75230  0.82190  Biso   1.000  C
  C25      1.0000 0.91400  0.84450  0.80200  Biso   1.000  C
  H14      1.0000 0.97030  0.86430  0.83720  Biso   1.000  H
  C26      1.0000 0.88130  0.90810  0.73090  Biso   1.000  C
  H15      1.0000 0.91310  0.97250  0.71910  Biso   1.000  H
  C27      1.0000 0.89920  0.68290  0.89930  Biso   1.000  C
  C28      1.0000 0.68750  0.14460  0.67120  Biso   1.000  C
  C29      1.0000 0.58750  0.13790  0.74720  Biso   1.000  C
  H16      1.0000 0.54360  0.07980  0.75030  Biso   1.000  H
  C30      1.0000 0.55130  0.21500  0.81820  Biso   1.000  C
  H17      1.0000 0.47910  0.21180  0.86870  Biso   1.000  H
  C31      1.0000 0.61920  0.29650  0.81640  Biso   1.000  C
  C32      1.0000 0.71690  0.30540  0.74250  Biso   1.000  C
  H18      1.0000 0.76320  0.36190  0.74100  Biso   1.000  H
  C33      1.0000 0.74900  0.23140  0.66870  Biso   1.000  C
  H19      1.0000 0.81330  0.24040  0.61650  Biso   1.000  H
  C34      1.0000 0.59290  0.36890  0.89840  Biso   1.000  C
  Ce2      1.0000 0.20117  0.52797  0.98441  Biso   1.000  Ce
  O9       1.0000 0.34330  0.63430  0.89220  Biso   1.000  O
  O10      1.0000 0.48520  0.73800  0.90630  Biso   1.000  O
  H20      1.0000 0.50710  0.69250  0.94560  Biso   1.000  H
  O11      1.0000 0.24590  0.44790  0.83390  Biso   1.000  O
  O12      1.0000 0.04650  0.41540  0.90860  Biso   1.000  O
  O13      1.0000 0.98390  0.32330  0.07740  Biso   1.000  O
  O14      1.0000 0.19370  0.36510  0.06640  Biso   1.000  O
  O15      1.0000 0.30470  0.59640  0.09180  Biso   1.000  O
  O16      1.0000 0.53110  0.61270  0.04420  Biso   1.000  O
  C35      1.0000 0.27160  0.95580  0.56210  Biso   1.000  C
  C36      1.0000 0.23060  0.07590  0.55740  Biso   1.000  C
  C37      1.0000 0.20830  0.12430  0.47810  Biso   1.000  C
  H21      1.0000 0.17780  0.20620  0.47550  Biso   1.000  H
  C38      1.0000 0.22890  0.05700  0.40250  Biso   1.000  C
  C39      1.0000 0.27410  0.93660  0.40650  Biso   1.000  C
  C40      1.0000 0.29230  0.88870  0.48680  Biso   1.000  C
  H22      1.0000 0.31990  0.80710  0.48980  Biso   1.000  H
  C41      1.0000 0.30110  0.89420  0.64260  Biso   1.000  C
  C42      1.0000 0.37910  0.92710  0.69560  Biso   1.000  C
  H23      1.0000 0.41210  0.99050  0.68130  Biso   1.000  H
  C43      1.0000 0.40870  0.86840  0.76870  Biso   1.000  C
  H24      1.0000 0.46270  0.89120  0.80390  Biso   1.000  H
  C44      1.0000 0.36040  0.77660  0.79110  Biso   1.000  C
  C45      1.0000 0.28200  0.74270  0.73890  Biso   1.000  C
  H25      1.0000 0.24920  0.67930  0.75340  Biso   1.000  H
  C46      1.0000 0.25230  0.80240  0.66560  Biso   1.000  C
  H26      1.0000 0.19770  0.77990  0.63060  Biso   1.000  H
  C47      1.0000 0.39580  0.70940  0.86750  Biso   1.000  C
  C48      1.0000 0.20660  0.15900  0.63160  Biso   1.000  C
  C49      1.0000 0.09840  0.17000  0.70800  Biso   1.000  C
  H27      1.0000 0.03980  0.12160  0.71490  Biso   1.000  H
  C50      1.0000 0.07550  0.25190  0.77430  Biso   1.000  C
  H28      1.0000 0.99790  0.26140  0.82500  Biso   1.000  H
  C51      1.0000 0.16410  0.31940  0.76730  Biso   1.000  C
  C52      1.0000 0.27340  0.30780  0.69110  Biso   1.000  C
  H29      1.0000 0.33580  0.35310  0.68570  Biso   1.000  H
  C53      1.0000 0.29180  0.23090  0.62330  Biso   1.000  C
  H30      1.0000 0.36300  0.22680  0.57050  Biso   1.000  H
  C54      1.0000 0.15060  0.39960  0.84020  Biso   1.000  C
  C55      1.0000 0.19760  0.12110  0.32340  Biso   1.000  C
  C56      1.0000 0.24190  0.21610  0.30400  Biso   1.000  C
  H31      1.0000 0.29250  0.23910  0.34140  Biso   1.000  H
  C57      1.0000 0.21420  0.27770  0.23200  Biso   1.000  C
  H32      1.0000 0.24890  0.34040  0.21900  Biso   1.000  H
  C58      1.0000 0.13490  0.24770  0.17810  Biso   1.000  C
  C59      1.0000 0.08600  0.15550  0.19800  Biso   1.000  C
  H33      1.0000 0.02970  0.13570  0.16280  Biso   1.000  H
  C60      1.0000 0.11870  0.09190  0.26910  Biso   1.000  C
  H34      1.0000 0.08690  0.02750  0.28090  Biso   1.000  H
  C61      1.0000 0.10080  0.31710  0.10070  Biso   1.000  C
  C62      1.0000 0.31250  0.85540  0.32880  Biso   1.000  C
  C63      1.0000 0.41250  0.86210  0.25280  Biso   1.000  C
  H35      1.0000 0.45640  0.92020  0.24970  Biso   1.000  H
  C64      1.0000 0.44870  0.78500  0.18180  Biso   1.000  C
  H36      1.0000 0.52090  0.78820  0.13130  Biso   1.000  H
  C65      1.0000 0.38080  0.70350  0.18360  Biso   1.000  C
  C66      1.0000 0.28310  0.69460  0.25750  Biso   1.000  C
  H37      1.0000 0.23680  0.63810  0.25900  Biso   1.000  H
  C67      1.0000 0.25100  0.76860  0.33130  Biso   1.000  C
  H38      1.0000 0.18670  0.75960  0.38350  Biso   1.000  H
  C68      1.0000 0.40710  0.63110  0.10160  Biso   1.000  C
  C69      1.0000 0.70300  0.49900  0.54400  Biso   1.000  C
  C70      1.0000 0.74000  0.46200  0.45650  Biso   1.000  C
  H39      1.0000 0.66860  0.44640  0.43100  Biso   1.000  H
  C71      1.0000 0.88300  0.44700  0.40630  Biso   1.000  C
  H40      1.0000 0.90820  0.42150  0.34650  Biso   1.000  H
  C72      1.0000 0.98800  0.46900  0.44360  Biso   1.000  C
  H41      1.0000 0.08480  0.45910  0.40940  Biso   1.000  H
  C73      1.0000 0.95000  0.50600  0.53110  Biso   1.000  C
  C74      1.0000 0.80800  0.52100  0.58130  Biso   1.000  C
  H42      1.0000 0.78220  0.54640  0.64110  Biso   1.000  H
  C75      1.0000 0.53800  0.51600  0.59600  Biso   1.000  C
  H43      1.0000 0.46530  0.57520  0.57050  Biso   1.000  H
  H44      1.0000 0.52640  0.54010  0.65720  Biso   1.000  H
  H45      1.0000 0.52100  0.44230  0.59400  Biso   1.000  H
  C76      1.0000 0.09300  0.52800  0.55200  Biso   1.000  C
  H46      1.0000 0.17790  0.45470  0.54530  Biso   1.000  H
  H47      1.0000 0.06720  0.56120  0.61220  Biso   1.000  H
  H48      1.0000 0.12050  0.58280  0.51200  Biso   1.000  H
  C77      1.0000 0.79700  0.48000  0.47290  Biso   1.000  C
  C78      1.0000 0.75600  0.50900  0.56180  Biso   1.000  C
  H49      1.0000 0.82770  0.51620  0.59150  Biso   1.000  H
  C79      1.0000 0.60900  0.52900  0.60740  Biso   1.000  C
  H50      1.0000 0.58100  0.54870  0.66820  Biso   1.000  H
  C80      1.0000 0.50400  0.51900  0.56400  Biso   1.000  C
  H51      1.0000 0.40390  0.53200  0.59510  Biso   1.000  H
  C81      1.0000 0.54500  0.49000  0.47500  Biso   1.000  C
  C82      1.0000 0.69200  0.47000  0.42940  Biso   1.000  C
  H52      1.0000 0.72020  0.45030  0.36860  Biso   1.000  H
  C83      1.0000 0.96300  0.46700  0.42500  Biso   1.000  C
  H53      1.0000 0.97740  0.54140  0.43090  Biso   1.000  H
  H54      1.0000 0.97940  0.44570  0.36300  Biso   1.000  H
  H55      1.0000 0.03480  0.40710  0.45080  Biso   1.000  H
  C84      1.0000 0.39800  0.48400  0.44700  Biso   1.000  C
  H56      1.0000 0.36980  0.42180  0.47710  Biso   1.000  H
  H57      1.0000 0.42070  0.46750  0.38420  Biso   1.000  H
  H58      1.0000 0.31540  0.55800  0.46380  Biso   1.000  H
  C85      1.0000 0.29700  0.50100  0.45600  Biso   1.000  C
  C86      1.0000 0.26000  0.53800  0.54350  Biso   1.000  C
  H59      1.0000 0.33140  0.55360  0.56900  Biso   1.000  H
  C87      1.0000 0.11700  0.55300  0.59370  Biso   1.000  C
  H60      1.0000 0.09180  0.57850  0.65350  Biso   1.000  H
  C88      1.0000 0.01200  0.53100  0.55640  Biso   1.000  C
  H61      1.0000 0.91520  0.54090  0.59060  Biso   1.000  H
  C89      1.0000 0.05000  0.49400  0.46890  Biso   1.000  C
  C90      1.0000 0.19200  0.47900  0.41870  Biso   1.000  C
  H62      1.0000 0.21780  0.45360  0.35890  Biso   1.000  H
  C91      1.0000 0.46200  0.48400  0.40400  Biso   1.000  C
  H63      1.0000 0.53470  0.42480  0.42950  Biso   1.000  H
  H64      1.0000 0.47360  0.45990  0.34280  Biso   1.000  H
  H65      1.0000 0.47900  0.55770  0.40600  Biso   1.000  H
  C92      1.0000 0.90700  0.47200  0.44800  Biso   1.000  C
  H66      1.0000 0.82210  0.54530  0.45470  Biso   1.000  H
  H67      1.0000 0.93280  0.43880  0.38780  Biso   1.000  H
  H68      1.0000 0.87950  0.41720  0.48800  Biso   1.000  H
  C93      1.0000 0.20300  0.52000  0.52710  Biso   1.000  C
  C94      1.0000 0.24400  0.49100  0.43820  Biso   1.000  C
  H69      1.0000 0.17230  0.48380  0.40850  Biso   1.000  H
  C95      1.0000 0.39100  0.47100  0.39260  Biso   1.000  C
  H70      1.0000 0.41900  0.45130  0.33180  Biso   1.000  H
  C96      1.0000 0.49600  0.48100  0.43600  Biso   1.000  C
  H71      1.0000 0.59610  0.46800  0.40490  Biso   1.000  H
  C97      1.0000 0.45500  0.51000  0.52500  Biso   1.000  C
  C98      1.0000 0.30800  0.53000  0.57060  Biso   1.000  C
  H72      1.0000 0.27980  0.54970  0.63140  Biso   1.000  H
  C99      1.0000 0.03700  0.53300  0.57500  Biso   1.000  C
  H73      1.0000 0.02260  0.45860  0.56910  Biso   1.000  H
  H74      1.0000 0.02060  0.55430  0.63700  Biso   1.000  H
  H75      1.0000 0.96520  0.59290  0.54920  Biso   1.000  H
  C100     1.0000 0.60200  0.51600  0.55300  Biso   1.000  C
  H76      1.0000 0.63020  0.57820  0.52290  Biso   1.000  H
  H77      1.0000 0.57930  0.53250  0.61580  Biso   1.000  H
  H78      1.0000 0.68460  0.44200  0.53620  Biso   1.000  H
