data_image0
_cell_length_a       10.5783
_cell_length_b       10.4271
_cell_length_c       16.921
_cell_angle_alpha    83.158
_cell_angle_beta     76.314
_cell_angle_gamma    70.023

_symmetry_space_group_name_H-M    "P 1"
_symmetry_int_tables_number       1

loop_
  _symmetry_equiv_pos_as_xyz
  'x, y, z'

loop_
  _atom_site_label
  _atom_site_occupancy
  _atom_site_fract_x
  _atom_site_fract_y
  _atom_site_fract_z
  _atom_site_thermal_displace_type
  _atom_site_B_iso_or_equiv
  _atom_site_type_symbol
  Ce1      1.0000 0.37416  0.89457  0.98179  Biso   1.000  Ce
  O1       1.0000 0.16630  0.95590  0.75827  Biso   1.000  O
  H1       1.0000 0.12800  0.99600  0.78500  Biso   1.000  H
  O2       1.0000 0.30760  0.91150  0.84407  Biso   1.000  O
  O3       1.0000 0.77930  0.22060  0.92440  Biso   1.000  O
  O4       1.0000 0.99280  0.10140  0.86819  Biso   1.000  O
  O5       1.0000 0.40350  0.15590  0.11215  Biso   1.000  O
  O6       1.0000 0.29440  0.00560  0.11323  Biso   1.000  O
  O7       1.0000 0.58690  0.88940  0.06084  Biso   1.000  O
  O8       1.0000 0.53040  0.70650  0.05623  Biso   1.000  O
  C1       1.0000 0.68510  0.54660  0.53180  Biso   1.000  C
  C2       1.0000 0.78800  0.42200  0.54450  Biso   1.000  C
  C3       1.0000 0.87830  0.35590  0.47610  Biso   1.000  C
  H2       1.0000 0.94680  0.27440  0.48410  Biso   1.000  H
  C4       1.0000 0.87190  0.40500  0.39610  Biso   1.000  C
  C5       1.0000 0.76650  0.52730  0.38370  Biso   1.000  C
  C6       1.0000 0.67670  0.59420  0.45220  Biso   1.000  C
  H3       1.0000 0.60740  0.67510  0.44410  Biso   1.000  H
  C7       1.0000 0.58440  0.63290  0.59780  Biso   1.000  C
  C8       1.0000 0.62290  0.67030  0.66320  Biso   1.000  C
  H4       1.0000 0.71480  0.63750  0.66720  Biso   1.000  H
  C9       1.0000 0.52710  0.75460  0.72150  Biso   1.000  C
  H5       1.0000 0.55430  0.77700  0.76500  Biso   1.000  H
  C10      1.0000 0.38900  0.80640  0.71550  Biso   1.000  C
  C11      1.0000 0.34910  0.77250  0.65020  Biso   1.000  C
  H6       1.0000 0.25770  0.80820  0.64520  Biso   1.000  H
  C12      1.0000 0.44540  0.68590  0.59280  Biso   1.000  C
  H7       1.0000 0.41750  0.66220  0.55000  Biso   1.000  H
  C13      1.0000 0.28460  0.89640  0.77890  Biso   1.000  C
  C14      1.0000 0.80780  0.35910  0.62680  Biso   1.000  C
  C15      1.0000 0.69810  0.35000  0.68930  Biso   1.000  C
  H8       1.0000 0.60940  0.38050  0.67960  Biso   1.000  H
  C16      1.0000 0.71950  0.29600  0.76560  Biso   1.000  C
  H9       1.0000 0.64470  0.29440  0.80730  Biso   1.000  H
  C17      1.0000 0.85210  0.24390  0.78060  Biso   1.000  C
  C18      1.0000 0.96200  0.25010  0.71800  Biso   1.000  C
  H10      1.0000 0.05120  0.21510  0.72690  Biso   1.000  H
  C19      1.0000 0.93940  0.30810  0.64260  Biso   1.000  C
  H11      1.0000 0.01390  0.31300  0.60160  Biso   1.000  H
  C20      1.0000 0.87610  0.18400  0.86320  Biso   1.000  C
  C21      1.0000 0.98030  0.32850  0.32844  Biso   1.000  C
  C22      1.0000 0.01880  0.18610  0.32710  Biso   1.000  C
  H12      1.0000 0.97520  0.13860  0.36830  Biso   1.000  H
  C23      1.0000 0.12060  0.11550  0.26530  Biso   1.000  C
  H13      1.0000 0.14140  0.02160  0.26340  Biso   1.000  H
  C24      1.0000 0.19250  0.18400  0.20570  Biso   1.000  C
  C25      1.0000 0.15750  0.32460  0.20770  Biso   1.000  C
  H14      1.0000 0.20580  0.37100  0.16870  Biso   1.000  H
  C26      1.0000 0.05090  0.39650  0.26760  Biso   1.000  C
  H15      1.0000 0.02620  0.49120  0.26720  Biso   1.000  H
  C27      1.0000 0.30590  0.10870  0.13871  Biso   1.000  C
  C28      1.0000 0.73580  0.58700  0.30260  Biso   1.000  C
  C29      1.0000 0.73450  0.50630  0.24250  Biso   1.000  C
  H16      1.0000 0.76540  0.41170  0.24970  Biso   1.000  H
  C30      1.0000 0.68820  0.56490  0.17300  Biso   1.000  C
  H17      1.0000 0.68430  0.50960  0.13500  Biso   1.000  H
  C31      1.0000 0.64670  0.70710  0.15890  Biso   1.000  C
  C32      1.0000 0.65320  0.78790  0.21740  Biso   1.000  C
  H18      1.0000 0.62890  0.88210  0.20840  Biso   1.000  H
  C33      1.0000 0.69530  0.72880  0.28820  Biso   1.000  C
  H19      1.0000 0.69670  0.78400  0.32700  Biso   1.000  H
  C34      1.0000 0.58600  0.77070  0.08710  Biso   1.000  C
  O9       1.0000 0.13230  0.06730  0.98932  Biso   1.000  O
  H20      1.0000 0.12000  0.15000  0.96900  Biso   1.000  H
  H21      1.0000 0.06600  0.06600  0.03100  Biso   1.000  H
  O10      1.0000 0.13000  0.35310  0.01520  Biso   1.000  O
  H22      1.0000 0.09700  0.06600  0.94800  Biso   1.000  H
  C35      1.0000 0.03290  0.17090  0.04120  Biso   1.000  C
  H23      1.0000 0.04650  0.14820  0.09650  Biso   1.000  H
  H24      1.0000 0.94160  0.17020  0.04060  Biso   1.000  H
  C36      1.0000 0.03870  0.31070  0.01820  Biso   1.000  C
  H25      1.0000 0.12700  0.31390  0.02130  Biso   1.000  H
  H26      1.0000 0.96800  0.37420  0.05480  Biso   1.000  H
  H27      1.0000 0.02480  0.33460  0.96360  Biso   1.000  H
  H28      1.0000 0.14580  0.27040  0.01550  Biso   1.000  H
  C37      1.0000 0.02540  0.41380  0.98660  Biso   1.000  C
  H29      1.0000 0.94900  0.38150  0.01250  Biso   1.000  H
  H30      1.0000 0.04360  0.40600  0.92810  Biso   1.000  H
  C38      1.0000 0.00000  0.56200  0.01000  Biso   1.000  C
  H31      1.0000 0.98490  0.62340  0.96360  Biso   1.000  H
  H32      1.0000 0.07890  0.56540  0.02730  Biso   1.000  H
  H33      1.0000 0.92060  0.58850  0.05350  Biso   1.000  H
  Ce2      1.0000 0.62584  0.10543  0.01821  Biso   1.000  Ce
  O11      1.0000 0.83370  0.04410  0.24173  Biso   1.000  O
  H34      1.0000 0.87200  0.00400  0.21500  Biso   1.000  H
  O12      1.0000 0.69240  0.08850  0.15593  Biso   1.000  O
  O13      1.0000 0.22070  0.77940  0.07560  Biso   1.000  O
  O14      1.0000 0.00720  0.89860  0.13181  Biso   1.000  O
  O15      1.0000 0.59650  0.84410  0.88785  Biso   1.000  O
  O16      1.0000 0.70560  0.99440  0.88677  Biso   1.000  O
  O17      1.0000 0.41310  0.11060  0.93916  Biso   1.000  O
  O18      1.0000 0.46960  0.29350  0.94377  Biso   1.000  O
  C39      1.0000 0.31490  0.45340  0.46820  Biso   1.000  C
  C40      1.0000 0.21200  0.57800  0.45550  Biso   1.000  C
  C41      1.0000 0.12170  0.64410  0.52390  Biso   1.000  C
  H35      1.0000 0.05320  0.72560  0.51590  Biso   1.000  H
  C42      1.0000 0.12810  0.59500  0.60390  Biso   1.000  C
  C43      1.0000 0.23350  0.47270  0.61630  Biso   1.000  C
  C44      1.0000 0.32330  0.40580  0.54780  Biso   1.000  C
  H36      1.0000 0.39260  0.32490  0.55590  Biso   1.000  H
  C45      1.0000 0.41560  0.36710  0.40220  Biso   1.000  C
  C46      1.0000 0.37710  0.32970  0.33680  Biso   1.000  C
  H37      1.0000 0.28520  0.36250  0.33280  Biso   1.000  H
  C47      1.0000 0.47290  0.24540  0.27850  Biso   1.000  C
  H38      1.0000 0.44570  0.22300  0.23500  Biso   1.000  H
  C48      1.0000 0.61100  0.19360  0.28450  Biso   1.000  C
  C49      1.0000 0.65090  0.22750  0.34980  Biso   1.000  C
  H39      1.0000 0.74230  0.19180  0.35480  Biso   1.000  H
  C50      1.0000 0.55460  0.31410  0.40720  Biso   1.000  C
  H40      1.0000 0.58250  0.33780  0.45000  Biso   1.000  H
  C51      1.0000 0.71540  0.10360  0.22110  Biso   1.000  C
  C52      1.0000 0.19220  0.64090  0.37320  Biso   1.000  C
  C53      1.0000 0.30190  0.65000  0.31070  Biso   1.000  C
  H41      1.0000 0.39060  0.61950  0.32040  Biso   1.000  H
  C54      1.0000 0.28050  0.70400  0.23440  Biso   1.000  C
  H42      1.0000 0.35530  0.70560  0.19270  Biso   1.000  H
  C55      1.0000 0.14790  0.75610  0.21940  Biso   1.000  C
  C56      1.0000 0.03800  0.74990  0.28200  Biso   1.000  C
  H43      1.0000 0.94880  0.78490  0.27310  Biso   1.000  H
  C57      1.0000 0.06060  0.69190  0.35740  Biso   1.000  C
  H44      1.0000 0.98610  0.68700  0.39840  Biso   1.000  H
  C58      1.0000 0.12390  0.81600  0.13680  Biso   1.000  C
  C59      1.0000 0.01970  0.67150  0.67156  Biso   1.000  C
  C60      1.0000 0.98120  0.81390  0.67290  Biso   1.000  C
  H45      1.0000 0.02480  0.86140  0.63170  Biso   1.000  H
  C61      1.0000 0.87940  0.88450  0.73470  Biso   1.000  C
  H46      1.0000 0.85860  0.97840  0.73660  Biso   1.000  H
  C62      1.0000 0.80750  0.81600  0.79430  Biso   1.000  C
  C63      1.0000 0.84250  0.67540  0.79230  Biso   1.000  C
  H47      1.0000 0.79420  0.62900  0.83130  Biso   1.000  H
  C64      1.0000 0.94910  0.60350  0.73240  Biso   1.000  C
  H48      1.0000 0.97380  0.50880  0.73280  Biso   1.000  H
  C65      1.0000 0.69410  0.89130  0.86129  Biso   1.000  C
  C66      1.0000 0.26420  0.41300  0.69740  Biso   1.000  C
  C67      1.0000 0.26550  0.49370  0.75750  Biso   1.000  C
  H49      1.0000 0.23460  0.58830  0.75030  Biso   1.000  H
  C68      1.0000 0.31180  0.43510  0.82700  Biso   1.000  C
  H50      1.0000 0.31570  0.49040  0.86500  Biso   1.000  H
  C69      1.0000 0.35330  0.29290  0.84110  Biso   1.000  C
  C70      1.0000 0.34680  0.21210  0.78260  Biso   1.000  C
  H51      1.0000 0.37110  0.11790  0.79160  Biso   1.000  H
  C71      1.0000 0.30470  0.27120  0.71180  Biso   1.000  C
  H52      1.0000 0.30330  0.21600  0.67300  Biso   1.000  H
  C72      1.0000 0.41400  0.22930  0.91290  Biso   1.000  C
  O19      1.0000 0.86770  0.93270  0.01068  Biso   1.000  O
  H53      1.0000 0.88000  0.85000  0.03100  Biso   1.000  H
  H54      1.0000 0.93400  0.93400  0.96900  Biso   1.000  H
  O20      1.0000 0.87000  0.64690  0.98480  Biso   1.000  O
  H55      1.0000 0.90300  0.93400  0.05200  Biso   1.000  H
  C73      1.0000 0.96710  0.82910  0.95880  Biso   1.000  C
  H56      1.0000 0.95350  0.85180  0.90350  Biso   1.000  H
  H57      1.0000 0.05840  0.82980  0.95940  Biso   1.000  H
  C74      1.0000 0.96130  0.68930  0.98180  Biso   1.000  C
  H58      1.0000 0.87300  0.68610  0.97870  Biso   1.000  H
  H59      1.0000 0.03200  0.62580  0.94520  Biso   1.000  H
  H60      1.0000 0.97520  0.66540  0.03640  Biso   1.000  H
  H61      1.0000 0.85420  0.72960  0.98450  Biso   1.000  H
  C75      1.0000 0.97460  0.58620  0.01340  Biso   1.000  C
  H62      1.0000 0.05100  0.61850  0.98750  Biso   1.000  H
  H63      1.0000 0.95640  0.59400  0.07190  Biso   1.000  H
  C76      1.0000 0.00000  0.43800  0.99000  Biso   1.000  C
  H64      1.0000 0.01510  0.37660  0.03640  Biso   1.000  H
  H65      1.0000 0.92110  0.43460  0.97270  Biso   1.000  H
  H66      1.0000 0.07940  0.41150  0.94650  Biso   1.000  H
