data_image0
_cell_length_a       18.9522
_cell_length_b       15.9644
_cell_length_c       9.0028
_cell_angle_alpha    90
_cell_angle_beta     97.927
_cell_angle_gamma    90

_symmetry_space_group_name_H-M    "P 1"
_symmetry_int_tables_number       1

loop_
  _symmetry_equiv_pos_as_xyz
  'x, y, z'

loop_
  _atom_site_label
  _atom_site_occupancy
  _atom_site_fract_x
  _atom_site_fract_y
  _atom_site_fract_z
  _atom_site_thermal_displace_type
  _atom_site_B_iso_or_equiv
  _atom_site_type_symbol
  Ga1      1.0000 0.23686  0.38119  0.92241  Biso   1.000  Ga
  Ga2      1.0000 0.17235  0.13109  0.60289  Biso   1.000  Ga
  P1       1.0000 0.14485  0.22424  0.90789  Biso   1.000  P
  P2       1.0000 0.27649  0.52195  0.16057  Biso   1.000  P
  F1       1.0000 0.07292  0.12620  0.58980  Biso   1.000  F
  O1       1.0000 0.06510  0.21250  0.88230  Biso   1.000  O
  O2       1.0000 0.16040  0.31720  0.95080  Biso   1.000  O
  O3       1.0000 0.17560  0.16930  0.04350  Biso   1.000  O
  O4       1.0000 0.18340  0.20310  0.77520  Biso   1.000  O
  O5       1.0000 0.22660  0.46990  0.04660  Biso   1.000  O
  O6       1.0000 0.22710  0.58520  0.22630  Biso   1.000  O
  O7       1.0000 0.33220  0.56810  0.08330  Biso   1.000  O
  O8       1.0000 0.31570  0.47030  0.28660  Biso   1.000  O
  O9       1.0000 0.27610  0.15680  0.59580  Biso   1.000  O
  O10      1.0000 0.34200  0.26320  0.52530  Biso   1.000  O
  O11      1.0000 0.05010  0.03170  0.91750  Biso   1.000  O
  O12      1.0000 0.03200  0.00100  0.84600  Biso   1.000  O
  C1       1.0000 0.28440  0.22640  0.53510  Biso   1.000  C
  Ga3      1.0000 0.73686  0.88119  0.92241  Biso   1.000  Ga
  Ga4      1.0000 0.67235  0.63109  0.60289  Biso   1.000  Ga
  P3       1.0000 0.64485  0.72424  0.90789  Biso   1.000  P
  P4       1.0000 0.77649  0.02195  0.16057  Biso   1.000  P
  F2       1.0000 0.57292  0.62620  0.58980  Biso   1.000  F
  O13      1.0000 0.56510  0.71250  0.88230  Biso   1.000  O
  O14      1.0000 0.66040  0.81720  0.95080  Biso   1.000  O
  O15      1.0000 0.67560  0.66930  0.04350  Biso   1.000  O
  O16      1.0000 0.68340  0.70310  0.77520  Biso   1.000  O
  O17      1.0000 0.72660  0.96990  0.04660  Biso   1.000  O
  O18      1.0000 0.72710  0.08520  0.22630  Biso   1.000  O
  O19      1.0000 0.83220  0.06810  0.08330  Biso   1.000  O
  O20      1.0000 0.81570  0.97030  0.28660  Biso   1.000  O
  O21      1.0000 0.77610  0.65680  0.59580  Biso   1.000  O
  O22      1.0000 0.84200  0.76320  0.52530  Biso   1.000  O
  O23      1.0000 0.55010  0.53170  0.91750  Biso   1.000  O
  O24      1.0000 0.53200  0.50100  0.84600  Biso   1.000  O
  C2       1.0000 0.78440  0.72640  0.53510  Biso   1.000  C
  Ga5      1.0000 0.76314  0.38119  0.57759  Biso   1.000  Ga
  Ga6      1.0000 0.82765  0.13109  0.89711  Biso   1.000  Ga
  P5       1.0000 0.85515  0.22424  0.59211  Biso   1.000  P
  P6       1.0000 0.72351  0.52195  0.33943  Biso   1.000  P
  F3       1.0000 0.92708  0.12620  0.91020  Biso   1.000  F
  O25      1.0000 0.93490  0.21250  0.61770  Biso   1.000  O
  O26      1.0000 0.83960  0.31720  0.54920  Biso   1.000  O
  O27      1.0000 0.82440  0.16930  0.45650  Biso   1.000  O
  O28      1.0000 0.81660  0.20310  0.72480  Biso   1.000  O
  O29      1.0000 0.77340  0.46990  0.45340  Biso   1.000  O
  O30      1.0000 0.77290  0.58520  0.27370  Biso   1.000  O
  O31      1.0000 0.66780  0.56810  0.41670  Biso   1.000  O
  O32      1.0000 0.68430  0.47030  0.21340  Biso   1.000  O
  O33      1.0000 0.72390  0.15680  0.90420  Biso   1.000  O
  O34      1.0000 0.65800  0.26320  0.97470  Biso   1.000  O
  O35      1.0000 0.94990  0.03170  0.58250  Biso   1.000  O
  O36      1.0000 0.96800  0.00100  0.65400  Biso   1.000  O
  C3       1.0000 0.71560  0.22640  0.96490  Biso   1.000  C
  Ga7      1.0000 0.26314  0.88119  0.57759  Biso   1.000  Ga
  Ga8      1.0000 0.32765  0.63109  0.89711  Biso   1.000  Ga
  P7       1.0000 0.35515  0.72424  0.59211  Biso   1.000  P
  P8       1.0000 0.22351  0.02195  0.33943  Biso   1.000  P
  F4       1.0000 0.42708  0.62620  0.91020  Biso   1.000  F
  O37      1.0000 0.43490  0.71250  0.61770  Biso   1.000  O
  O38      1.0000 0.33960  0.81720  0.54920  Biso   1.000  O
  O39      1.0000 0.32440  0.66930  0.45650  Biso   1.000  O
  O40      1.0000 0.31660  0.70310  0.72480  Biso   1.000  O
  O41      1.0000 0.27340  0.96990  0.45340  Biso   1.000  O
  O42      1.0000 0.27290  0.08520  0.27370  Biso   1.000  O
  O43      1.0000 0.16780  0.06810  0.41670  Biso   1.000  O
  O44      1.0000 0.18430  0.97030  0.21340  Biso   1.000  O
  O45      1.0000 0.22390  0.65680  0.90420  Biso   1.000  O
  O46      1.0000 0.15800  0.76320  0.97470  Biso   1.000  O
  O47      1.0000 0.44990  0.53170  0.58250  Biso   1.000  O
  O48      1.0000 0.46800  0.50100  0.65400  Biso   1.000  O
  C4       1.0000 0.21560  0.72640  0.96490  Biso   1.000  C
  Ga9      1.0000 0.76314  0.61881  0.07759  Biso   1.000  Ga
  Ga10     1.0000 0.82765  0.86891  0.39711  Biso   1.000  Ga
  P9       1.0000 0.85515  0.77576  0.09211  Biso   1.000  P
  P10      1.0000 0.72351  0.47805  0.83943  Biso   1.000  P
  F5       1.0000 0.92708  0.87380  0.41020  Biso   1.000  F
  O49      1.0000 0.93490  0.78750  0.11770  Biso   1.000  O
  O50      1.0000 0.83960  0.68280  0.04920  Biso   1.000  O
  O51      1.0000 0.82440  0.83070  0.95650  Biso   1.000  O
  O52      1.0000 0.81660  0.79690  0.22480  Biso   1.000  O
  O53      1.0000 0.77340  0.53010  0.95340  Biso   1.000  O
  O54      1.0000 0.77290  0.41480  0.77370  Biso   1.000  O
  O55      1.0000 0.66780  0.43190  0.91670  Biso   1.000  O
  O56      1.0000 0.68430  0.52970  0.71340  Biso   1.000  O
  O57      1.0000 0.72390  0.84320  0.40420  Biso   1.000  O
  O58      1.0000 0.65800  0.73680  0.47470  Biso   1.000  O
  O59      1.0000 0.94990  0.96830  0.08250  Biso   1.000  O
  O60      1.0000 0.96800  0.99900  0.15400  Biso   1.000  O
  C5       1.0000 0.71560  0.77360  0.46490  Biso   1.000  C
  Ga11     1.0000 0.26314  0.11881  0.07759  Biso   1.000  Ga
  Ga12     1.0000 0.32765  0.36891  0.39711  Biso   1.000  Ga
  P11      1.0000 0.35515  0.27576  0.09211  Biso   1.000  P
  P12      1.0000 0.22351  0.97805  0.83943  Biso   1.000  P
  F6       1.0000 0.42708  0.37380  0.41020  Biso   1.000  F
  O61      1.0000 0.43490  0.28750  0.11770  Biso   1.000  O
  O62      1.0000 0.33960  0.18280  0.04920  Biso   1.000  O
  O63      1.0000 0.32440  0.33070  0.95650  Biso   1.000  O
  O64      1.0000 0.31660  0.29690  0.22480  Biso   1.000  O
  O65      1.0000 0.27340  0.03010  0.95340  Biso   1.000  O
  O66      1.0000 0.27290  0.91480  0.77370  Biso   1.000  O
  O67      1.0000 0.16780  0.93190  0.91670  Biso   1.000  O
  O68      1.0000 0.18430  0.02970  0.71340  Biso   1.000  O
  O69      1.0000 0.22390  0.34320  0.40420  Biso   1.000  O
  O70      1.0000 0.15800  0.23680  0.47470  Biso   1.000  O
  O71      1.0000 0.44990  0.46830  0.08250  Biso   1.000  O
  O72      1.0000 0.46800  0.49900  0.15400  Biso   1.000  O
  C6       1.0000 0.21560  0.27360  0.46490  Biso   1.000  C
  Ga13     1.0000 0.23686  0.61881  0.42241  Biso   1.000  Ga
  Ga14     1.0000 0.17235  0.86891  0.10289  Biso   1.000  Ga
  P13      1.0000 0.14485  0.77576  0.40789  Biso   1.000  P
  P14      1.0000 0.27649  0.47805  0.66057  Biso   1.000  P
  F7       1.0000 0.07292  0.87380  0.08980  Biso   1.000  F
  O73      1.0000 0.06510  0.78750  0.38230  Biso   1.000  O
  O74      1.0000 0.16040  0.68280  0.45080  Biso   1.000  O
  O75      1.0000 0.17560  0.83070  0.54350  Biso   1.000  O
  O76      1.0000 0.18340  0.79690  0.27520  Biso   1.000  O
  O77      1.0000 0.22660  0.53010  0.54660  Biso   1.000  O
  O78      1.0000 0.22710  0.41480  0.72630  Biso   1.000  O
  O79      1.0000 0.33220  0.43190  0.58330  Biso   1.000  O
  O80      1.0000 0.31570  0.52970  0.78660  Biso   1.000  O
  O81      1.0000 0.27610  0.84320  0.09580  Biso   1.000  O
  O82      1.0000 0.34200  0.73680  0.02530  Biso   1.000  O
  O83      1.0000 0.05010  0.96830  0.41750  Biso   1.000  O
  O84      1.0000 0.03200  0.99900  0.34600  Biso   1.000  O
  C7       1.0000 0.28440  0.77360  0.03510  Biso   1.000  C
  Ga15     1.0000 0.73686  0.11881  0.42241  Biso   1.000  Ga
  Ga16     1.0000 0.67235  0.36891  0.10289  Biso   1.000  Ga
  P15      1.0000 0.64485  0.27576  0.40789  Biso   1.000  P
  P16      1.0000 0.77649  0.97805  0.66057  Biso   1.000  P
  F8       1.0000 0.57292  0.37380  0.08980  Biso   1.000  F
  O85      1.0000 0.56510  0.28750  0.38230  Biso   1.000  O
  O86      1.0000 0.66040  0.18280  0.45080  Biso   1.000  O
  O87      1.0000 0.67560  0.33070  0.54350  Biso   1.000  O
  O88      1.0000 0.68340  0.29690  0.27520  Biso   1.000  O
  O89      1.0000 0.72660  0.03010  0.54660  Biso   1.000  O
  O90      1.0000 0.72710  0.91480  0.72630  Biso   1.000  O
  O91      1.0000 0.83220  0.93190  0.58330  Biso   1.000  O
  O92      1.0000 0.81570  0.02970  0.78660  Biso   1.000  O
  O93      1.0000 0.77610  0.34320  0.09580  Biso   1.000  O
  O94      1.0000 0.84200  0.23680  0.02530  Biso   1.000  O
  O95      1.0000 0.55010  0.46830  0.41750  Biso   1.000  O
  O96      1.0000 0.53200  0.49900  0.34600  Biso   1.000  O
  C8       1.0000 0.78440  0.27360  0.03510  Biso   1.000  C
  Mn1      1.0000 0.00000  0.12520  0.75000  Biso   1.000  Mn
  Mn2      1.0000 0.50000  0.62520  0.75000  Biso   1.000  Mn
  Mn3      1.0000 0.00000  0.87480  0.25000  Biso   1.000  Mn
  Mn4      1.0000 0.50000  0.37480  0.25000  Biso   1.000  Mn
