data_image0
_cell_length_a       16.611
_cell_length_b       16.723
_cell_length_c       19.288
_cell_angle_alpha    78.537
_cell_angle_beta     65.243
_cell_angle_gamma    62.351

_symmetry_space_group_name_H-M    "P 1"
_symmetry_int_tables_number       1

loop_
  _symmetry_equiv_pos_as_xyz
  'x, y, z'

loop_
  _atom_site_label
  _atom_site_occupancy
  _atom_site_fract_x
  _atom_site_fract_y
  _atom_site_fract_z
  _atom_site_thermal_displace_type
  _atom_site_B_iso_or_equiv
  _atom_site_type_symbol
  Cd1      1.0000 0.12298  0.71219  0.44014  Biso   1.000  Cd
  Cd2      1.0000 0.20507  0.84098  0.25575  Biso   1.000  Cd
  Cd3      1.0000 0.28922  0.95560  0.06328  Biso   1.000  Cd
  O1       1.0000 0.14110  0.81980  0.48860  Biso   1.000  O
  O2       1.0000 0.22480  0.78190  0.37000  Biso   1.000  O
  O3       1.0000 0.04310  0.88860  0.32010  Biso   1.000  O
  O4       1.0000 0.02820  0.76200  0.37170  Biso   1.000  O
  O5       1.0000 0.36660  0.79490  0.19900  Biso   1.000  O
  O6       1.0000 0.39710  0.90220  0.11860  Biso   1.000  O
  O7       1.0000 0.18160  0.89210  0.14250  Biso   1.000  O
  O8       1.0000 0.26170  0.85180  0.02220  Biso   1.000  O
  O9       1.0000 0.21730  0.08570  0.13250  Biso   1.000  O
  O10      1.0000 0.18310  0.09430  0.03180  Biso   1.000  O
  N1       1.0000 0.97990  0.74920  0.54560  Biso   1.000  N
  N2       1.0000 0.72570  0.81680  0.74430  Biso   1.000  N
  N3       1.0000 0.65480  0.88710  0.73940  Biso   1.000  N
  N4       1.0000 0.41420  0.94360  0.94660  Biso   1.000  N
  C1       1.0000 0.95670  0.68760  0.59160  Biso   1.000  C
  H1       1.0000 0.99840  0.62610  0.57760  Biso   1.000  H
  C2       1.0000 0.87510  0.70620  0.65950  Biso   1.000  C
  H2       1.0000 0.86280  0.65980  0.69320  Biso   1.000  H
  C3       1.0000 0.81160  0.79900  0.67490  Biso   1.000  C
  C4       1.0000 0.83510  0.86130  0.62550  Biso   1.000  C
  H3       1.0000 0.79190  0.92360  0.63450  Biso   1.000  H
  C5       1.0000 0.91870  0.83620  0.56420  Biso   1.000  C
  H4       1.0000 0.93550  0.88170  0.53230  Biso   1.000  H
  C6       1.0000 0.57410  0.90590  0.81190  Biso   1.000  C
  C7       1.0000 0.58560  0.89960  0.87780  Biso   1.000  C
  H5       1.0000 0.64830  0.88410  0.87790  Biso   1.000  H
  C8       1.0000 0.50460  0.91600  0.94620  Biso   1.000  C
  H6       1.0000 0.51320  0.90760  0.99320  Biso   1.000  H
  C9       1.0000 0.40470  0.95560  0.88030  Biso   1.000  C
  H7       1.0000 0.34070  0.97750  0.88030  Biso   1.000  H
  C10      1.0000 0.48190  0.93820  0.81150  Biso   1.000  C
  H8       1.0000 0.47190  0.94810  0.76490  Biso   1.000  H
  C11      1.0000 0.20880  0.81990  0.42720  Biso   1.000  C
  C12      1.0000 0.26940  0.86610  0.42160  Biso   1.000  C
  C13      1.0000 0.24010  0.92610  0.47690  Biso   1.000  C
  H9       1.0000 0.18050  0.93730  0.51980  Biso   1.000  H
  C14      1.0000 0.29580  0.97020  0.47130  Biso   1.000  C
  H10      1.0000 0.27390  0.01200  0.50930  Biso   1.000  H
  C15      1.0000 0.38250  0.95280  0.41030  Biso   1.000  C
  C16      1.0000 0.41420  0.89210  0.35510  Biso   1.000  C
  H11      1.0000 0.47570  0.87840  0.31380  Biso   1.000  H
  C17      1.0000 0.35560  0.85100  0.36020  Biso   1.000  C
  H12      1.0000 0.37560  0.81200  0.32070  Biso   1.000  H
  C18      1.0000 0.43870  0.00450  0.40270  Biso   1.000  C
  C19      1.0000 0.39260  0.09610  0.40920  Biso   1.000  C
  H13      1.0000 0.32460  0.12620  0.41850  Biso   1.000  H
  C20      1.0000 0.44210  0.14670  0.40270  Biso   1.000  C
  C21      1.0000 0.54020  0.10300  0.38920  Biso   1.000  C
  H14      1.0000 0.57370  0.13690  0.38750  Biso   1.000  H
  C22      1.0000 0.59280  0.00900  0.37790  Biso   1.000  C
  C23      1.0000 0.54010  0.96150  0.38530  Biso   1.000  C
  H15      1.0000 0.57350  0.89790  0.37850  Biso   1.000  H
  C24      1.0000 0.38700  0.24820  0.40860  Biso   1.000  C
  C25      1.0000 0.40020  0.29600  0.45080  Biso   1.000  C
  H16      1.0000 0.44560  0.26460  0.47530  Biso   1.000  H
  C26      1.0000 0.34890  0.38750  0.45750  Biso   1.000  C
  H17      1.0000 0.35780  0.41970  0.48710  Biso   1.000  H
  C27      1.0000 0.28290  0.43340  0.42030  Biso   1.000  C
  C28      1.0000 0.27050  0.38890  0.37580  Biso   1.000  C
  H18      1.0000 0.22550  0.42010  0.35090  Biso   1.000  H
  C29      1.0000 0.32630  0.29660  0.36870  Biso   1.000  C
  H19      1.0000 0.32280  0.26520  0.33490  Biso   1.000  H
  C30      1.0000 0.22930  0.53470  0.42450  Biso   1.000  C
  O11      1.0000 0.14300  0.56940  0.43050  Biso   1.000  O
  O12      1.0000 0.24550  0.57620  0.46030  Biso   1.000  O
  C31      1.0000 0.69700  0.96400  0.36570  Biso   1.000  C
  C32      1.0000 0.75780  0.00940  0.32870  Biso   1.000  C
  H20      1.0000 0.73230  0.06790  0.30770  Biso   1.000  H
  C33      1.0000 0.85300  0.96940  0.32310  Biso   1.000  C
  H21      1.0000 0.89300  0.00100  0.29950  Biso   1.000  H
  C34      1.0000 0.89150  0.88370  0.35130  Biso   1.000  C
  C35      1.0000 0.83410  0.83800  0.38610  Biso   1.000  C
  H22      1.0000 0.86020  0.77920  0.40640  Biso   1.000  H
  C36      1.0000 0.73960  0.87730  0.39120  Biso   1.000  C
  H23      1.0000 0.70140  0.84390  0.41310  Biso   1.000  H
  C37      1.0000 0.99720  0.84050  0.34680  Biso   1.000  C
  C38      1.0000 0.42020  0.83300  0.15670  Biso   1.000  C
  C39      1.0000 0.55820  0.70820  0.19150  Biso   1.000  C
  H24      1.0000 0.51630  0.67930  0.21940  Biso   1.000  H
  C40      1.0000 0.65390  0.66690  0.18640  Biso   1.000  C
  H25      1.0000 0.67690  0.61060  0.21120  Biso   1.000  H
  C41      1.0000 0.71570  0.70620  0.14600  Biso   1.000  C
  C42      1.0000 0.68200  0.79020  0.11250  Biso   1.000  C
  H26      1.0000 0.72390  0.81970  0.08710  Biso   1.000  H
  C43      1.0000 0.58530  0.83060  0.11700  Biso   1.000  C
  H27      1.0000 0.56240  0.88700  0.09210  Biso   1.000  H
  C44      1.0000 0.52160  0.79030  0.15710  Biso   1.000  C
  C45      1.0000 0.82190  0.65710  0.13440  Biso   1.000  C
  C46      1.0000 0.87390  0.70270  0.13350  Biso   1.000  C
  H28      1.0000 0.84140  0.76600  0.14220  Biso   1.000  H
  C47      1.0000 0.97200  0.65690  0.12030  Biso   1.000  C
  C48      1.0000 0.01960  0.56490  0.11220  Biso   1.000  C
  H29      1.0000 0.08780  0.53490  0.10240  Biso   1.000  H
  C49      1.0000 0.96910  0.51410  0.11820  Biso   1.000  C
  C50      1.0000 0.86910  0.56280  0.12820  Biso   1.000  C
  H30      1.0000 0.83320  0.53100  0.13080  Biso   1.000  H
  C51      1.0000 0.01820  0.41640  0.11210  Biso   1.000  C
  C52      1.0000 0.08270  0.36780  0.14640  Biso   1.000  C
  H31      1.0000 0.09570  0.39760  0.17480  Biso   1.000  H
  C53      1.0000 0.12950  0.27590  0.14040  Biso   1.000  C
  H32      1.0000 0.17240  0.24270  0.16690  Biso   1.000  H
  C54      1.0000 0.11630  0.22930  0.09660  Biso   1.000  C
  C55      1.0000 0.05110  0.27950  0.06060  Biso   1.000  C
  H33      1.0000 0.04210  0.25060  0.02850  Biso   1.000  H
  C56      1.0000 0.99950  0.37090  0.07130  Biso   1.000  C
  H34      1.0000 0.95020  0.40400  0.05060  Biso   1.000  H
  C57      1.0000 0.17600  0.13140  0.08690  Biso   1.000  C
  C58      1.0000 0.03160  0.70720  0.11340  Biso   1.000  C
  C59      1.0000 0.99410  0.77770  0.16320  Biso   1.000  C
  H35      1.0000 0.93060  0.79530  0.20230  Biso   1.000  H
  C60      1.0000 0.04970  0.82040  0.15470  Biso   1.000  C
  H36      1.0000 0.02480  0.86680  0.18960  Biso   1.000  H
  C61      1.0000 0.14180  0.79920  0.09700  Biso   1.000  C
  C62      1.0000 0.17660  0.73190  0.04530  Biso   1.000  C
  H37      1.0000 0.23770  0.71830  0.00370  Biso   1.000  H
  C63      1.0000 0.12250  0.68460  0.05430  Biso   1.000  C
  H38      1.0000 0.14770  0.63720  0.02030  Biso   1.000  H
  C64      1.0000 0.20040  0.84820  0.08600  Biso   1.000  C
  C65      1.0000 0.42540  0.30510  0.35520  Biso   1.000  C
  H39      1.0000 0.48400  0.28000  0.31180  Biso   1.000  H
  C66      1.0000 0.37820  0.39600  0.36610  Biso   1.000  C
  H40      1.0000 0.40980  0.43350  0.33710  Biso   1.000  H
  C67      1.0000 0.23290  0.38220  0.45130  Biso   1.000  C
  H41      1.0000 0.16370  0.40880  0.47720  Biso   1.000  H
  C68      1.0000 0.28590  0.29010  0.44420  Biso   1.000  C
  H42      1.0000 0.25140  0.25330  0.46480  Biso   1.000  H
  O13      1.0000 0.23730  0.58420  0.36770  Biso   1.000  O
  O14      1.0000 0.18870  0.57130  0.48760  Biso   1.000  O
  Cd4      1.0000 0.87702  0.28781  0.55986  Biso   1.000  Cd
  Cd5      1.0000 0.79493  0.15902  0.74425  Biso   1.000  Cd
  Cd6      1.0000 0.71078  0.04440  0.93672  Biso   1.000  Cd
  O15      1.0000 0.85890  0.18020  0.51140  Biso   1.000  O
  O16      1.0000 0.77520  0.21810  0.63000  Biso   1.000  O
  O17      1.0000 0.95690  0.11140  0.67990  Biso   1.000  O
  O18      1.0000 0.97180  0.23800  0.62830  Biso   1.000  O
  O19      1.0000 0.63340  0.20510  0.80100  Biso   1.000  O
  O20      1.0000 0.60290  0.09780  0.88140  Biso   1.000  O
  O21      1.0000 0.81840  0.10790  0.85750  Biso   1.000  O
  O22      1.0000 0.73830  0.14820  0.97780  Biso   1.000  O
  O23      1.0000 0.78270  0.91430  0.86750  Biso   1.000  O
  O24      1.0000 0.81690  0.90570  0.96820  Biso   1.000  O
  N5       1.0000 0.02010  0.25080  0.45440  Biso   1.000  N
  N6       1.0000 0.27430  0.18320  0.25570  Biso   1.000  N
  N7       1.0000 0.34520  0.11290  0.26060  Biso   1.000  N
  N8       1.0000 0.58580  0.05640  0.05340  Biso   1.000  N
  C69      1.0000 0.04330  0.31240  0.40840  Biso   1.000  C
  H43      1.0000 0.00160  0.37390  0.42240  Biso   1.000  H
  C70      1.0000 0.12490  0.29380  0.34050  Biso   1.000  C
  H44      1.0000 0.13720  0.34020  0.30680  Biso   1.000  H
  C71      1.0000 0.18840  0.20100  0.32510  Biso   1.000  C
  C72      1.0000 0.16490  0.13870  0.37450  Biso   1.000  C
  H45      1.0000 0.20810  0.07640  0.36550  Biso   1.000  H
  C73      1.0000 0.08130  0.16380  0.43580  Biso   1.000  C
  H46      1.0000 0.06450  0.11830  0.46770  Biso   1.000  H
  C74      1.0000 0.42590  0.09410  0.18810  Biso   1.000  C
  C75      1.0000 0.41440  0.10040  0.12220  Biso   1.000  C
  H47      1.0000 0.35170  0.11590  0.12210  Biso   1.000  H
  C76      1.0000 0.49540  0.08400  0.05380  Biso   1.000  C
  H48      1.0000 0.48680  0.09240  0.00680  Biso   1.000  H
  C77      1.0000 0.59530  0.04440  0.11970  Biso   1.000  C
  H49      1.0000 0.65930  0.02250  0.11970  Biso   1.000  H
  C78      1.0000 0.51810  0.06180  0.18850  Biso   1.000  C
  H50      1.0000 0.52810  0.05190  0.23510  Biso   1.000  H
  C79      1.0000 0.79120  0.18010  0.57280  Biso   1.000  C
  C80      1.0000 0.73060  0.13390  0.57840  Biso   1.000  C
  C81      1.0000 0.75990  0.07390  0.52310  Biso   1.000  C
  H51      1.0000 0.81950  0.06270  0.48020  Biso   1.000  H
  C82      1.0000 0.70420  0.02980  0.52870  Biso   1.000  C
  H52      1.0000 0.72610  0.98800  0.49070  Biso   1.000  H
  C83      1.0000 0.61750  0.04720  0.58970  Biso   1.000  C
  C84      1.0000 0.58580  0.10790  0.64490  Biso   1.000  C
  H53      1.0000 0.52430  0.12160  0.68620  Biso   1.000  H
  C85      1.0000 0.64440  0.14900  0.63980  Biso   1.000  C
  H54      1.0000 0.62440  0.18800  0.67930  Biso   1.000  H
  C86      1.0000 0.56130  0.99550  0.59730  Biso   1.000  C
  C87      1.0000 0.60740  0.90390  0.59080  Biso   1.000  C
  H55      1.0000 0.67540  0.87380  0.58150  Biso   1.000  H
  C88      1.0000 0.55790  0.85330  0.59730  Biso   1.000  C
  C89      1.0000 0.45980  0.89700  0.61080  Biso   1.000  C
  H56      1.0000 0.42630  0.86310  0.61250  Biso   1.000  H
  C90      1.0000 0.40720  0.99100  0.62210  Biso   1.000  C
  C91      1.0000 0.45990  0.03850  0.61470  Biso   1.000  C
  H57      1.0000 0.42650  0.10210  0.62150  Biso   1.000  H
  C92      1.0000 0.61300  0.75180  0.59140  Biso   1.000  C
  C93      1.0000 0.59980  0.70400  0.54920  Biso   1.000  C
  H58      1.0000 0.55440  0.73540  0.52470  Biso   1.000  H
  C94      1.0000 0.65110  0.61250  0.54250  Biso   1.000  C
  H59      1.0000 0.64220  0.58030  0.51290  Biso   1.000  H
  C95      1.0000 0.71710  0.56660  0.57970  Biso   1.000  C
  C96      1.0000 0.72950  0.61110  0.62420  Biso   1.000  C
  H60      1.0000 0.77450  0.57990  0.64910  Biso   1.000  H
  C97      1.0000 0.67370  0.70340  0.63130  Biso   1.000  C
  H61      1.0000 0.67720  0.73480  0.66510  Biso   1.000  H
  C98      1.0000 0.77070  0.46530  0.57550  Biso   1.000  C
  O25      1.0000 0.85700  0.43060  0.56950  Biso   1.000  O
  O26      1.0000 0.75450  0.42380  0.53970  Biso   1.000  O
  C99      1.0000 0.30300  0.03600  0.63430  Biso   1.000  C
  C100     1.0000 0.24220  0.99060  0.67130  Biso   1.000  C
  H62      1.0000 0.26770  0.93210  0.69230  Biso   1.000  H
  C101     1.0000 0.14700  0.03060  0.67690  Biso   1.000  C
  H63      1.0000 0.10700  0.99900  0.70050  Biso   1.000  H
  C102     1.0000 0.10850  0.11630  0.64870  Biso   1.000  C
  C103     1.0000 0.16590  0.16200  0.61390  Biso   1.000  C
  H64      1.0000 0.13980  0.22080  0.59360  Biso   1.000  H
  C104     1.0000 0.26040  0.12270  0.60880  Biso   1.000  C
  H65      1.0000 0.29860  0.15610  0.58690  Biso   1.000  H
  C105     1.0000 0.00280  0.15950  0.65320  Biso   1.000  C
  C106     1.0000 0.57980  0.16700  0.84330  Biso   1.000  C
  C107     1.0000 0.44180  0.29180  0.80850  Biso   1.000  C
  H66      1.0000 0.48370  0.32070  0.78060  Biso   1.000  H
  C108     1.0000 0.34610  0.33310  0.81360  Biso   1.000  C
  H67      1.0000 0.32310  0.38940  0.78880  Biso   1.000  H
  C109     1.0000 0.28430  0.29380  0.85400  Biso   1.000  C
  C110     1.0000 0.31800  0.20980  0.88750  Biso   1.000  C
  H68      1.0000 0.27610  0.18030  0.91290  Biso   1.000  H
  C111     1.0000 0.41470  0.16940  0.88300  Biso   1.000  C
  H69      1.0000 0.43760  0.11300  0.90790  Biso   1.000  H
  C112     1.0000 0.47840  0.20970  0.84290  Biso   1.000  C
  C113     1.0000 0.17810  0.34290  0.86560  Biso   1.000  C
  C114     1.0000 0.12610  0.29730  0.86650  Biso   1.000  C
  H70      1.0000 0.15860  0.23400  0.85780  Biso   1.000  H
  C115     1.0000 0.02800  0.34310  0.87970  Biso   1.000  C
  C116     1.0000 0.98040  0.43510  0.88780  Biso   1.000  C
  H71      1.0000 0.91220  0.46510  0.89760  Biso   1.000  H
  C117     1.0000 0.03090  0.48590  0.88180  Biso   1.000  C
  C118     1.0000 0.13090  0.43720  0.87180  Biso   1.000  C
  H72      1.0000 0.16680  0.46900  0.86920  Biso   1.000  H
  C119     1.0000 0.98180  0.58360  0.88790  Biso   1.000  C
  C120     1.0000 0.91730  0.63220  0.85360  Biso   1.000  C
  H73      1.0000 0.90430  0.60240  0.82520  Biso   1.000  H
  C121     1.0000 0.87050  0.72410  0.85960  Biso   1.000  C
  H74      1.0000 0.82760  0.75730  0.83310  Biso   1.000  H
  C122     1.0000 0.88370  0.77070  0.90340  Biso   1.000  C
  C123     1.0000 0.94890  0.72050  0.93940  Biso   1.000  C
  H75      1.0000 0.95790  0.74940  0.97150  Biso   1.000  H
  C124     1.0000 0.00050  0.62910  0.92870  Biso   1.000  C
  H76      1.0000 0.04980  0.59600  0.94940  Biso   1.000  H
  C125     1.0000 0.82400  0.86860  0.91310  Biso   1.000  C
  C126     1.0000 0.96840  0.29280  0.88660  Biso   1.000  C
  C127     1.0000 0.00590  0.22230  0.83680  Biso   1.000  C
  H77      1.0000 0.06940  0.20470  0.79770  Biso   1.000  H
  C128     1.0000 0.95030  0.17960  0.84530  Biso   1.000  C
  H78      1.0000 0.97520  0.13320  0.81040  Biso   1.000  H
  C129     1.0000 0.85820  0.20080  0.90300  Biso   1.000  C
  C130     1.0000 0.82340  0.26810  0.95470  Biso   1.000  C
  H79      1.0000 0.76230  0.28170  0.99630  Biso   1.000  H
  C131     1.0000 0.87750  0.31540  0.94570  Biso   1.000  C
  H80      1.0000 0.85230  0.36280  0.97970  Biso   1.000  H
  C132     1.0000 0.79960  0.15180  0.91400  Biso   1.000  C
  C133     1.0000 0.57460  0.69490  0.64480  Biso   1.000  C
  H81      1.0000 0.51600  0.72000  0.68820  Biso   1.000  H
  C134     1.0000 0.62180  0.60400  0.63390  Biso   1.000  C
  H82      1.0000 0.59020  0.56650  0.66290  Biso   1.000  H
  C135     1.0000 0.76710  0.61780  0.54870  Biso   1.000  C
  H83      1.0000 0.83630  0.59120  0.52280  Biso   1.000  H
  C136     1.0000 0.71410  0.70990  0.55580  Biso   1.000  C
  H84      1.0000 0.74860  0.74670  0.53520  Biso   1.000  H
  O27      1.0000 0.76270  0.41580  0.63230  Biso   1.000  O
  O28      1.0000 0.81130  0.42870  0.51240  Biso   1.000  O
