data_image0
_cell_length_a       15.3248
_cell_length_b       32.715
_cell_length_c       10.0565
_cell_angle_alpha    90
_cell_angle_beta     107.143
_cell_angle_gamma    90

_symmetry_space_group_name_H-M    "P 1"
_symmetry_int_tables_number       1

loop_
  _symmetry_equiv_pos_as_xyz
  'x, y, z'

loop_
  _atom_site_label
  _atom_site_occupancy
  _atom_site_fract_x
  _atom_site_fract_y
  _atom_site_fract_z
  _atom_site_thermal_displace_type
  _atom_site_B_iso_or_equiv
  _atom_site_type_symbol
  Cu1      1.0000 0.83487  0.77455  0.53219  Biso   1.000  Cu
  Cu2      1.0000 0.98277  0.71722  0.51079  Biso   1.000  Cu
  Cu3      1.0000 0.90931  0.71617  0.76875  Biso   1.000  Cu
  O1       1.0000 0.87250  0.71822  0.56800  Biso   1.000  O
  H1       1.0000 0.83240  0.70070  0.52790  Biso   1.000  H
  O2       1.0000 0.95850  0.65696  0.76070  Biso   1.000  O
  O3       1.0000 0.01920  0.66232  0.58140  Biso   1.000  O
  O4       1.0000 0.78410  0.72738  0.78040  Biso   1.000  O
  O5       1.0000 0.72650  0.76667  0.59130  Biso   1.000  O
  O6       1.0000 0.94510  0.72493  0.96640  Biso   1.000  O
  H2       1.0000 0.98520  0.70800  0.01060  Biso   1.000  H
  O7       1.0000 0.46680  0.84700  0.62300  Biso   1.000  O
  O8       1.0000 0.34380  0.80730  0.58990  Biso   1.000  O
  O9       1.0000 0.48730  0.81100  0.96770  Biso   1.000  O
  O10      1.0000 0.37900  0.84230  0.01300  Biso   1.000  O
  O11      1.0000 0.26030  0.50700  0.70530  Biso   1.000  O
  O12      1.0000 0.19150  0.54080  0.50760  Biso   1.000  O
  O13      1.0000 0.23240  0.51200  0.98400  Biso   1.000  O
  O14      1.0000 0.17820  0.47180  0.12740  Biso   1.000  O
  O15      1.0000 0.08870  0.77835  0.94720  Biso   1.000  O
  O16      1.0000 0.03520  0.73946  0.75890  Biso   1.000  O
  O17      1.0000 0.10760  0.31916  0.73700  Biso   1.000  O
  O18      1.0000 0.17430  0.33264  0.95870  Biso   1.000  O
  C1       1.0000 0.99950  0.64353  0.67800  Biso   1.000  C
  C2       1.0000 0.02940  0.59980  0.69800  Biso   1.000  C
  C3       1.0000 0.98450  0.57260  0.76050  Biso   1.000  C
  H3       1.0000 0.93560  0.58150  0.79000  Biso   1.000  H
  C4       1.0000 0.01230  0.53240  0.77920  Biso   1.000  C
  H4       1.0000 0.98020  0.51430  0.81860  Biso   1.000  H
  C5       1.0000 0.08670  0.51800  0.74090  Biso   1.000  C
  C6       1.0000 0.12800  0.54520  0.67770  Biso   1.000  C
  C7       1.0000 0.10010  0.58530  0.65370  Biso   1.000  C
  H5       1.0000 0.12930  0.60270  0.60730  Biso   1.000  H
  C8       1.0000 0.10960  0.47350  0.76500  Biso   1.000  C
  C9       1.0000 0.15250  0.45670  0.89350  Biso   1.000  C
  C10      1.0000 0.16430  0.41520  0.91670  Biso   1.000  C
  H6       1.0000 0.19450  0.40530  0.00500  Biso   1.000  H
  C11      1.0000 0.13130  0.38910  0.80910  Biso   1.000  C
  C12      1.0000 0.08550  0.40420  0.68200  Biso   1.000  C
  H7       1.0000 0.06000  0.38640  0.60880  Biso   1.000  H
  C13      1.0000 0.07640  0.44610  0.66070  Biso   1.000  C
  H8       1.0000 0.04670  0.45580  0.57190  Biso   1.000  H
  C14      1.0000 0.13750  0.34360  0.83210  Biso   1.000  C
  C15      1.0000 0.71990  0.74722  0.69520  Biso   1.000  C
  C16      1.0000 0.62940  0.74780  0.72220  Biso   1.000  C
  C17      1.0000 0.57090  0.78000  0.66920  Biso   1.000  C
  H9       1.0000 0.58880  0.80070  0.61920  Biso   1.000  H
  C18      1.0000 0.48570  0.78150  0.69070  Biso   1.000  C
  C19      1.0000 0.45770  0.75210  0.77010  Biso   1.000  C
  C20      1.0000 0.51790  0.71930  0.81910  Biso   1.000  C
  H10      1.0000 0.50110  0.69860  0.86990  Biso   1.000  H
  C21      1.0000 0.60080  0.71720  0.79370  Biso   1.000  C
  H11      1.0000 0.63840  0.69470  0.82530  Biso   1.000  H
  C22      1.0000 0.36800  0.75320  0.80260  Biso   1.000  C
  C23      1.0000 0.30640  0.72300  0.75070  Biso   1.000  C
  H12      1.0000 0.32380  0.70090  0.70590  Biso   1.000  H
  C24      1.0000 0.21790  0.72390  0.76240  Biso   1.000  C
  H13      1.0000 0.17640  0.70350  0.72120  Biso   1.000  H
  C25      1.0000 0.19230  0.75490  0.83460  Biso   1.000  C
  C26      1.0000 0.25550  0.78460  0.89620  Biso   1.000  C
  H14      1.0000 0.23970  0.80520  0.94850  Biso   1.000  H
  C27      1.0000 0.34260  0.78380  0.88020  Biso   1.000  C
  C28      1.0000 0.09780  0.75778  0.84720  Biso   1.000  C
  N1       1.0000 0.21100  0.53320  0.63210  Biso   1.000  N
  N2       1.0000 0.42590  0.81510  0.62480  Biso   1.000  N
  N3       1.0000 0.40610  0.81500  0.95320  Biso   1.000  N
  N4       1.0000 0.18900  0.48420  0.01840  Biso   1.000  N
  O19      1.0000 0.44840  0.83830  0.54560  Biso   1.000  O
  O20      1.0000 0.36630  0.83010  0.66670  Biso   1.000  O
  O21      1.0000 0.22830  0.49700  0.62200  Biso   1.000  O
  O22      1.0000 0.25260  0.55990  0.59000  Biso   1.000  O
  O23      1.0000 0.19750  0.52090  0.00400  Biso   1.000  O
  O24      1.0000 0.23840  0.46860  0.12460  Biso   1.000  O
  Cu4      1.0000 0.16513  0.27455  0.96781  Biso   1.000  Cu
  Cu5      1.0000 0.01723  0.21722  0.98921  Biso   1.000  Cu
  Cu6      1.0000 0.09069  0.21617  0.73125  Biso   1.000  Cu
  O25      1.0000 0.12750  0.21822  0.93200  Biso   1.000  O
  H15      1.0000 0.16760  0.20070  0.97210  Biso   1.000  H
  O26      1.0000 0.04150  0.15696  0.73930  Biso   1.000  O
  O27      1.0000 0.98080  0.16232  0.91860  Biso   1.000  O
  O28      1.0000 0.21590  0.22738  0.71960  Biso   1.000  O
  O29      1.0000 0.27350  0.26667  0.90870  Biso   1.000  O
  O30      1.0000 0.05490  0.22493  0.53360  Biso   1.000  O
  H16      1.0000 0.01480  0.20800  0.48940  Biso   1.000  H
  O31      1.0000 0.53320  0.34700  0.87700  Biso   1.000  O
  O32      1.0000 0.65620  0.30730  0.91010  Biso   1.000  O
  O33      1.0000 0.51270  0.31100  0.53230  Biso   1.000  O
  O34      1.0000 0.62100  0.34230  0.48700  Biso   1.000  O
  O35      1.0000 0.73970  0.00700  0.79470  Biso   1.000  O
  O36      1.0000 0.80850  0.04080  0.99240  Biso   1.000  O
  O37      1.0000 0.76760  0.01200  0.51600  Biso   1.000  O
  O38      1.0000 0.82180  0.97180  0.37260  Biso   1.000  O
  O39      1.0000 0.91130  0.27835  0.55280  Biso   1.000  O
  O40      1.0000 0.96480  0.23946  0.74110  Biso   1.000  O
  O41      1.0000 0.89240  0.81916  0.76300  Biso   1.000  O
  O42      1.0000 0.82570  0.83264  0.54130  Biso   1.000  O
  C29      1.0000 0.00050  0.14353  0.82200  Biso   1.000  C
  C30      1.0000 0.97060  0.09980  0.80200  Biso   1.000  C
  C31      1.0000 0.01550  0.07260  0.73950  Biso   1.000  C
  H17      1.0000 0.06440  0.08150  0.71000  Biso   1.000  H
  C32      1.0000 0.98770  0.03240  0.72080  Biso   1.000  C
  H18      1.0000 0.01980  0.01430  0.68140  Biso   1.000  H
  C33      1.0000 0.91330  0.01800  0.75910  Biso   1.000  C
  C34      1.0000 0.87200  0.04520  0.82230  Biso   1.000  C
  C35      1.0000 0.89990  0.08530  0.84630  Biso   1.000  C
  H19      1.0000 0.87070  0.10270  0.89270  Biso   1.000  H
  C36      1.0000 0.89040  0.97350  0.73500  Biso   1.000  C
  C37      1.0000 0.84750  0.95670  0.60650  Biso   1.000  C
  C38      1.0000 0.83570  0.91520  0.58330  Biso   1.000  C
  H20      1.0000 0.80550  0.90530  0.49500  Biso   1.000  H
  C39      1.0000 0.86870  0.88910  0.69090  Biso   1.000  C
  C40      1.0000 0.91450  0.90420  0.81800  Biso   1.000  C
  H21      1.0000 0.94000  0.88640  0.89120  Biso   1.000  H
  C41      1.0000 0.92360  0.94610  0.83930  Biso   1.000  C
  H22      1.0000 0.95330  0.95580  0.92810  Biso   1.000  H
  C42      1.0000 0.86250  0.84360  0.66790  Biso   1.000  C
  C43      1.0000 0.28010  0.24722  0.80480  Biso   1.000  C
  C44      1.0000 0.37060  0.24780  0.77780  Biso   1.000  C
  C45      1.0000 0.42910  0.28000  0.83080  Biso   1.000  C
  H23      1.0000 0.41120  0.30070  0.88080  Biso   1.000  H
  C46      1.0000 0.51430  0.28150  0.80930  Biso   1.000  C
  C47      1.0000 0.54230  0.25210  0.72990  Biso   1.000  C
  C48      1.0000 0.48210  0.21930  0.68090  Biso   1.000  C
  H24      1.0000 0.49890  0.19860  0.63010  Biso   1.000  H
  C49      1.0000 0.39920  0.21720  0.70630  Biso   1.000  C
  H25      1.0000 0.36160  0.19470  0.67470  Biso   1.000  H
  C50      1.0000 0.63200  0.25320  0.69740  Biso   1.000  C
  C51      1.0000 0.69360  0.22300  0.74930  Biso   1.000  C
  H26      1.0000 0.67620  0.20090  0.79410  Biso   1.000  H
  C52      1.0000 0.78210  0.22390  0.73760  Biso   1.000  C
  H27      1.0000 0.82360  0.20350  0.77880  Biso   1.000  H
  C53      1.0000 0.80770  0.25490  0.66540  Biso   1.000  C
  C54      1.0000 0.74450  0.28460  0.60380  Biso   1.000  C
  H28      1.0000 0.76030  0.30520  0.55150  Biso   1.000  H
  C55      1.0000 0.65740  0.28380  0.61980  Biso   1.000  C
  C56      1.0000 0.90220  0.25778  0.65280  Biso   1.000  C
  N5       1.0000 0.78900  0.03320  0.86790  Biso   1.000  N
  N6       1.0000 0.57410  0.31510  0.87520  Biso   1.000  N
  N7       1.0000 0.59390  0.31500  0.54680  Biso   1.000  N
  N8       1.0000 0.81100  0.98420  0.48160  Biso   1.000  N
  O43      1.0000 0.55160  0.33830  0.95440  Biso   1.000  O
  O44      1.0000 0.63370  0.33010  0.83330  Biso   1.000  O
  O45      1.0000 0.77170  0.99700  0.87800  Biso   1.000  O
  O46      1.0000 0.74740  0.05990  0.91000  Biso   1.000  O
  O47      1.0000 0.80250  0.02090  0.49600  Biso   1.000  O
  O48      1.0000 0.76160  0.96860  0.37540  Biso   1.000  O
  Cu7      1.0000 0.16513  0.22545  0.46781  Biso   1.000  Cu
  Cu8      1.0000 0.01723  0.28278  0.48921  Biso   1.000  Cu
  Cu9      1.0000 0.09069  0.28383  0.23125  Biso   1.000  Cu
  O49      1.0000 0.12750  0.28178  0.43200  Biso   1.000  O
  H29      1.0000 0.16760  0.29930  0.47210  Biso   1.000  H
  O50      1.0000 0.04150  0.34304  0.23930  Biso   1.000  O
  O51      1.0000 0.98080  0.33768  0.41860  Biso   1.000  O
  O52      1.0000 0.21590  0.27262  0.21960  Biso   1.000  O
  O53      1.0000 0.27350  0.23333  0.40870  Biso   1.000  O
  O54      1.0000 0.05490  0.27507  0.03360  Biso   1.000  O
  H30      1.0000 0.01480  0.29200  0.98940  Biso   1.000  H
  O55      1.0000 0.53320  0.15300  0.37700  Biso   1.000  O
  O56      1.0000 0.65620  0.19270  0.41010  Biso   1.000  O
  O57      1.0000 0.51270  0.18900  0.03230  Biso   1.000  O
  O58      1.0000 0.62100  0.15770  0.98700  Biso   1.000  O
  O59      1.0000 0.73970  0.49300  0.29470  Biso   1.000  O
  O60      1.0000 0.80850  0.45920  0.49240  Biso   1.000  O
  O61      1.0000 0.76760  0.48800  0.01600  Biso   1.000  O
  O62      1.0000 0.82180  0.52820  0.87260  Biso   1.000  O
  O63      1.0000 0.91130  0.22165  0.05280  Biso   1.000  O
  O64      1.0000 0.96480  0.26054  0.24110  Biso   1.000  O
  O65      1.0000 0.89240  0.68084  0.26300  Biso   1.000  O
  O66      1.0000 0.82570  0.66736  0.04130  Biso   1.000  O
  C57      1.0000 0.00050  0.35647  0.32200  Biso   1.000  C
  C58      1.0000 0.97060  0.40020  0.30200  Biso   1.000  C
  C59      1.0000 0.01550  0.42740  0.23950  Biso   1.000  C
  H31      1.0000 0.06440  0.41850  0.21000  Biso   1.000  H
  C60      1.0000 0.98770  0.46760  0.22080  Biso   1.000  C
  H32      1.0000 0.01980  0.48570  0.18140  Biso   1.000  H
  C61      1.0000 0.91330  0.48200  0.25910  Biso   1.000  C
  C62      1.0000 0.87200  0.45480  0.32230  Biso   1.000  C
  C63      1.0000 0.89990  0.41470  0.34630  Biso   1.000  C
  H33      1.0000 0.87070  0.39730  0.39270  Biso   1.000  H
  C64      1.0000 0.89040  0.52650  0.23500  Biso   1.000  C
  C65      1.0000 0.84750  0.54330  0.10650  Biso   1.000  C
  C66      1.0000 0.83570  0.58480  0.08330  Biso   1.000  C
  H34      1.0000 0.80550  0.59470  0.99500  Biso   1.000  H
  C67      1.0000 0.86870  0.61090  0.19090  Biso   1.000  C
  C68      1.0000 0.91450  0.59580  0.31800  Biso   1.000  C
  H35      1.0000 0.94000  0.61360  0.39120  Biso   1.000  H
  C69      1.0000 0.92360  0.55390  0.33930  Biso   1.000  C
  H36      1.0000 0.95330  0.54420  0.42810  Biso   1.000  H
  C70      1.0000 0.86250  0.65640  0.16790  Biso   1.000  C
  C71      1.0000 0.28010  0.25278  0.30480  Biso   1.000  C
  C72      1.0000 0.37060  0.25220  0.27780  Biso   1.000  C
  C73      1.0000 0.42910  0.22000  0.33080  Biso   1.000  C
  H37      1.0000 0.41120  0.19930  0.38080  Biso   1.000  H
  C74      1.0000 0.51430  0.21850  0.30930  Biso   1.000  C
  C75      1.0000 0.54230  0.24790  0.22990  Biso   1.000  C
  C76      1.0000 0.48210  0.28070  0.18090  Biso   1.000  C
  H38      1.0000 0.49890  0.30140  0.13010  Biso   1.000  H
  C77      1.0000 0.39920  0.28280  0.20630  Biso   1.000  C
  H39      1.0000 0.36160  0.30530  0.17470  Biso   1.000  H
  C78      1.0000 0.63200  0.24680  0.19740  Biso   1.000  C
  C79      1.0000 0.69360  0.27700  0.24930  Biso   1.000  C
  H40      1.0000 0.67620  0.29910  0.29410  Biso   1.000  H
  C80      1.0000 0.78210  0.27610  0.23760  Biso   1.000  C
  H41      1.0000 0.82360  0.29650  0.27880  Biso   1.000  H
  C81      1.0000 0.80770  0.24510  0.16540  Biso   1.000  C
  C82      1.0000 0.74450  0.21540  0.10380  Biso   1.000  C
  H42      1.0000 0.76030  0.19480  0.05150  Biso   1.000  H
  C83      1.0000 0.65740  0.21620  0.11980  Biso   1.000  C
  C84      1.0000 0.90220  0.24222  0.15280  Biso   1.000  C
  N9       1.0000 0.78900  0.46680  0.36790  Biso   1.000  N
  N10      1.0000 0.57410  0.18490  0.37520  Biso   1.000  N
  N11      1.0000 0.59390  0.18500  0.04680  Biso   1.000  N
  N12      1.0000 0.81100  0.51580  0.98160  Biso   1.000  N
  O67      1.0000 0.55160  0.16170  0.45440  Biso   1.000  O
  O68      1.0000 0.63370  0.16990  0.33330  Biso   1.000  O
  O69      1.0000 0.77170  0.50300  0.37800  Biso   1.000  O
  O70      1.0000 0.74740  0.44010  0.41000  Biso   1.000  O
  O71      1.0000 0.80250  0.47910  0.99600  Biso   1.000  O
  O72      1.0000 0.76160  0.53140  0.87540  Biso   1.000  O
  Cu10     1.0000 0.83487  0.72545  0.03219  Biso   1.000  Cu
  Cu11     1.0000 0.98277  0.78278  0.01079  Biso   1.000  Cu
  Cu12     1.0000 0.90931  0.78383  0.26875  Biso   1.000  Cu
  O73      1.0000 0.87250  0.78178  0.06800  Biso   1.000  O
  H43      1.0000 0.83240  0.79930  0.02790  Biso   1.000  H
  O74      1.0000 0.95850  0.84304  0.26070  Biso   1.000  O
  O75      1.0000 0.01920  0.83768  0.08140  Biso   1.000  O
  O76      1.0000 0.78410  0.77262  0.28040  Biso   1.000  O
  O77      1.0000 0.72650  0.73333  0.09130  Biso   1.000  O
  O78      1.0000 0.94510  0.77507  0.46640  Biso   1.000  O
  H44      1.0000 0.98520  0.79200  0.51060  Biso   1.000  H
  O79      1.0000 0.46680  0.65300  0.12300  Biso   1.000  O
  O80      1.0000 0.34380  0.69270  0.08990  Biso   1.000  O
  O81      1.0000 0.48730  0.68900  0.46770  Biso   1.000  O
  O82      1.0000 0.37900  0.65770  0.51300  Biso   1.000  O
  O83      1.0000 0.26030  0.99300  0.20530  Biso   1.000  O
  O84      1.0000 0.19150  0.95920  0.00760  Biso   1.000  O
  O85      1.0000 0.23240  0.98800  0.48400  Biso   1.000  O
  O86      1.0000 0.17820  0.02820  0.62740  Biso   1.000  O
  O87      1.0000 0.08870  0.72165  0.44720  Biso   1.000  O
  O88      1.0000 0.03520  0.76054  0.25890  Biso   1.000  O
  O89      1.0000 0.10760  0.18084  0.23700  Biso   1.000  O
  O90      1.0000 0.17430  0.16736  0.45870  Biso   1.000  O
  C85      1.0000 0.99950  0.85647  0.17800  Biso   1.000  C
  C86      1.0000 0.02940  0.90020  0.19800  Biso   1.000  C
  C87      1.0000 0.98450  0.92740  0.26050  Biso   1.000  C
  H45      1.0000 0.93560  0.91850  0.29000  Biso   1.000  H
  C88      1.0000 0.01230  0.96760  0.27920  Biso   1.000  C
  H46      1.0000 0.98020  0.98570  0.31860  Biso   1.000  H
  C89      1.0000 0.08670  0.98200  0.24090  Biso   1.000  C
  C90      1.0000 0.12800  0.95480  0.17770  Biso   1.000  C
  C91      1.0000 0.10010  0.91470  0.15370  Biso   1.000  C
  H47      1.0000 0.12930  0.89730  0.10730  Biso   1.000  H
  C92      1.0000 0.10960  0.02650  0.26500  Biso   1.000  C
  C93      1.0000 0.15250  0.04330  0.39350  Biso   1.000  C
  C94      1.0000 0.16430  0.08480  0.41670  Biso   1.000  C
  H48      1.0000 0.19450  0.09470  0.50500  Biso   1.000  H
  C95      1.0000 0.13130  0.11090  0.30910  Biso   1.000  C
  C96      1.0000 0.08550  0.09580  0.18200  Biso   1.000  C
  H49      1.0000 0.06000  0.11360  0.10880  Biso   1.000  H
  C97      1.0000 0.07640  0.05390  0.16070  Biso   1.000  C
  H50      1.0000 0.04670  0.04420  0.07190  Biso   1.000  H
  C98      1.0000 0.13750  0.15640  0.33210  Biso   1.000  C
  C99      1.0000 0.71990  0.75278  0.19520  Biso   1.000  C
  C100     1.0000 0.62940  0.75220  0.22220  Biso   1.000  C
  C101     1.0000 0.57090  0.72000  0.16920  Biso   1.000  C
  H51      1.0000 0.58880  0.69930  0.11920  Biso   1.000  H
  C102     1.0000 0.48570  0.71850  0.19070  Biso   1.000  C
  C103     1.0000 0.45770  0.74790  0.27010  Biso   1.000  C
  C104     1.0000 0.51790  0.78070  0.31910  Biso   1.000  C
  H52      1.0000 0.50110  0.80140  0.36990  Biso   1.000  H
  C105     1.0000 0.60080  0.78280  0.29370  Biso   1.000  C
  H53      1.0000 0.63840  0.80530  0.32530  Biso   1.000  H
  C106     1.0000 0.36800  0.74680  0.30260  Biso   1.000  C
  C107     1.0000 0.30640  0.77700  0.25070  Biso   1.000  C
  H54      1.0000 0.32380  0.79910  0.20590  Biso   1.000  H
  C108     1.0000 0.21790  0.77610  0.26240  Biso   1.000  C
  H55      1.0000 0.17640  0.79650  0.22120  Biso   1.000  H
  C109     1.0000 0.19230  0.74510  0.33460  Biso   1.000  C
  C110     1.0000 0.25550  0.71540  0.39620  Biso   1.000  C
  H56      1.0000 0.23970  0.69480  0.44850  Biso   1.000  H
  C111     1.0000 0.34260  0.71620  0.38020  Biso   1.000  C
  C112     1.0000 0.09780  0.74222  0.34720  Biso   1.000  C
  N13      1.0000 0.21100  0.96680  0.13210  Biso   1.000  N
  N14      1.0000 0.42590  0.68490  0.12480  Biso   1.000  N
  N15      1.0000 0.40610  0.68500  0.45320  Biso   1.000  N
  N16      1.0000 0.18900  0.01580  0.51840  Biso   1.000  N
  O91      1.0000 0.44840  0.66170  0.04560  Biso   1.000  O
  O92      1.0000 0.36630  0.66990  0.16670  Biso   1.000  O
  O93      1.0000 0.22830  0.00300  0.12200  Biso   1.000  O
  O94      1.0000 0.25260  0.94010  0.09000  Biso   1.000  O
  O95      1.0000 0.19750  0.97910  0.50400  Biso   1.000  O
  O96      1.0000 0.23840  0.03140  0.62460  Biso   1.000  O
