data_image0
_cell_length_a       15.286
_cell_length_b       32.626
_cell_length_c       10.053
_cell_angle_alpha    90
_cell_angle_beta     107.2
_cell_angle_gamma    90

_symmetry_space_group_name_H-M    "P 1"
_symmetry_int_tables_number       1

loop_
  _symmetry_equiv_pos_as_xyz
  'x, y, z'

loop_
  _atom_site_label
  _atom_site_occupancy
  _atom_site_fract_x
  _atom_site_fract_y
  _atom_site_fract_z
  _atom_site_thermal_displace_type
  _atom_site_B_iso_or_equiv
  _atom_site_type_symbol
  Cu1      1.0000 0.40849  0.71624  0.26962  Biso   1.000  Cu
  Cu2      1.0000 0.48204  0.71743  0.01209  Biso   1.000  Cu
  Cu3      1.0000 0.33414  0.77476  0.03323  Biso   1.000  Cu
  O1       1.0000 0.37090  0.71792  0.06890  Biso   1.000  O
  H1       1.0000 0.33070  0.70040  0.02880  Biso   1.000  H
  O2       1.0000 0.45640  0.65713  0.26030  Biso   1.000  O
  O3       1.0000 0.51830  0.66253  0.08160  Biso   1.000  O
  O4       1.0000 0.28330  0.72763  0.28180  Biso   1.000  O
  O5       1.0000 0.22530  0.76676  0.09230  Biso   1.000  O
  O6       1.0000 0.44480  0.72434  0.46790  Biso   1.000  O
  H2       1.0000 0.48500  0.70730  0.51190  Biso   1.000  H
  O7       1.0000 0.96510  0.84790  0.11680  Biso   1.000  O
  O8       1.0000 0.84310  0.80830  0.09180  Biso   1.000  O
  O9       1.0000 0.98560  0.81170  0.46990  Biso   1.000  O
  O10      1.0000 0.87780  0.84210  0.51640  Biso   1.000  O
  O11      1.0000 0.75980  0.50910  0.20740  Biso   1.000  O
  O12      1.0000 0.74840  0.56090  0.08200  Biso   1.000  O
  O13      1.0000 0.73230  0.51310  0.48360  Biso   1.000  O
  O14      1.0000 0.72030  0.46980  0.63560  Biso   1.000  O
  O15      1.0000 0.58800  0.77811  0.44950  Biso   1.000  O
  O16      1.0000 0.53430  0.73909  0.25950  Biso   1.000  O
  O17      1.0000 0.60740  0.31922  0.23720  Biso   1.000  O
  O18      1.0000 0.67480  0.33306  0.45880  Biso   1.000  O
  C1       1.0000 0.49850  0.64355  0.17880  Biso   1.000  C
  C2       1.0000 0.52710  0.59985  0.19610  Biso   1.000  C
  C3       1.0000 0.48150  0.57210  0.25670  Biso   1.000  C
  H3       1.0000 0.43080  0.58060  0.28260  Biso   1.000  H
  C4       1.0000 0.51030  0.53280  0.27830  Biso   1.000  C
  H4       1.0000 0.47920  0.51510  0.32090  Biso   1.000  H
  C5       1.0000 0.58320  0.51800  0.24010  Biso   1.000  C
  C6       1.0000 0.62670  0.54590  0.17640  Biso   1.000  C
  C7       1.0000 0.59950  0.58560  0.15390  Biso   1.000  C
  H5       1.0000 0.62990  0.60330  0.10990  Biso   1.000  H
  C8       1.0000 0.60990  0.47370  0.26550  Biso   1.000  C
  C9       1.0000 0.65210  0.45760  0.39130  Biso   1.000  C
  C10      1.0000 0.66540  0.41580  0.41450  Biso   1.000  C
  H6       1.0000 0.69690  0.40630  0.50300  Biso   1.000  H
  C11      1.0000 0.63260  0.38851  0.30840  Biso   1.000  C
  C12      1.0000 0.58560  0.40410  0.18140  Biso   1.000  C
  H7       1.0000 0.56020  0.38630  0.10780  Biso   1.000  H
  C13      1.0000 0.57510  0.44580  0.16050  Biso   1.000  C
  H8       1.0000 0.54350  0.45540  0.07230  Biso   1.000  H
  C14      1.0000 0.63940  0.34370  0.33430  Biso   1.000  C
  C15      1.0000 0.21910  0.74732  0.19660  Biso   1.000  C
  C16      1.0000 0.12790  0.74840  0.22310  Biso   1.000  C
  C17      1.0000 0.07110  0.78100  0.17120  Biso   1.000  C
  H9       1.0000 0.09020  0.80180  0.12330  Biso   1.000  H
  C18      1.0000 0.98530  0.78250  0.19050  Biso   1.000  C
  C19      1.0000 0.95720  0.75280  0.27240  Biso   1.000  C
  C20      1.0000 0.01880  0.71970  0.32120  Biso   1.000  C
  H10      1.0000 0.00290  0.69890  0.37300  Biso   1.000  H
  C21      1.0000 0.09990  0.71800  0.29360  Biso   1.000  C
  H11      1.0000 0.13760  0.69540  0.32360  Biso   1.000  H
  C22      1.0000 0.86650  0.75380  0.30230  Biso   1.000  C
  C23      1.0000 0.80690  0.72271  0.25300  Biso   1.000  C
  H12      1.0000 0.82570  0.70020  0.21160  Biso   1.000  H
  C24      1.0000 0.71780  0.72370  0.26290  Biso   1.000  C
  H13      1.0000 0.67620  0.70340  0.22060  Biso   1.000  H
  C25      1.0000 0.69140  0.75490  0.33530  Biso   1.000  C
  C26      1.0000 0.75610  0.78450  0.39850  Biso   1.000  C
  H14      1.0000 0.74200  0.80440  0.45530  Biso   1.000  H
  C27      1.0000 0.84110  0.78440  0.37660  Biso   1.000  C
  C28      1.0000 0.59710  0.75761  0.34870  Biso   1.000  C
  N1       1.0000 0.71030  0.53460  0.13140  Biso   1.000  N
  N2       1.0000 0.92520  0.81610  0.12710  Biso   1.000  N
  N3       1.0000 0.90480  0.81530  0.45510  Biso   1.000  N
  N4       1.0000 0.69210  0.48400  0.51860  Biso   1.000  N
  O19      1.0000 0.94520  0.83810  0.04240  Biso   1.000  O
  O20      1.0000 0.87060  0.83320  0.17560  Biso   1.000  O
  O21      1.0000 0.73140  0.49930  0.12100  Biso   1.000  O
  O22      1.0000 0.69100  0.54300  0.00720  Biso   1.000  O
  O23      1.0000 0.69430  0.52070  0.50350  Biso   1.000  O
  O24      1.0000 0.66890  0.47250  0.61920  Biso   1.000  O
  Cu4      1.0000 0.59151  0.21624  0.23038  Biso   1.000  Cu
  Cu5      1.0000 0.51796  0.21743  0.48791  Biso   1.000  Cu
  Cu6      1.0000 0.66586  0.27476  0.46677  Biso   1.000  Cu
  O25      1.0000 0.62910  0.21792  0.43110  Biso   1.000  O
  H15      1.0000 0.66930  0.20040  0.47120  Biso   1.000  H
  O26      1.0000 0.54360  0.15713  0.23970  Biso   1.000  O
  O27      1.0000 0.48170  0.16253  0.41840  Biso   1.000  O
  O28      1.0000 0.71670  0.22763  0.21820  Biso   1.000  O
  O29      1.0000 0.77470  0.26676  0.40770  Biso   1.000  O
  O30      1.0000 0.55520  0.22434  0.03210  Biso   1.000  O
  H16      1.0000 0.51500  0.20730  0.98810  Biso   1.000  H
  O31      1.0000 0.03490  0.34790  0.38320  Biso   1.000  O
  O32      1.0000 0.15690  0.30830  0.40820  Biso   1.000  O
  O33      1.0000 0.01440  0.31170  0.03010  Biso   1.000  O
  O34      1.0000 0.12220  0.34210  0.98360  Biso   1.000  O
  O35      1.0000 0.24020  0.00910  0.29260  Biso   1.000  O
  O36      1.0000 0.25160  0.06090  0.41800  Biso   1.000  O
  O37      1.0000 0.26770  0.01310  0.01640  Biso   1.000  O
  O38      1.0000 0.27970  0.96980  0.86440  Biso   1.000  O
  O39      1.0000 0.41200  0.27811  0.05050  Biso   1.000  O
  O40      1.0000 0.46570  0.23909  0.24050  Biso   1.000  O
  O41      1.0000 0.39260  0.81922  0.26280  Biso   1.000  O
  O42      1.0000 0.32520  0.83306  0.04120  Biso   1.000  O
  C29      1.0000 0.50150  0.14355  0.32120  Biso   1.000  C
  C30      1.0000 0.47290  0.09985  0.30390  Biso   1.000  C
  C31      1.0000 0.51850  0.07210  0.24330  Biso   1.000  C
  H17      1.0000 0.56920  0.08060  0.21740  Biso   1.000  H
  C32      1.0000 0.48970  0.03280  0.22170  Biso   1.000  C
  H18      1.0000 0.52080  0.01510  0.17910  Biso   1.000  H
  C33      1.0000 0.41680  0.01800  0.25990  Biso   1.000  C
  C34      1.0000 0.37330  0.04590  0.32360  Biso   1.000  C
  C35      1.0000 0.40050  0.08560  0.34610  Biso   1.000  C
  H19      1.0000 0.37010  0.10330  0.39010  Biso   1.000  H
  C36      1.0000 0.39010  0.97370  0.23450  Biso   1.000  C
  C37      1.0000 0.34790  0.95760  0.10870  Biso   1.000  C
  C38      1.0000 0.33460  0.91580  0.08550  Biso   1.000  C
  H20      1.0000 0.30310  0.90630  0.99700  Biso   1.000  H
  C39      1.0000 0.36740  0.88851  0.19160  Biso   1.000  C
  C40      1.0000 0.41440  0.90410  0.31860  Biso   1.000  C
  H21      1.0000 0.43980  0.88630  0.39220  Biso   1.000  H
  C41      1.0000 0.42490  0.94580  0.33950  Biso   1.000  C
  H22      1.0000 0.45650  0.95540  0.42770  Biso   1.000  H
  C42      1.0000 0.36060  0.84370  0.16570  Biso   1.000  C
  C43      1.0000 0.78090  0.24732  0.30340  Biso   1.000  C
  C44      1.0000 0.87210  0.24840  0.27690  Biso   1.000  C
  C45      1.0000 0.92890  0.28100  0.32880  Biso   1.000  C
  H23      1.0000 0.90980  0.30180  0.37670  Biso   1.000  H
  C46      1.0000 0.01470  0.28250  0.30950  Biso   1.000  C
  C47      1.0000 0.04280  0.25280  0.22760  Biso   1.000  C
  C48      1.0000 0.98120  0.21970  0.17880  Biso   1.000  C
  H24      1.0000 0.99710  0.19890  0.12700  Biso   1.000  H
  C49      1.0000 0.90010  0.21800  0.20640  Biso   1.000  C
  H25      1.0000 0.86240  0.19540  0.17640  Biso   1.000  H
  C50      1.0000 0.13350  0.25380  0.19770  Biso   1.000  C
  C51      1.0000 0.19310  0.22271  0.24700  Biso   1.000  C
  H26      1.0000 0.17430  0.20020  0.28840  Biso   1.000  H
  C52      1.0000 0.28220  0.22370  0.23710  Biso   1.000  C
  H27      1.0000 0.32380  0.20340  0.27940  Biso   1.000  H
  C53      1.0000 0.30860  0.25490  0.16470  Biso   1.000  C
  C54      1.0000 0.24390  0.28450  0.10150  Biso   1.000  C
  H28      1.0000 0.25800  0.30440  0.04470  Biso   1.000  H
  C55      1.0000 0.15890  0.28440  0.12340  Biso   1.000  C
  C56      1.0000 0.40290  0.25761  0.15130  Biso   1.000  C
  N5       1.0000 0.28970  0.03460  0.36860  Biso   1.000  N
  N6       1.0000 0.07480  0.31610  0.37290  Biso   1.000  N
  N7       1.0000 0.09520  0.31530  0.04490  Biso   1.000  N
  N8       1.0000 0.30790  0.98400  0.98140  Biso   1.000  N
  O43      1.0000 0.05480  0.33810  0.45760  Biso   1.000  O
  O44      1.0000 0.12940  0.33320  0.32440  Biso   1.000  O
  O45      1.0000 0.26860  0.99930  0.37900  Biso   1.000  O
  O46      1.0000 0.30900  0.04300  0.49280  Biso   1.000  O
  O47      1.0000 0.30570  0.02070  0.99650  Biso   1.000  O
  O48      1.0000 0.33110  0.97250  0.88080  Biso   1.000  O
  Cu7      1.0000 0.59151  0.28376  0.73038  Biso   1.000  Cu
  Cu8      1.0000 0.51796  0.28257  0.98791  Biso   1.000  Cu
  Cu9      1.0000 0.66586  0.22524  0.96677  Biso   1.000  Cu
  O49      1.0000 0.62910  0.28208  0.93110  Biso   1.000  O
  H29      1.0000 0.66930  0.29960  0.97120  Biso   1.000  H
  O50      1.0000 0.54360  0.34287  0.73970  Biso   1.000  O
  O51      1.0000 0.48170  0.33747  0.91840  Biso   1.000  O
  O52      1.0000 0.71670  0.27237  0.71820  Biso   1.000  O
  O53      1.0000 0.77470  0.23324  0.90770  Biso   1.000  O
  O54      1.0000 0.55520  0.27566  0.53210  Biso   1.000  O
  H30      1.0000 0.51500  0.29270  0.48810  Biso   1.000  H
  O55      1.0000 0.03490  0.15210  0.88320  Biso   1.000  O
  O56      1.0000 0.15690  0.19170  0.90820  Biso   1.000  O
  O57      1.0000 0.01440  0.18830  0.53010  Biso   1.000  O
  O58      1.0000 0.12220  0.15790  0.48360  Biso   1.000  O
  O59      1.0000 0.24020  0.49090  0.79260  Biso   1.000  O
  O60      1.0000 0.25160  0.43910  0.91800  Biso   1.000  O
  O61      1.0000 0.26770  0.48690  0.51640  Biso   1.000  O
  O62      1.0000 0.27970  0.53020  0.36440  Biso   1.000  O
  O63      1.0000 0.41200  0.22189  0.55050  Biso   1.000  O
  O64      1.0000 0.46570  0.26091  0.74050  Biso   1.000  O
  O65      1.0000 0.39260  0.68078  0.76280  Biso   1.000  O
  O66      1.0000 0.32520  0.66694  0.54120  Biso   1.000  O
  C57      1.0000 0.50150  0.35645  0.82120  Biso   1.000  C
  C58      1.0000 0.47290  0.40015  0.80390  Biso   1.000  C
  C59      1.0000 0.51850  0.42790  0.74330  Biso   1.000  C
  H31      1.0000 0.56920  0.41940  0.71740  Biso   1.000  H
  C60      1.0000 0.48970  0.46720  0.72170  Biso   1.000  C
  H32      1.0000 0.52080  0.48490  0.67910  Biso   1.000  H
  C61      1.0000 0.41680  0.48200  0.75990  Biso   1.000  C
  C62      1.0000 0.37330  0.45410  0.82360  Biso   1.000  C
  C63      1.0000 0.40050  0.41440  0.84610  Biso   1.000  C
  H33      1.0000 0.37010  0.39670  0.89010  Biso   1.000  H
  C64      1.0000 0.39010  0.52630  0.73450  Biso   1.000  C
  C65      1.0000 0.34790  0.54240  0.60870  Biso   1.000  C
  C66      1.0000 0.33460  0.58420  0.58550  Biso   1.000  C
  H34      1.0000 0.30310  0.59370  0.49700  Biso   1.000  H
  C67      1.0000 0.36740  0.61149  0.69160  Biso   1.000  C
  C68      1.0000 0.41440  0.59590  0.81860  Biso   1.000  C
  H35      1.0000 0.43980  0.61370  0.89220  Biso   1.000  H
  C69      1.0000 0.42490  0.55420  0.83950  Biso   1.000  C
  H36      1.0000 0.45650  0.54460  0.92770  Biso   1.000  H
  C70      1.0000 0.36060  0.65630  0.66570  Biso   1.000  C
  C71      1.0000 0.78090  0.25268  0.80340  Biso   1.000  C
  C72      1.0000 0.87210  0.25160  0.77690  Biso   1.000  C
  C73      1.0000 0.92890  0.21900  0.82880  Biso   1.000  C
  H37      1.0000 0.90980  0.19820  0.87670  Biso   1.000  H
  C74      1.0000 0.01470  0.21750  0.80950  Biso   1.000  C
  C75      1.0000 0.04280  0.24720  0.72760  Biso   1.000  C
  C76      1.0000 0.98120  0.28030  0.67880  Biso   1.000  C
  H38      1.0000 0.99710  0.30110  0.62700  Biso   1.000  H
  C77      1.0000 0.90010  0.28200  0.70640  Biso   1.000  C
  H39      1.0000 0.86240  0.30460  0.67640  Biso   1.000  H
  C78      1.0000 0.13350  0.24620  0.69770  Biso   1.000  C
  C79      1.0000 0.19310  0.27729  0.74700  Biso   1.000  C
  H40      1.0000 0.17430  0.29980  0.78840  Biso   1.000  H
  C80      1.0000 0.28220  0.27630  0.73710  Biso   1.000  C
  H41      1.0000 0.32380  0.29660  0.77940  Biso   1.000  H
  C81      1.0000 0.30860  0.24510  0.66470  Biso   1.000  C
  C82      1.0000 0.24390  0.21550  0.60150  Biso   1.000  C
  H42      1.0000 0.25800  0.19560  0.54470  Biso   1.000  H
  C83      1.0000 0.15890  0.21560  0.62340  Biso   1.000  C
  C84      1.0000 0.40290  0.24239  0.65130  Biso   1.000  C
  N9       1.0000 0.28970  0.46540  0.86860  Biso   1.000  N
  N10      1.0000 0.07480  0.18390  0.87290  Biso   1.000  N
  N11      1.0000 0.09520  0.18470  0.54490  Biso   1.000  N
  N12      1.0000 0.30790  0.51600  0.48140  Biso   1.000  N
  O67      1.0000 0.05480  0.16190  0.95760  Biso   1.000  O
  O68      1.0000 0.12940  0.16680  0.82440  Biso   1.000  O
  O69      1.0000 0.26860  0.50070  0.87900  Biso   1.000  O
  O70      1.0000 0.30900  0.45700  0.99280  Biso   1.000  O
  O71      1.0000 0.30570  0.47930  0.49650  Biso   1.000  O
  O72      1.0000 0.33110  0.52750  0.38080  Biso   1.000  O
  Cu10     1.0000 0.40849  0.78376  0.76962  Biso   1.000  Cu
  Cu11     1.0000 0.48204  0.78257  0.51209  Biso   1.000  Cu
  Cu12     1.0000 0.33414  0.72524  0.53323  Biso   1.000  Cu
  O73      1.0000 0.37090  0.78208  0.56890  Biso   1.000  O
  H43      1.0000 0.33070  0.79960  0.52880  Biso   1.000  H
  O74      1.0000 0.45640  0.84287  0.76030  Biso   1.000  O
  O75      1.0000 0.51830  0.83747  0.58160  Biso   1.000  O
  O76      1.0000 0.28330  0.77237  0.78180  Biso   1.000  O
  O77      1.0000 0.22530  0.73324  0.59230  Biso   1.000  O
  O78      1.0000 0.44480  0.77566  0.96790  Biso   1.000  O
  H44      1.0000 0.48500  0.79270  0.01190  Biso   1.000  H
  O79      1.0000 0.96510  0.65210  0.61680  Biso   1.000  O
  O80      1.0000 0.84310  0.69170  0.59180  Biso   1.000  O
  O81      1.0000 0.98560  0.68830  0.96990  Biso   1.000  O
  O82      1.0000 0.87780  0.65790  0.01640  Biso   1.000  O
  O83      1.0000 0.75980  0.99090  0.70740  Biso   1.000  O
  O84      1.0000 0.74840  0.93910  0.58200  Biso   1.000  O
  O85      1.0000 0.73230  0.98690  0.98360  Biso   1.000  O
  O86      1.0000 0.72030  0.03020  0.13560  Biso   1.000  O
  O87      1.0000 0.58800  0.72189  0.94950  Biso   1.000  O
  O88      1.0000 0.53430  0.76091  0.75950  Biso   1.000  O
  O89      1.0000 0.60740  0.18078  0.73720  Biso   1.000  O
  O90      1.0000 0.67480  0.16694  0.95880  Biso   1.000  O
  C85      1.0000 0.49850  0.85645  0.67880  Biso   1.000  C
  C86      1.0000 0.52710  0.90015  0.69610  Biso   1.000  C
  C87      1.0000 0.48150  0.92790  0.75670  Biso   1.000  C
  H45      1.0000 0.43080  0.91940  0.78260  Biso   1.000  H
  C88      1.0000 0.51030  0.96720  0.77830  Biso   1.000  C
  H46      1.0000 0.47920  0.98490  0.82090  Biso   1.000  H
  C89      1.0000 0.58320  0.98200  0.74010  Biso   1.000  C
  C90      1.0000 0.62670  0.95410  0.67640  Biso   1.000  C
  C91      1.0000 0.59950  0.91440  0.65390  Biso   1.000  C
  H47      1.0000 0.62990  0.89670  0.60990  Biso   1.000  H
  C92      1.0000 0.60990  0.02630  0.76550  Biso   1.000  C
  C93      1.0000 0.65210  0.04240  0.89130  Biso   1.000  C
  C94      1.0000 0.66540  0.08420  0.91450  Biso   1.000  C
  H48      1.0000 0.69690  0.09370  0.00300  Biso   1.000  H
  C95      1.0000 0.63260  0.11149  0.80840  Biso   1.000  C
  C96      1.0000 0.58560  0.09590  0.68140  Biso   1.000  C
  H49      1.0000 0.56020  0.11370  0.60780  Biso   1.000  H
  C97      1.0000 0.57510  0.05420  0.66050  Biso   1.000  C
  H50      1.0000 0.54350  0.04460  0.57230  Biso   1.000  H
  C98      1.0000 0.63940  0.15630  0.83430  Biso   1.000  C
  C99      1.0000 0.21910  0.75268  0.69660  Biso   1.000  C
  C100     1.0000 0.12790  0.75160  0.72310  Biso   1.000  C
  C101     1.0000 0.07110  0.71900  0.67120  Biso   1.000  C
  H51      1.0000 0.09020  0.69820  0.62330  Biso   1.000  H
  C102     1.0000 0.98530  0.71750  0.69050  Biso   1.000  C
  C103     1.0000 0.95720  0.74720  0.77240  Biso   1.000  C
  C104     1.0000 0.01880  0.78030  0.82120  Biso   1.000  C
  H52      1.0000 0.00290  0.80110  0.87300  Biso   1.000  H
  C105     1.0000 0.09990  0.78200  0.79360  Biso   1.000  C
  H53      1.0000 0.13760  0.80460  0.82360  Biso   1.000  H
  C106     1.0000 0.86650  0.74620  0.80230  Biso   1.000  C
  C107     1.0000 0.80690  0.77729  0.75300  Biso   1.000  C
  H54      1.0000 0.82570  0.79980  0.71160  Biso   1.000  H
  C108     1.0000 0.71780  0.77630  0.76290  Biso   1.000  C
  H55      1.0000 0.67620  0.79660  0.72060  Biso   1.000  H
  C109     1.0000 0.69140  0.74510  0.83530  Biso   1.000  C
  C110     1.0000 0.75610  0.71550  0.89850  Biso   1.000  C
  H56      1.0000 0.74200  0.69560  0.95530  Biso   1.000  H
  C111     1.0000 0.84110  0.71560  0.87660  Biso   1.000  C
  C112     1.0000 0.59710  0.74239  0.84870  Biso   1.000  C
  N13      1.0000 0.71030  0.96540  0.63140  Biso   1.000  N
  N14      1.0000 0.92520  0.68390  0.62710  Biso   1.000  N
  N15      1.0000 0.90480  0.68470  0.95510  Biso   1.000  N
  N16      1.0000 0.69210  0.01600  0.01860  Biso   1.000  N
  O91      1.0000 0.94520  0.66190  0.54240  Biso   1.000  O
  O92      1.0000 0.87060  0.66680  0.67560  Biso   1.000  O
  O93      1.0000 0.73140  0.00070  0.62100  Biso   1.000  O
  O94      1.0000 0.69100  0.95700  0.50720  Biso   1.000  O
  O95      1.0000 0.69430  0.97930  0.00350  Biso   1.000  O
  O96      1.0000 0.66890  0.02750  0.11920  Biso   1.000  O
