data_image0
_cell_length_a       15.319
_cell_length_b       32.72
_cell_length_c       10.0665
_cell_angle_alpha    90
_cell_angle_beta     107.137
_cell_angle_gamma    90

_symmetry_space_group_name_H-M    "P 1"
_symmetry_int_tables_number       1

loop_
  _symmetry_equiv_pos_as_xyz
  'x, y, z'

loop_
  _atom_site_label
  _atom_site_occupancy
  _atom_site_fract_x
  _atom_site_fract_y
  _atom_site_fract_z
  _atom_site_thermal_displace_type
  _atom_site_B_iso_or_equiv
  _atom_site_type_symbol
  Cu1      1.0000 0.33453  0.77466  0.03314  Biso   1.000  Cu
  Cu2      1.0000 0.48231  0.71722  0.01178  Biso   1.000  Cu
  Cu3      1.0000 0.40889  0.71625  0.26955  Biso   1.000  Cu
  O1       1.0000 0.37110  0.71775  0.06790  Biso   1.000  O
  H1       1.0000 0.33090  0.70030  0.02790  Biso   1.000  H
  O2       1.0000 0.45770  0.65707  0.26190  Biso   1.000  O
  O3       1.0000 0.51850  0.66249  0.08190  Biso   1.000  O
  O4       1.0000 0.28340  0.72735  0.28140  Biso   1.000  O
  O5       1.0000 0.22590  0.76656  0.09170  Biso   1.000  O
  O6       1.0000 0.44480  0.72465  0.46700  Biso   1.000  O
  H2       1.0000 0.48500  0.70770  0.51090  Biso   1.000  H
  O7       1.0000 0.96720  0.84810  0.12400  Biso   1.000  O
  O8       1.0000 0.84430  0.80910  0.09540  Biso   1.000  O
  O9       1.0000 0.98690  0.81100  0.46900  Biso   1.000  O
  O10      1.0000 0.87780  0.84260  0.51530  Biso   1.000  O
  O11      1.0000 0.75740  0.50660  0.20210  Biso   1.000  O
  O12      1.0000 0.69250  0.54250  0.01090  Biso   1.000  O
  O13      1.0000 0.72980  0.51260  0.48390  Biso   1.000  O
  O14      1.0000 0.72420  0.46900  0.63190  Biso   1.000  O
  O15      1.0000 0.58820  0.77849  0.44810  Biso   1.000  O
  O16      1.0000 0.53440  0.73946  0.26010  Biso   1.000  O
  O17      1.0000 0.60760  0.31939  0.23660  Biso   1.000  O
  O18      1.0000 0.67400  0.33276  0.45830  Biso   1.000  O
  C1       1.0000 0.49850  0.64337  0.17960  Biso   1.000  C
  C2       1.0000 0.52820  0.59961  0.19860  Biso   1.000  C
  C3       1.0000 0.48340  0.57250  0.26060  Biso   1.000  C
  H3       1.0000 0.43480  0.58120  0.29090  Biso   1.000  H
  C4       1.0000 0.51110  0.53230  0.27740  Biso   1.000  C
  H4       1.0000 0.47800  0.51420  0.31480  Biso   1.000  H
  C5       1.0000 0.58540  0.51760  0.24170  Biso   1.000  C
  C6       1.0000 0.62770  0.54520  0.17760  Biso   1.000  C
  C7       1.0000 0.59950  0.58550  0.15430  Biso   1.000  C
  H5       1.0000 0.62890  0.60300  0.10850  Biso   1.000  H
  C8       1.0000 0.60940  0.47360  0.26450  Biso   1.000  C
  C9       1.0000 0.65330  0.45710  0.39540  Biso   1.000  C
  C10      1.0000 0.66440  0.41540  0.41600  Biso   1.000  C
  H6       1.0000 0.69450  0.40550  0.50410  Biso   1.000  H
  C11      1.0000 0.63190  0.38883  0.30890  Biso   1.000  C
  C12      1.0000 0.58650  0.40460  0.18090  Biso   1.000  C
  H7       1.0000 0.56360  0.38690  0.10650  Biso   1.000  H
  C13      1.0000 0.57400  0.44600  0.15970  Biso   1.000  C
  H8       1.0000 0.54080  0.45550  0.07240  Biso   1.000  H
  C14      1.0000 0.63790  0.34328  0.33200  Biso   1.000  C
  C15      1.0000 0.21920  0.74749  0.19610  Biso   1.000  C
  C16      1.0000 0.12870  0.74830  0.22370  Biso   1.000  C
  C17      1.0000 0.07010  0.78060  0.17100  Biso   1.000  C
  H9       1.0000 0.08760  0.80130  0.12070  Biso   1.000  H
  C18      1.0000 0.98600  0.78190  0.19370  Biso   1.000  C
  C19      1.0000 0.95740  0.75270  0.27180  Biso   1.000  C
  C20      1.0000 0.01800  0.71960  0.32110  Biso   1.000  C
  H10      1.0000 0.00150  0.69900  0.37250  Biso   1.000  H
  C21      1.0000 0.10140  0.71750  0.29430  Biso   1.000  C
  H11      1.0000 0.13910  0.69500  0.32440  Biso   1.000  H
  C22      1.0000 0.86720  0.75340  0.30170  Biso   1.000  C
  C23      1.0000 0.80660  0.72280  0.25100  Biso   1.000  C
  H12      1.0000 0.82460  0.70070  0.20750  Biso   1.000  H
  C24      1.0000 0.71740  0.72380  0.26250  Biso   1.000  C
  H13      1.0000 0.67590  0.70340  0.22130  Biso   1.000  H
  C25      1.0000 0.69180  0.75513  0.33540  Biso   1.000  C
  C26      1.0000 0.75460  0.78460  0.39840  Biso   1.000  C
  H14      1.0000 0.73960  0.80460  0.45350  Biso   1.000  H
  C27      1.0000 0.84150  0.78410  0.37850  Biso   1.000  C
  C28      1.0000 0.59690  0.75765  0.34800  Biso   1.000  C
  N1       1.0000 0.70910  0.53330  0.13330  Biso   1.000  N
  N2       1.0000 0.92690  0.81610  0.13180  Biso   1.000  N
  N3       1.0000 0.90480  0.81520  0.45370  Biso   1.000  N
  N4       1.0000 0.68950  0.48390  0.51720  Biso   1.000  N
  O19      1.0000 0.94520  0.83820  0.04480  Biso   1.000  O
  O20      1.0000 0.87900  0.83530  0.18920  Biso   1.000  O
  O21      1.0000 0.72790  0.49800  0.11500  Biso   1.000  O
  O22      1.0000 0.75040  0.55980  0.09100  Biso   1.000  O
  O23      1.0000 0.69140  0.52100  0.50500  Biso   1.000  O
  O24      1.0000 0.67290  0.47200  0.62220  Biso   1.000  O
  Cu4      1.0000 0.66547  0.27466  0.46686  Biso   1.000  Cu
  Cu5      1.0000 0.51769  0.21722  0.48822  Biso   1.000  Cu
  Cu6      1.0000 0.59111  0.21625  0.23045  Biso   1.000  Cu
  O25      1.0000 0.62890  0.21775  0.43210  Biso   1.000  O
  H15      1.0000 0.66910  0.20030  0.47210  Biso   1.000  H
  O26      1.0000 0.54230  0.15707  0.23810  Biso   1.000  O
  O27      1.0000 0.48150  0.16249  0.41810  Biso   1.000  O
  O28      1.0000 0.71660  0.22735  0.21860  Biso   1.000  O
  O29      1.0000 0.77410  0.26656  0.40830  Biso   1.000  O
  O30      1.0000 0.55520  0.22465  0.03300  Biso   1.000  O
  H16      1.0000 0.51500  0.20770  0.98910  Biso   1.000  H
  O31      1.0000 0.03280  0.34810  0.37600  Biso   1.000  O
  O32      1.0000 0.15570  0.30910  0.40460  Biso   1.000  O
  O33      1.0000 0.01310  0.31100  0.03100  Biso   1.000  O
  O34      1.0000 0.12220  0.34260  0.98470  Biso   1.000  O
  O35      1.0000 0.24260  0.00660  0.29790  Biso   1.000  O
  O36      1.0000 0.30750  0.04250  0.48910  Biso   1.000  O
  O37      1.0000 0.27020  0.01260  0.01610  Biso   1.000  O
  O38      1.0000 0.27580  0.96900  0.86810  Biso   1.000  O
  O39      1.0000 0.41180  0.27849  0.05190  Biso   1.000  O
  O40      1.0000 0.46560  0.23946  0.23990  Biso   1.000  O
  O41      1.0000 0.39240  0.81939  0.26340  Biso   1.000  O
  O42      1.0000 0.32600  0.83276  0.04170  Biso   1.000  O
  C29      1.0000 0.50150  0.14337  0.32040  Biso   1.000  C
  C30      1.0000 0.47180  0.09961  0.30140  Biso   1.000  C
  C31      1.0000 0.51660  0.07250  0.23940  Biso   1.000  C
  H17      1.0000 0.56520  0.08120  0.20910  Biso   1.000  H
  C32      1.0000 0.48890  0.03230  0.22260  Biso   1.000  C
  H18      1.0000 0.52200  0.01420  0.18520  Biso   1.000  H
  C33      1.0000 0.41460  0.01760  0.25830  Biso   1.000  C
  C34      1.0000 0.37230  0.04520  0.32240  Biso   1.000  C
  C35      1.0000 0.40050  0.08550  0.34570  Biso   1.000  C
  H19      1.0000 0.37110  0.10300  0.39150  Biso   1.000  H
  C36      1.0000 0.39060  0.97360  0.23550  Biso   1.000  C
  C37      1.0000 0.34670  0.95710  0.10460  Biso   1.000  C
  C38      1.0000 0.33560  0.91540  0.08400  Biso   1.000  C
  H20      1.0000 0.30550  0.90550  0.99590  Biso   1.000  H
  C39      1.0000 0.36810  0.88883  0.19110  Biso   1.000  C
  C40      1.0000 0.41350  0.90460  0.31910  Biso   1.000  C
  H21      1.0000 0.43640  0.88690  0.39350  Biso   1.000  H
  C41      1.0000 0.42600  0.94600  0.34030  Biso   1.000  C
  H22      1.0000 0.45920  0.95550  0.42760  Biso   1.000  H
  C42      1.0000 0.36210  0.84328  0.16800  Biso   1.000  C
  C43      1.0000 0.78080  0.24749  0.30390  Biso   1.000  C
  C44      1.0000 0.87130  0.24830  0.27630  Biso   1.000  C
  C45      1.0000 0.92990  0.28060  0.32900  Biso   1.000  C
  H23      1.0000 0.91240  0.30130  0.37930  Biso   1.000  H
  C46      1.0000 0.01400  0.28190  0.30630  Biso   1.000  C
  C47      1.0000 0.04260  0.25270  0.22820  Biso   1.000  C
  C48      1.0000 0.98200  0.21960  0.17890  Biso   1.000  C
  H24      1.0000 0.99850  0.19900  0.12750  Biso   1.000  H
  C49      1.0000 0.89860  0.21750  0.20570  Biso   1.000  C
  H25      1.0000 0.86090  0.19500  0.17560  Biso   1.000  H
  C50      1.0000 0.13280  0.25340  0.19830  Biso   1.000  C
  C51      1.0000 0.19340  0.22280  0.24900  Biso   1.000  C
  H26      1.0000 0.17540  0.20070  0.29250  Biso   1.000  H
  C52      1.0000 0.28260  0.22380  0.23750  Biso   1.000  C
  H27      1.0000 0.32410  0.20340  0.27870  Biso   1.000  H
  C53      1.0000 0.30820  0.25513  0.16460  Biso   1.000  C
  C54      1.0000 0.24540  0.28460  0.10160  Biso   1.000  C
  H28      1.0000 0.26040  0.30460  0.04650  Biso   1.000  H
  C55      1.0000 0.15850  0.28410  0.12150  Biso   1.000  C
  C56      1.0000 0.40310  0.25765  0.15200  Biso   1.000  C
  N5       1.0000 0.29090  0.03330  0.36670  Biso   1.000  N
  N6       1.0000 0.07310  0.31610  0.36820  Biso   1.000  N
  N7       1.0000 0.09520  0.31520  0.04630  Biso   1.000  N
  N8       1.0000 0.31050  0.98390  0.98280  Biso   1.000  N
  O43      1.0000 0.05480  0.33820  0.45520  Biso   1.000  O
  O44      1.0000 0.12100  0.33530  0.31080  Biso   1.000  O
  O45      1.0000 0.27210  0.99800  0.38500  Biso   1.000  O
  O46      1.0000 0.24960  0.05980  0.40900  Biso   1.000  O
  O47      1.0000 0.30860  0.02100  0.99500  Biso   1.000  O
  O48      1.0000 0.32710  0.97200  0.87780  Biso   1.000  O
  Cu7      1.0000 0.66547  0.22534  0.96686  Biso   1.000  Cu
  Cu8      1.0000 0.51769  0.28278  0.98822  Biso   1.000  Cu
  Cu9      1.0000 0.59111  0.28375  0.73045  Biso   1.000  Cu
  O49      1.0000 0.62890  0.28225  0.93210  Biso   1.000  O
  H29      1.0000 0.66910  0.29970  0.97210  Biso   1.000  H
  O50      1.0000 0.54230  0.34293  0.73810  Biso   1.000  O
  O51      1.0000 0.48150  0.33751  0.91810  Biso   1.000  O
  O52      1.0000 0.71660  0.27265  0.71860  Biso   1.000  O
  O53      1.0000 0.77410  0.23344  0.90830  Biso   1.000  O
  O54      1.0000 0.55520  0.27535  0.53300  Biso   1.000  O
  H30      1.0000 0.51500  0.29230  0.48910  Biso   1.000  H
  O55      1.0000 0.03280  0.15190  0.87600  Biso   1.000  O
  O56      1.0000 0.15570  0.19090  0.90460  Biso   1.000  O
  O57      1.0000 0.01310  0.18900  0.53100  Biso   1.000  O
  O58      1.0000 0.12220  0.15740  0.48470  Biso   1.000  O
  O59      1.0000 0.24260  0.49340  0.79790  Biso   1.000  O
  O60      1.0000 0.30750  0.45750  0.98910  Biso   1.000  O
  O61      1.0000 0.27020  0.48740  0.51610  Biso   1.000  O
  O62      1.0000 0.27580  0.53100  0.36810  Biso   1.000  O
  O63      1.0000 0.41180  0.22151  0.55190  Biso   1.000  O
  O64      1.0000 0.46560  0.26054  0.73990  Biso   1.000  O
  O65      1.0000 0.39240  0.68061  0.76340  Biso   1.000  O
  O66      1.0000 0.32600  0.66724  0.54170  Biso   1.000  O
  C57      1.0000 0.50150  0.35663  0.82040  Biso   1.000  C
  C58      1.0000 0.47180  0.40039  0.80140  Biso   1.000  C
  C59      1.0000 0.51660  0.42750  0.73940  Biso   1.000  C
  H31      1.0000 0.56520  0.41880  0.70910  Biso   1.000  H
  C60      1.0000 0.48890  0.46770  0.72260  Biso   1.000  C
  H32      1.0000 0.52200  0.48580  0.68520  Biso   1.000  H
  C61      1.0000 0.41460  0.48240  0.75830  Biso   1.000  C
  C62      1.0000 0.37230  0.45480  0.82240  Biso   1.000  C
  C63      1.0000 0.40050  0.41450  0.84570  Biso   1.000  C
  H33      1.0000 0.37110  0.39700  0.89150  Biso   1.000  H
  C64      1.0000 0.39060  0.52640  0.73550  Biso   1.000  C
  C65      1.0000 0.34670  0.54290  0.60460  Biso   1.000  C
  C66      1.0000 0.33560  0.58460  0.58400  Biso   1.000  C
  H34      1.0000 0.30550  0.59450  0.49590  Biso   1.000  H
  C67      1.0000 0.36810  0.61117  0.69110  Biso   1.000  C
  C68      1.0000 0.41350  0.59540  0.81910  Biso   1.000  C
  H35      1.0000 0.43640  0.61310  0.89350  Biso   1.000  H
  C69      1.0000 0.42600  0.55400  0.84030  Biso   1.000  C
  H36      1.0000 0.45920  0.54450  0.92760  Biso   1.000  H
  C70      1.0000 0.36210  0.65672  0.66800  Biso   1.000  C
  C71      1.0000 0.78080  0.25251  0.80390  Biso   1.000  C
  C72      1.0000 0.87130  0.25170  0.77630  Biso   1.000  C
  C73      1.0000 0.92990  0.21940  0.82900  Biso   1.000  C
  H37      1.0000 0.91240  0.19870  0.87930  Biso   1.000  H
  C74      1.0000 0.01400  0.21810  0.80630  Biso   1.000  C
  C75      1.0000 0.04260  0.24730  0.72820  Biso   1.000  C
  C76      1.0000 0.98200  0.28040  0.67890  Biso   1.000  C
  H38      1.0000 0.99850  0.30100  0.62750  Biso   1.000  H
  C77      1.0000 0.89860  0.28250  0.70570  Biso   1.000  C
  H39      1.0000 0.86090  0.30500  0.67560  Biso   1.000  H
  C78      1.0000 0.13280  0.24660  0.69830  Biso   1.000  C
  C79      1.0000 0.19340  0.27720  0.74900  Biso   1.000  C
  H40      1.0000 0.17540  0.29930  0.79250  Biso   1.000  H
  C80      1.0000 0.28260  0.27620  0.73750  Biso   1.000  C
  H41      1.0000 0.32410  0.29660  0.77870  Biso   1.000  H
  C81      1.0000 0.30820  0.24487  0.66460  Biso   1.000  C
  C82      1.0000 0.24540  0.21540  0.60160  Biso   1.000  C
  H42      1.0000 0.26040  0.19540  0.54650  Biso   1.000  H
  C83      1.0000 0.15850  0.21590  0.62150  Biso   1.000  C
  C84      1.0000 0.40310  0.24235  0.65200  Biso   1.000  C
  N9       1.0000 0.29090  0.46670  0.86670  Biso   1.000  N
  N10      1.0000 0.07310  0.18390  0.86820  Biso   1.000  N
  N11      1.0000 0.09520  0.18480  0.54630  Biso   1.000  N
  N12      1.0000 0.31050  0.51610  0.48280  Biso   1.000  N
  O67      1.0000 0.05480  0.16180  0.95520  Biso   1.000  O
  O68      1.0000 0.12100  0.16470  0.81080  Biso   1.000  O
  O69      1.0000 0.27210  0.50200  0.88500  Biso   1.000  O
  O70      1.0000 0.24960  0.44020  0.90900  Biso   1.000  O
  O71      1.0000 0.30860  0.47900  0.49500  Biso   1.000  O
  O72      1.0000 0.32710  0.52800  0.37780  Biso   1.000  O
  Cu10     1.0000 0.33453  0.72534  0.53314  Biso   1.000  Cu
  Cu11     1.0000 0.48231  0.78278  0.51178  Biso   1.000  Cu
  Cu12     1.0000 0.40889  0.78375  0.76955  Biso   1.000  Cu
  O73      1.0000 0.37110  0.78225  0.56790  Biso   1.000  O
  H43      1.0000 0.33090  0.79970  0.52790  Biso   1.000  H
  O74      1.0000 0.45770  0.84293  0.76190  Biso   1.000  O
  O75      1.0000 0.51850  0.83751  0.58190  Biso   1.000  O
  O76      1.0000 0.28340  0.77265  0.78140  Biso   1.000  O
  O77      1.0000 0.22590  0.73344  0.59170  Biso   1.000  O
  O78      1.0000 0.44480  0.77535  0.96700  Biso   1.000  O
  H44      1.0000 0.48500  0.79230  0.01090  Biso   1.000  H
  O79      1.0000 0.96720  0.65190  0.62400  Biso   1.000  O
  O80      1.0000 0.84430  0.69090  0.59540  Biso   1.000  O
  O81      1.0000 0.98690  0.68900  0.96900  Biso   1.000  O
  O82      1.0000 0.87780  0.65740  0.01530  Biso   1.000  O
  O83      1.0000 0.75740  0.99340  0.70210  Biso   1.000  O
  O84      1.0000 0.69250  0.95750  0.51090  Biso   1.000  O
  O85      1.0000 0.72980  0.98740  0.98390  Biso   1.000  O
  O86      1.0000 0.72420  0.03100  0.13190  Biso   1.000  O
  O87      1.0000 0.58820  0.72151  0.94810  Biso   1.000  O
  O88      1.0000 0.53440  0.76054  0.76010  Biso   1.000  O
  O89      1.0000 0.60760  0.18061  0.73660  Biso   1.000  O
  O90      1.0000 0.67400  0.16724  0.95830  Biso   1.000  O
  C85      1.0000 0.49850  0.85663  0.67960  Biso   1.000  C
  C86      1.0000 0.52820  0.90039  0.69860  Biso   1.000  C
  C87      1.0000 0.48340  0.92750  0.76060  Biso   1.000  C
  H45      1.0000 0.43480  0.91880  0.79090  Biso   1.000  H
  C88      1.0000 0.51110  0.96770  0.77740  Biso   1.000  C
  H46      1.0000 0.47800  0.98580  0.81480  Biso   1.000  H
  C89      1.0000 0.58540  0.98240  0.74170  Biso   1.000  C
  C90      1.0000 0.62770  0.95480  0.67760  Biso   1.000  C
  C91      1.0000 0.59950  0.91450  0.65430  Biso   1.000  C
  H47      1.0000 0.62890  0.89700  0.60850  Biso   1.000  H
  C92      1.0000 0.60940  0.02640  0.76450  Biso   1.000  C
  C93      1.0000 0.65330  0.04290  0.89540  Biso   1.000  C
  C94      1.0000 0.66440  0.08460  0.91600  Biso   1.000  C
  H48      1.0000 0.69450  0.09450  0.00410  Biso   1.000  H
  C95      1.0000 0.63190  0.11117  0.80890  Biso   1.000  C
  C96      1.0000 0.58650  0.09540  0.68090  Biso   1.000  C
  H49      1.0000 0.56360  0.11310  0.60650  Biso   1.000  H
  C97      1.0000 0.57400  0.05400  0.65970  Biso   1.000  C
  H50      1.0000 0.54080  0.04450  0.57240  Biso   1.000  H
  C98      1.0000 0.63790  0.15672  0.83200  Biso   1.000  C
  C99      1.0000 0.21920  0.75251  0.69610  Biso   1.000  C
  C100     1.0000 0.12870  0.75170  0.72370  Biso   1.000  C
  C101     1.0000 0.07010  0.71940  0.67100  Biso   1.000  C
  H51      1.0000 0.08760  0.69870  0.62070  Biso   1.000  H
  C102     1.0000 0.98600  0.71810  0.69370  Biso   1.000  C
  C103     1.0000 0.95740  0.74730  0.77180  Biso   1.000  C
  C104     1.0000 0.01800  0.78040  0.82110  Biso   1.000  C
  H52      1.0000 0.00150  0.80100  0.87250  Biso   1.000  H
  C105     1.0000 0.10140  0.78250  0.79430  Biso   1.000  C
  H53      1.0000 0.13910  0.80500  0.82440  Biso   1.000  H
  C106     1.0000 0.86720  0.74660  0.80170  Biso   1.000  C
  C107     1.0000 0.80660  0.77720  0.75100  Biso   1.000  C
  H54      1.0000 0.82460  0.79930  0.70750  Biso   1.000  H
  C108     1.0000 0.71740  0.77620  0.76250  Biso   1.000  C
  H55      1.0000 0.67590  0.79660  0.72130  Biso   1.000  H
  C109     1.0000 0.69180  0.74487  0.83540  Biso   1.000  C
  C110     1.0000 0.75460  0.71540  0.89840  Biso   1.000  C
  H56      1.0000 0.73960  0.69540  0.95350  Biso   1.000  H
  C111     1.0000 0.84150  0.71590  0.87850  Biso   1.000  C
  C112     1.0000 0.59690  0.74235  0.84800  Biso   1.000  C
  N13      1.0000 0.70910  0.96670  0.63330  Biso   1.000  N
  N14      1.0000 0.92690  0.68390  0.63180  Biso   1.000  N
  N15      1.0000 0.90480  0.68480  0.95370  Biso   1.000  N
  N16      1.0000 0.68950  0.01610  0.01720  Biso   1.000  N
  O91      1.0000 0.94520  0.66180  0.54480  Biso   1.000  O
  O92      1.0000 0.87900  0.66470  0.68920  Biso   1.000  O
  O93      1.0000 0.72790  0.00200  0.61500  Biso   1.000  O
  O94      1.0000 0.75040  0.94020  0.59100  Biso   1.000  O
  O95      1.0000 0.69140  0.97900  0.00500  Biso   1.000  O
  O96      1.0000 0.67290  0.02800  0.12220  Biso   1.000  O
