data_image0
_cell_length_a       15.3086
_cell_length_b       32.447
_cell_length_c       10.0075
_cell_angle_alpha    90
_cell_angle_beta     107.563
_cell_angle_gamma    90

_symmetry_space_group_name_H-M    "P 1"
_symmetry_int_tables_number       1

loop_
  _symmetry_equiv_pos_as_xyz
  'x, y, z'

loop_
  _atom_site_label
  _atom_site_occupancy
  _atom_site_fract_x
  _atom_site_fract_y
  _atom_site_fract_z
  _atom_site_thermal_displace_type
  _atom_site_B_iso_or_equiv
  _atom_site_type_symbol
  Cu1      1.0000 0.65659  0.72676  0.00097  Biso   1.000  Cu
  Cu2      1.0000 0.51068  0.78568  0.02646  Biso   1.000  Cu
  Cu3      1.0000 0.58266  0.78383  0.76429  Biso   1.000  Cu
  O1       1.0000 0.62112  0.78450  0.96790  Biso   1.000  O
  H1       1.0000 0.66210  0.80210  0.00690  Biso   1.000  H
  O2       1.0000 0.53200  0.84272  0.76380  Biso   1.000  O
  O3       1.0000 0.46823  0.83957  0.93950  Biso   1.000  O
  O4       1.0000 0.70981  0.77399  0.75470  Biso   1.000  O
  O5       1.0000 0.76668  0.73468  0.94590  Biso   1.000  O
  O6       1.0000 0.54649  0.72613  0.06590  Biso   1.000  O
  H2       1.0000 0.50550  0.70950  0.01980  Biso   1.000  H
  O7       1.0000 0.14449  0.68800  0.95070  Biso   1.000  O
  O8       1.0000 0.03119  0.65389  0.96400  Biso   1.000  O
  O9       1.0000 0.00831  0.68867  0.54750  Biso   1.000  O
  O10      1.0000 0.11050  0.65776  0.50420  Biso   1.000  O
  O11      1.0000 0.24420  0.00207  0.83550  Biso   1.000  O
  O12      1.0000 0.25590  0.94981  0.95740  Biso   1.000  O
  O13      1.0000 0.33620  0.02490  0.37940  Biso   1.000  O
  O14      1.0000 0.29480  0.98030  0.49090  Biso   1.000  O
  O15      1.0000 0.40441  0.71830  0.58830  Biso   1.000  O
  O16      1.0000 0.45852  0.75920  0.77670  Biso   1.000  O
  O17      1.0000 0.39860  0.18468  0.74410  Biso   1.000  O
  O18      1.0000 0.33674  0.16844  0.51920  Biso   1.000  O
  C1       1.0000 0.48920  0.85727  0.84110  Biso   1.000  C
  C2       1.0000 0.45910  0.90112  0.81380  Biso   1.000  C
  C3       1.0000 0.49990  0.92620  0.73880  Biso   1.000  C
  H3       1.0000 0.54460  0.91560  0.70300  Biso   1.000  H
  C4       1.0000 0.47450  0.96697  0.71660  Biso   1.000  C
  H4       1.0000 0.50630  0.98380  0.67220  Biso   1.000  H
  C5       1.0000 0.40390  0.98393  0.75760  Biso   1.000  C
  C6       1.0000 0.36620  0.95834  0.83450  Biso   1.000  C
  C7       1.0000 0.39160  0.91781  0.86350  Biso   1.000  C
  H5       1.0000 0.36370  0.90180  0.91600  Biso   1.000  H
  C8       1.0000 0.38300  0.02849  0.73090  Biso   1.000  C
  C9       1.0000 0.34260  0.04471  0.59830  Biso   1.000  C
  C10      1.0000 0.33600  0.08632  0.57210  Biso   1.000  C
  H6       1.0000 0.30820  0.09580  0.48150  Biso   1.000  H
  C11      1.0000 0.37010  0.11392  0.67800  Biso   1.000  C
  C12      1.0000 0.40920  0.09864  0.81000  Biso   1.000  C
  H7       1.0000 0.43190  0.11680  0.88430  Biso   1.000  H
  C13      1.0000 0.41540  0.05667  0.83460  Biso   1.000  C
  H8       1.0000 0.44270  0.04740  0.92550  Biso   1.000  H
  C14      1.0000 0.36900  0.15924  0.64870  Biso   1.000  C
  C15      1.0000 0.77350  0.75367  0.83930  Biso   1.000  C
  C16      1.0000 0.86350  0.75126  0.81310  Biso   1.000  C
  C17      1.0000 0.91950  0.71809  0.86520  Biso   1.000  C
  H9       1.0000 0.90050  0.69770  0.91560  Biso   1.000  H
  C18      1.0000 0.00410  0.71521  0.84250  Biso   1.000  C
  C19      1.0000 0.03550  0.74446  0.76600  Biso   1.000  C
  C20      1.0000 0.97800  0.77843  0.71870  Biso   1.000  C
  H10      1.0000 0.99730  0.79940  0.67100  Biso   1.000  H
  C21      1.0000 0.89360  0.78167  0.74080  Biso   1.000  C
  H11      1.0000 0.85670  0.80450  0.70700  Biso   1.000  H
  C22      1.0000 0.12480  0.74261  0.73630  Biso   1.000  C
  C23      1.0000 0.18750  0.77354  0.78850  Biso   1.000  C
  H12      1.0000 0.17040  0.79560  0.83440  Biso   1.000  H
  C24      1.0000 0.27610  0.77318  0.77530  Biso   1.000  C
  H13      1.0000 0.31740  0.79410  0.81420  Biso   1.000  H
  C25      1.0000 0.30100  0.74120  0.70370  Biso   1.000  C
  C26      1.0000 0.23780  0.71079  0.64350  Biso   1.000  C
  H14      1.0000 0.25380  0.68980  0.59210  Biso   1.000  H
  C27      1.0000 0.15210  0.71150  0.65920  Biso   1.000  C
  C28      1.0000 0.39600  0.73949  0.68930  Biso   1.000  C
  N1       1.0000 0.29150  0.97287  0.89419  Biso   1.000  N
  N2       1.0000 0.06230  0.68118  0.90620  Biso   1.000  N
  N3       1.0000 0.08790  0.67917  0.58620  Biso   1.000  N
  N4       1.0000 0.30807  0.01687  0.47620  Biso   1.000  N
  O19      1.0000 0.10200  0.65911  0.84450  Biso   1.000  O
  O20      1.0000 0.00970  0.67700  0.59150  Biso   1.000  O
  O21      1.0000 0.12330  0.64673  0.57610  Biso   1.000  O
  O22      1.0000 0.31460  0.96770  0.01979  Biso   1.000  O
  O23      1.0000 0.28650  0.02990  0.35660  Biso   1.000  O
  O24      1.0000 0.26326  0.98888  0.50430  Biso   1.000  O
  Cu4      1.0000 0.34341  0.22676  0.49903  Biso   1.000  Cu
  Cu5      1.0000 0.48932  0.28568  0.47354  Biso   1.000  Cu
  Cu6      1.0000 0.41734  0.28383  0.73571  Biso   1.000  Cu
  O25      1.0000 0.37888  0.28450  0.53210  Biso   1.000  O
  H15      1.0000 0.33790  0.30210  0.49310  Biso   1.000  H
  O26      1.0000 0.46800  0.34272  0.73620  Biso   1.000  O
  O27      1.0000 0.53177  0.33957  0.56050  Biso   1.000  O
  O28      1.0000 0.29019  0.27399  0.74530  Biso   1.000  O
  O29      1.0000 0.23332  0.23468  0.55410  Biso   1.000  O
  O30      1.0000 0.45351  0.22613  0.43410  Biso   1.000  O
  H16      1.0000 0.49450  0.20950  0.48020  Biso   1.000  H
  O31      1.0000 0.85551  0.18800  0.54930  Biso   1.000  O
  O32      1.0000 0.96881  0.15389  0.53600  Biso   1.000  O
  O33      1.0000 0.99169  0.18867  0.95250  Biso   1.000  O
  O34      1.0000 0.88950  0.15776  0.99580  Biso   1.000  O
  O35      1.0000 0.75580  0.50207  0.66450  Biso   1.000  O
  O36      1.0000 0.74410  0.44981  0.54260  Biso   1.000  O
  O37      1.0000 0.66380  0.52490  0.12060  Biso   1.000  O
  O38      1.0000 0.70520  0.48030  0.00910  Biso   1.000  O
  O39      1.0000 0.59559  0.21830  0.91170  Biso   1.000  O
  O40      1.0000 0.54148  0.25920  0.72330  Biso   1.000  O
  O41      1.0000 0.60140  0.68468  0.75590  Biso   1.000  O
  O42      1.0000 0.66326  0.66844  0.98080  Biso   1.000  O
  C29      1.0000 0.51080  0.35727  0.65890  Biso   1.000  C
  C30      1.0000 0.54090  0.40112  0.68620  Biso   1.000  C
  C31      1.0000 0.50010  0.42620  0.76120  Biso   1.000  C
  H17      1.0000 0.45540  0.41560  0.79700  Biso   1.000  H
  C32      1.0000 0.52550  0.46697  0.78340  Biso   1.000  C
  H18      1.0000 0.49370  0.48380  0.82780  Biso   1.000  H
  C33      1.0000 0.59610  0.48393  0.74240  Biso   1.000  C
  C34      1.0000 0.63380  0.45834  0.66550  Biso   1.000  C
  C35      1.0000 0.60840  0.41781  0.63650  Biso   1.000  C
  H19      1.0000 0.63630  0.40180  0.58400  Biso   1.000  H
  C36      1.0000 0.61700  0.52849  0.76910  Biso   1.000  C
  C37      1.0000 0.65740  0.54471  0.90170  Biso   1.000  C
  C38      1.0000 0.66400  0.58632  0.92790  Biso   1.000  C
  H20      1.0000 0.69180  0.59580  0.01850  Biso   1.000  H
  C39      1.0000 0.62990  0.61392  0.82200  Biso   1.000  C
  C40      1.0000 0.59080  0.59864  0.69000  Biso   1.000  C
  H21      1.0000 0.56810  0.61680  0.61570  Biso   1.000  H
  C41      1.0000 0.58460  0.55667  0.66540  Biso   1.000  C
  H22      1.0000 0.55730  0.54740  0.57450  Biso   1.000  H
  C42      1.0000 0.63100  0.65924  0.85130  Biso   1.000  C
  C43      1.0000 0.22650  0.25367  0.66070  Biso   1.000  C
  C44      1.0000 0.13650  0.25126  0.68690  Biso   1.000  C
  C45      1.0000 0.08050  0.21809  0.63480  Biso   1.000  C
  H23      1.0000 0.09950  0.19770  0.58440  Biso   1.000  H
  C46      1.0000 0.99590  0.21521  0.65750  Biso   1.000  C
  C47      1.0000 0.96450  0.24446  0.73400  Biso   1.000  C
  C48      1.0000 0.02200  0.27843  0.78130  Biso   1.000  C
  H24      1.0000 0.00270  0.29940  0.82900  Biso   1.000  H
  C49      1.0000 0.10640  0.28167  0.75920  Biso   1.000  C
  H25      1.0000 0.14330  0.30450  0.79300  Biso   1.000  H
  C50      1.0000 0.87520  0.24261  0.76370  Biso   1.000  C
  C51      1.0000 0.81250  0.27354  0.71150  Biso   1.000  C
  H26      1.0000 0.82960  0.29560  0.66560  Biso   1.000  H
  C52      1.0000 0.72390  0.27318  0.72470  Biso   1.000  C
  H27      1.0000 0.68260  0.29410  0.68580  Biso   1.000  H
  C53      1.0000 0.69900  0.24120  0.79630  Biso   1.000  C
  C54      1.0000 0.76220  0.21079  0.85650  Biso   1.000  C
  H28      1.0000 0.74620  0.18980  0.90790  Biso   1.000  H
  C55      1.0000 0.84790  0.21150  0.84080  Biso   1.000  C
  C56      1.0000 0.60400  0.23949  0.81070  Biso   1.000  C
  N5       1.0000 0.70850  0.47287  0.60581  Biso   1.000  N
  N6       1.0000 0.93770  0.18118  0.59380  Biso   1.000  N
  N7       1.0000 0.91210  0.17917  0.91380  Biso   1.000  N
  N8       1.0000 0.69193  0.51687  0.02380  Biso   1.000  N
  O43      1.0000 0.89800  0.15911  0.65550  Biso   1.000  O
  O44      1.0000 0.99030  0.17700  0.90850  Biso   1.000  O
  O45      1.0000 0.87670  0.14673  0.92390  Biso   1.000  O
  O46      1.0000 0.68540  0.46770  0.48021  Biso   1.000  O
  O47      1.0000 0.71350  0.52990  0.14340  Biso   1.000  O
  O48      1.0000 0.73674  0.48888  0.99570  Biso   1.000  O
  Cu7      1.0000 0.34341  0.27324  0.99903  Biso   1.000  Cu
  Cu8      1.0000 0.48932  0.21432  0.97354  Biso   1.000  Cu
  Cu9      1.0000 0.41734  0.21617  0.23571  Biso   1.000  Cu
  O49      1.0000 0.37888  0.21550  0.03210  Biso   1.000  O
  H29      1.0000 0.33790  0.19790  0.99310  Biso   1.000  H
  O50      1.0000 0.46800  0.15728  0.23620  Biso   1.000  O
  O51      1.0000 0.53177  0.16043  0.06050  Biso   1.000  O
  O52      1.0000 0.29019  0.22601  0.24530  Biso   1.000  O
  O53      1.0000 0.23332  0.26532  0.05410  Biso   1.000  O
  O54      1.0000 0.45351  0.27387  0.93410  Biso   1.000  O
  H30      1.0000 0.49450  0.29050  0.98020  Biso   1.000  H
  O55      1.0000 0.85551  0.31200  0.04930  Biso   1.000  O
  O56      1.0000 0.96881  0.34611  0.03600  Biso   1.000  O
  O57      1.0000 0.99169  0.31133  0.45250  Biso   1.000  O
  O58      1.0000 0.88950  0.34224  0.49580  Biso   1.000  O
  O59      1.0000 0.75580  0.99793  0.16450  Biso   1.000  O
  O60      1.0000 0.74410  0.05019  0.04260  Biso   1.000  O
  O61      1.0000 0.66380  0.97510  0.62060  Biso   1.000  O
  O62      1.0000 0.70520  0.01970  0.50910  Biso   1.000  O
  O63      1.0000 0.59559  0.28170  0.41170  Biso   1.000  O
  O64      1.0000 0.54148  0.24080  0.22330  Biso   1.000  O
  O65      1.0000 0.60140  0.81532  0.25590  Biso   1.000  O
  O66      1.0000 0.66326  0.83156  0.48080  Biso   1.000  O
  C57      1.0000 0.51080  0.14273  0.15890  Biso   1.000  C
  C58      1.0000 0.54090  0.09888  0.18620  Biso   1.000  C
  C59      1.0000 0.50010  0.07380  0.26120  Biso   1.000  C
  H31      1.0000 0.45540  0.08440  0.29700  Biso   1.000  H
  C60      1.0000 0.52550  0.03303  0.28340  Biso   1.000  C
  H32      1.0000 0.49370  0.01620  0.32780  Biso   1.000  H
  C61      1.0000 0.59610  0.01607  0.24240  Biso   1.000  C
  C62      1.0000 0.63380  0.04166  0.16550  Biso   1.000  C
  C63      1.0000 0.60840  0.08219  0.13650  Biso   1.000  C
  H33      1.0000 0.63630  0.09820  0.08400  Biso   1.000  H
  C64      1.0000 0.61700  0.97151  0.26910  Biso   1.000  C
  C65      1.0000 0.65740  0.95529  0.40170  Biso   1.000  C
  C66      1.0000 0.66400  0.91368  0.42790  Biso   1.000  C
  H34      1.0000 0.69180  0.90420  0.51850  Biso   1.000  H
  C67      1.0000 0.62990  0.88608  0.32200  Biso   1.000  C
  C68      1.0000 0.59080  0.90136  0.19000  Biso   1.000  C
  H35      1.0000 0.56810  0.88320  0.11570  Biso   1.000  H
  C69      1.0000 0.58460  0.94333  0.16540  Biso   1.000  C
  H36      1.0000 0.55730  0.95260  0.07450  Biso   1.000  H
  C70      1.0000 0.63100  0.84076  0.35130  Biso   1.000  C
  C71      1.0000 0.22650  0.24633  0.16070  Biso   1.000  C
  C72      1.0000 0.13650  0.24874  0.18690  Biso   1.000  C
  C73      1.0000 0.08050  0.28191  0.13480  Biso   1.000  C
  H37      1.0000 0.09950  0.30230  0.08440  Biso   1.000  H
  C74      1.0000 0.99590  0.28479  0.15750  Biso   1.000  C
  C75      1.0000 0.96450  0.25554  0.23400  Biso   1.000  C
  C76      1.0000 0.02200  0.22157  0.28130  Biso   1.000  C
  H38      1.0000 0.00270  0.20060  0.32900  Biso   1.000  H
  C77      1.0000 0.10640  0.21833  0.25920  Biso   1.000  C
  H39      1.0000 0.14330  0.19550  0.29300  Biso   1.000  H
  C78      1.0000 0.87520  0.25739  0.26370  Biso   1.000  C
  C79      1.0000 0.81250  0.22646  0.21150  Biso   1.000  C
  H40      1.0000 0.82960  0.20440  0.16560  Biso   1.000  H
  C80      1.0000 0.72390  0.22682  0.22470  Biso   1.000  C
  H41      1.0000 0.68260  0.20590  0.18580  Biso   1.000  H
  C81      1.0000 0.69900  0.25880  0.29630  Biso   1.000  C
  C82      1.0000 0.76220  0.28921  0.35650  Biso   1.000  C
  H42      1.0000 0.74620  0.31020  0.40790  Biso   1.000  H
  C83      1.0000 0.84790  0.28850  0.34080  Biso   1.000  C
  C84      1.0000 0.60400  0.26051  0.31070  Biso   1.000  C
  N9       1.0000 0.70850  0.02713  0.10581  Biso   1.000  N
  N10      1.0000 0.93770  0.31882  0.09380  Biso   1.000  N
  N11      1.0000 0.91210  0.32083  0.41380  Biso   1.000  N
  N12      1.0000 0.69193  0.98313  0.52380  Biso   1.000  N
  O67      1.0000 0.89800  0.34089  0.15550  Biso   1.000  O
  O68      1.0000 0.99030  0.32300  0.40850  Biso   1.000  O
  O69      1.0000 0.87670  0.35327  0.42390  Biso   1.000  O
  O70      1.0000 0.68540  0.03230  0.98021  Biso   1.000  O
  O71      1.0000 0.71350  0.97010  0.64340  Biso   1.000  O
  O72      1.0000 0.73674  0.01112  0.49570  Biso   1.000  O
  Cu10     1.0000 0.65659  0.77324  0.50097  Biso   1.000  Cu
  Cu11     1.0000 0.51068  0.71432  0.52646  Biso   1.000  Cu
  Cu12     1.0000 0.58266  0.71617  0.26429  Biso   1.000  Cu
  O73      1.0000 0.62112  0.71550  0.46790  Biso   1.000  O
  H43      1.0000 0.66210  0.69790  0.50690  Biso   1.000  H
  O74      1.0000 0.53200  0.65728  0.26380  Biso   1.000  O
  O75      1.0000 0.46823  0.66043  0.43950  Biso   1.000  O
  O76      1.0000 0.70981  0.72601  0.25470  Biso   1.000  O
  O77      1.0000 0.76668  0.76532  0.44590  Biso   1.000  O
  O78      1.0000 0.54649  0.77387  0.56590  Biso   1.000  O
  H44      1.0000 0.50550  0.79050  0.51980  Biso   1.000  H
  O79      1.0000 0.14449  0.81200  0.45070  Biso   1.000  O
  O80      1.0000 0.03119  0.84611  0.46400  Biso   1.000  O
  O81      1.0000 0.00831  0.81133  0.04750  Biso   1.000  O
  O82      1.0000 0.11050  0.84224  0.00420  Biso   1.000  O
  O83      1.0000 0.24420  0.49793  0.33550  Biso   1.000  O
  O84      1.0000 0.25590  0.55019  0.45740  Biso   1.000  O
  O85      1.0000 0.33620  0.47510  0.87940  Biso   1.000  O
  O86      1.0000 0.29480  0.51970  0.99090  Biso   1.000  O
  O87      1.0000 0.40441  0.78170  0.08830  Biso   1.000  O
  O88      1.0000 0.45852  0.74080  0.27670  Biso   1.000  O
  O89      1.0000 0.39860  0.31532  0.24410  Biso   1.000  O
  O90      1.0000 0.33674  0.33156  0.01920  Biso   1.000  O
  C85      1.0000 0.48920  0.64273  0.34110  Biso   1.000  C
  C86      1.0000 0.45910  0.59888  0.31380  Biso   1.000  C
  C87      1.0000 0.49990  0.57380  0.23880  Biso   1.000  C
  H45      1.0000 0.54460  0.58440  0.20300  Biso   1.000  H
  C88      1.0000 0.47450  0.53303  0.21660  Biso   1.000  C
  H46      1.0000 0.50630  0.51620  0.17220  Biso   1.000  H
  C89      1.0000 0.40390  0.51607  0.25760  Biso   1.000  C
  C90      1.0000 0.36620  0.54166  0.33450  Biso   1.000  C
  C91      1.0000 0.39160  0.58219  0.36350  Biso   1.000  C
  H47      1.0000 0.36370  0.59820  0.41600  Biso   1.000  H
  C92      1.0000 0.38300  0.47151  0.23090  Biso   1.000  C
  C93      1.0000 0.34260  0.45529  0.09830  Biso   1.000  C
  C94      1.0000 0.33600  0.41368  0.07210  Biso   1.000  C
  H48      1.0000 0.30820  0.40420  0.98150  Biso   1.000  H
  C95      1.0000 0.37010  0.38608  0.17800  Biso   1.000  C
  C96      1.0000 0.40920  0.40136  0.31000  Biso   1.000  C
  H49      1.0000 0.43190  0.38320  0.38430  Biso   1.000  H
  C97      1.0000 0.41540  0.44333  0.33460  Biso   1.000  C
  H50      1.0000 0.44270  0.45260  0.42550  Biso   1.000  H
  C98      1.0000 0.36900  0.34076  0.14870  Biso   1.000  C
  C99      1.0000 0.77350  0.74633  0.33930  Biso   1.000  C
  C100     1.0000 0.86350  0.74874  0.31310  Biso   1.000  C
  C101     1.0000 0.91950  0.78191  0.36520  Biso   1.000  C
  H51      1.0000 0.90050  0.80230  0.41560  Biso   1.000  H
  C102     1.0000 0.00410  0.78479  0.34250  Biso   1.000  C
  C103     1.0000 0.03550  0.75554  0.26600  Biso   1.000  C
  C104     1.0000 0.97800  0.72157  0.21870  Biso   1.000  C
  H52      1.0000 0.99730  0.70060  0.17100  Biso   1.000  H
  C105     1.0000 0.89360  0.71833  0.24080  Biso   1.000  C
  H53      1.0000 0.85670  0.69550  0.20700  Biso   1.000  H
  C106     1.0000 0.12480  0.75739  0.23630  Biso   1.000  C
  C107     1.0000 0.18750  0.72646  0.28850  Biso   1.000  C
  H54      1.0000 0.17040  0.70440  0.33440  Biso   1.000  H
  C108     1.0000 0.27610  0.72682  0.27530  Biso   1.000  C
  H55      1.0000 0.31740  0.70590  0.31420  Biso   1.000  H
  C109     1.0000 0.30100  0.75880  0.20370  Biso   1.000  C
  C110     1.0000 0.23780  0.78921  0.14350  Biso   1.000  C
  H56      1.0000 0.25380  0.81020  0.09210  Biso   1.000  H
  C111     1.0000 0.15210  0.78850  0.15920  Biso   1.000  C
  C112     1.0000 0.39600  0.76051  0.18930  Biso   1.000  C
  N13      1.0000 0.29150  0.52713  0.39419  Biso   1.000  N
  N14      1.0000 0.06230  0.81882  0.40620  Biso   1.000  N
  N15      1.0000 0.08790  0.82083  0.08620  Biso   1.000  N
  N16      1.0000 0.30807  0.48313  0.97620  Biso   1.000  N
  O91      1.0000 0.10200  0.84089  0.34450  Biso   1.000  O
  O92      1.0000 0.00970  0.82300  0.09150  Biso   1.000  O
  O93      1.0000 0.12330  0.85327  0.07610  Biso   1.000  O
  O94      1.0000 0.31460  0.53230  0.51979  Biso   1.000  O
  O95      1.0000 0.28650  0.47010  0.85660  Biso   1.000  O
  O96      1.0000 0.26326  0.51112  0.00430  Biso   1.000  O
