data_image0
_cell_length_a       15.317
_cell_length_b       32.467
_cell_length_c       10.015
_cell_angle_alpha    90
_cell_angle_beta     107.51
_cell_angle_gamma    90

_symmetry_space_group_name_H-M    "P 1"
_symmetry_int_tables_number       1

loop_
  _symmetry_equiv_pos_as_xyz
  'x, y, z'

loop_
  _atom_site_label
  _atom_site_occupancy
  _atom_site_fract_x
  _atom_site_fract_y
  _atom_site_fract_z
  _atom_site_thermal_displace_type
  _atom_site_B_iso_or_equiv
  _atom_site_type_symbol
  Cu1      1.0000 0.65443  0.72672  0.00032  Biso   1.000  Cu
  Cu2      1.0000 0.50863  0.78565  0.02590  Biso   1.000  Cu
  Cu3      1.0000 0.58059  0.78382  0.76377  Biso   1.000  Cu
  O1       1.0000 0.61860  0.78446  0.96650  Biso   1.000  O
  H1       1.0000 0.65960  0.80200  0.00530  Biso   1.000  H
  O2       1.0000 0.52950  0.84270  0.76320  Biso   1.000  O
  O3       1.0000 0.46580  0.83957  0.93920  Biso   1.000  O
  O4       1.0000 0.70820  0.77411  0.75400  Biso   1.000  O
  O5       1.0000 0.76460  0.73478  0.94520  Biso   1.000  O
  O6       1.0000 0.54480  0.72619  0.06580  Biso   1.000  O
  H2       1.0000 0.50390  0.70960  0.01980  Biso   1.000  H
  O7       1.0000 0.09580  0.65790  0.84300  Biso   1.000  O
  O8       1.0000 0.02770  0.65440  0.96070  Biso   1.000  O
  O9       1.0000 0.10940  0.65660  0.50540  Biso   1.000  O
  O10      1.0000 0.00450  0.68440  0.56370  Biso   1.000  O
  O11      1.0000 0.31340  0.96810  0.01110  Biso   1.000  O
  O12      1.0000 0.23380  0.99700  0.80690  Biso   1.000  O
  O13      1.0000 0.33090  0.02710  0.37220  Biso   1.000  O
  O14      1.0000 0.29020  0.98100  0.48710  Biso   1.000  O
  O15      1.0000 0.40220  0.71842  0.58760  Biso   1.000  O
  O16      1.0000 0.45610  0.75955  0.77560  Biso   1.000  O
  O17      1.0000 0.40020  0.18477  0.74420  Biso   1.000  O
  O18      1.0000 0.33800  0.16861  0.51990  Biso   1.000  O
  C1       1.0000 0.48670  0.85720  0.84050  Biso   1.000  C
  C2       1.0000 0.45740  0.90124  0.81380  Biso   1.000  C
  C3       1.0000 0.49810  0.92630  0.73840  Biso   1.000  C
  H3       1.0000 0.54240  0.91550  0.70200  Biso   1.000  H
  C4       1.0000 0.47350  0.96690  0.71710  Biso   1.000  C
  H4       1.0000 0.50520  0.98360  0.67230  Biso   1.000  H
  C5       1.0000 0.40410  0.98384  0.75920  Biso   1.000  C
  C6       1.0000 0.36470  0.95890  0.83610  Biso   1.000  C
  C7       1.0000 0.39010  0.91796  0.86390  Biso   1.000  C
  H5       1.0000 0.36210  0.90180  0.91590  Biso   1.000  H
  C8       1.0000 0.38300  0.02898  0.73250  Biso   1.000  C
  C9       1.0000 0.34430  0.04497  0.59950  Biso   1.000  C
  C10      1.0000 0.33640  0.08666  0.57290  Biso   1.000  C
  H6       1.0000 0.30770  0.09620  0.48290  Biso   1.000  H
  C11      1.0000 0.37130  0.11384  0.68030  Biso   1.000  C
  C12      1.0000 0.40950  0.09860  0.80900  Biso   1.000  C
  H7       1.0000 0.43290  0.11670  0.88320  Biso   1.000  H
  C13      1.0000 0.41490  0.05650  0.83460  Biso   1.000  C
  H8       1.0000 0.44150  0.04720  0.92560  Biso   1.000  H
  C14      1.0000 0.37030  0.15934  0.64980  Biso   1.000  C
  C15      1.0000 0.77130  0.75340  0.83870  Biso   1.000  C
  C16      1.0000 0.86010  0.75134  0.81230  Biso   1.000  C
  C17      1.0000 0.91730  0.71770  0.86510  Biso   1.000  C
  H9       1.0000 0.89830  0.69720  0.91480  Biso   1.000  H
  C18      1.0000 0.00160  0.71510  0.84320  Biso   1.000  C
  C19      1.0000 0.03300  0.74440  0.76530  Biso   1.000  C
  C20      1.0000 0.97630  0.77790  0.71800  Biso   1.000  C
  H10      1.0000 0.99580  0.79850  0.66940  Biso   1.000  H
  C21      1.0000 0.89190  0.78187  0.73990  Biso   1.000  C
  H11      1.0000 0.85610  0.80500  0.70650  Biso   1.000  H
  C22      1.0000 0.12320  0.74270  0.73530  Biso   1.000  C
  C23      1.0000 0.18600  0.77350  0.78850  Biso   1.000  C
  H12      1.0000 0.16880  0.79550  0.83450  Biso   1.000  H
  C24      1.0000 0.27350  0.77290  0.77620  Biso   1.000  C
  H13      1.0000 0.31500  0.79360  0.81630  Biso   1.000  H
  C25      1.0000 0.29850  0.74106  0.70350  Biso   1.000  C
  C26      1.0000 0.23580  0.71104  0.64290  Biso   1.000  C
  H14      1.0000 0.25220  0.69010  0.59160  Biso   1.000  H
  C27      1.0000 0.15020  0.71150  0.65690  Biso   1.000  C
  C28      1.0000 0.39360  0.73946  0.68880  Biso   1.000  C
  N1       1.0000 0.28740  0.97350  0.88340  Biso   1.000  N
  N2       1.0000 0.06020  0.68150  0.90630  Biso   1.000  N
  N3       1.0000 0.08590  0.67950  0.58570  Biso   1.000  N
  N4       1.0000 0.30870  0.01700  0.47500  Biso   1.000  N
  O19      1.0000 0.14250  0.68790  0.95050  Biso   1.000  O
  O20      1.0000 0.11980  0.64590  0.57500  Biso   1.000  O
  O21      1.0000 0.25080  0.94950  0.94500  Biso   1.000  O
  O22      1.0000 0.25840  0.00830  0.87670  Biso   1.000  O
  O23      1.0000 0.26320  0.03220  0.36530  Biso   1.000  O
  O24      1.0000 0.26200  0.99050  0.50500  Biso   1.000  O
  Cu4      1.0000 0.34557  0.22672  0.49968  Biso   1.000  Cu
  Cu5      1.0000 0.49137  0.28565  0.47410  Biso   1.000  Cu
  Cu6      1.0000 0.41941  0.28382  0.73623  Biso   1.000  Cu
  O25      1.0000 0.38140  0.28446  0.53350  Biso   1.000  O
  H15      1.0000 0.34040  0.30200  0.49470  Biso   1.000  H
  O26      1.0000 0.47050  0.34270  0.73680  Biso   1.000  O
  O27      1.0000 0.53420  0.33957  0.56080  Biso   1.000  O
  O28      1.0000 0.29180  0.27411  0.74600  Biso   1.000  O
  O29      1.0000 0.23540  0.23478  0.55480  Biso   1.000  O
  O30      1.0000 0.45520  0.22619  0.43420  Biso   1.000  O
  H16      1.0000 0.49610  0.20960  0.48020  Biso   1.000  H
  O31      1.0000 0.90420  0.15790  0.65700  Biso   1.000  O
  O32      1.0000 0.97230  0.15440  0.53930  Biso   1.000  O
  O33      1.0000 0.89060  0.15660  0.99460  Biso   1.000  O
  O34      1.0000 0.99550  0.18440  0.93630  Biso   1.000  O
  O35      1.0000 0.68660  0.46810  0.48890  Biso   1.000  O
  O36      1.0000 0.76620  0.49700  0.69310  Biso   1.000  O
  O37      1.0000 0.66910  0.52710  0.12780  Biso   1.000  O
  O38      1.0000 0.70980  0.48100  0.01290  Biso   1.000  O
  O39      1.0000 0.59780  0.21842  0.91240  Biso   1.000  O
  O40      1.0000 0.54390  0.25955  0.72440  Biso   1.000  O
  O41      1.0000 0.59980  0.68477  0.75580  Biso   1.000  O
  O42      1.0000 0.66200  0.66861  0.98010  Biso   1.000  O
  C29      1.0000 0.51330  0.35720  0.65950  Biso   1.000  C
  C30      1.0000 0.54260  0.40124  0.68620  Biso   1.000  C
  C31      1.0000 0.50190  0.42630  0.76160  Biso   1.000  C
  H17      1.0000 0.45760  0.41550  0.79800  Biso   1.000  H
  C32      1.0000 0.52650  0.46690  0.78290  Biso   1.000  C
  H18      1.0000 0.49480  0.48360  0.82770  Biso   1.000  H
  C33      1.0000 0.59590  0.48384  0.74080  Biso   1.000  C
  C34      1.0000 0.63530  0.45890  0.66390  Biso   1.000  C
  C35      1.0000 0.60990  0.41796  0.63610  Biso   1.000  C
  H19      1.0000 0.63790  0.40180  0.58410  Biso   1.000  H
  C36      1.0000 0.61700  0.52898  0.76750  Biso   1.000  C
  C37      1.0000 0.65570  0.54497  0.90050  Biso   1.000  C
  C38      1.0000 0.66360  0.58666  0.92710  Biso   1.000  C
  H20      1.0000 0.69230  0.59620  0.01710  Biso   1.000  H
  C39      1.0000 0.62870  0.61384  0.81970  Biso   1.000  C
  C40      1.0000 0.59050  0.59860  0.69100  Biso   1.000  C
  H21      1.0000 0.56710  0.61670  0.61680  Biso   1.000  H
  C41      1.0000 0.58510  0.55650  0.66540  Biso   1.000  C
  H22      1.0000 0.55850  0.54720  0.57440  Biso   1.000  H
  C42      1.0000 0.62970  0.65934  0.85020  Biso   1.000  C
  C43      1.0000 0.22870  0.25340  0.66130  Biso   1.000  C
  C44      1.0000 0.13990  0.25134  0.68770  Biso   1.000  C
  C45      1.0000 0.08270  0.21770  0.63490  Biso   1.000  C
  H23      1.0000 0.10170  0.19720  0.58520  Biso   1.000  H
  C46      1.0000 0.99840  0.21510  0.65680  Biso   1.000  C
  C47      1.0000 0.96700  0.24440  0.73470  Biso   1.000  C
  C48      1.0000 0.02370  0.27790  0.78200  Biso   1.000  C
  H24      1.0000 0.00420  0.29850  0.83060  Biso   1.000  H
  C49      1.0000 0.10810  0.28187  0.76010  Biso   1.000  C
  H25      1.0000 0.14390  0.30500  0.79350  Biso   1.000  H
  C50      1.0000 0.87680  0.24270  0.76470  Biso   1.000  C
  C51      1.0000 0.81400  0.27350  0.71150  Biso   1.000  C
  H26      1.0000 0.83120  0.29550  0.66550  Biso   1.000  H
  C52      1.0000 0.72650  0.27290  0.72380  Biso   1.000  C
  H27      1.0000 0.68500  0.29360  0.68370  Biso   1.000  H
  C53      1.0000 0.70150  0.24106  0.79650  Biso   1.000  C
  C54      1.0000 0.76420  0.21104  0.85710  Biso   1.000  C
  H28      1.0000 0.74780  0.19010  0.90840  Biso   1.000  H
  C55      1.0000 0.84980  0.21150  0.84310  Biso   1.000  C
  C56      1.0000 0.60640  0.23946  0.81120  Biso   1.000  C
  N5       1.0000 0.71260  0.47350  0.61660  Biso   1.000  N
  N6       1.0000 0.93980  0.18150  0.59370  Biso   1.000  N
  N7       1.0000 0.91410  0.17950  0.91430  Biso   1.000  N
  N8       1.0000 0.69130  0.51700  0.02500  Biso   1.000  N
  O43      1.0000 0.85750  0.18790  0.54950  Biso   1.000  O
  O44      1.0000 0.88020  0.14590  0.92500  Biso   1.000  O
  O45      1.0000 0.74920  0.44950  0.55500  Biso   1.000  O
  O46      1.0000 0.74160  0.50830  0.62330  Biso   1.000  O
  O47      1.0000 0.73680  0.53220  0.13470  Biso   1.000  O
  O48      1.0000 0.73800  0.49050  0.99500  Biso   1.000  O
  Cu7      1.0000 0.34557  0.27328  0.99968  Biso   1.000  Cu
  Cu8      1.0000 0.49137  0.21435  0.97410  Biso   1.000  Cu
  Cu9      1.0000 0.41941  0.21618  0.23623  Biso   1.000  Cu
  O49      1.0000 0.38140  0.21554  0.03350  Biso   1.000  O
  H29      1.0000 0.34040  0.19800  0.99470  Biso   1.000  H
  O50      1.0000 0.47050  0.15730  0.23680  Biso   1.000  O
  O51      1.0000 0.53420  0.16043  0.06080  Biso   1.000  O
  O52      1.0000 0.29180  0.22589  0.24600  Biso   1.000  O
  O53      1.0000 0.23540  0.26522  0.05480  Biso   1.000  O
  O54      1.0000 0.45520  0.27381  0.93420  Biso   1.000  O
  H30      1.0000 0.49610  0.29040  0.98020  Biso   1.000  H
  O55      1.0000 0.90420  0.34210  0.15700  Biso   1.000  O
  O56      1.0000 0.97230  0.34560  0.03930  Biso   1.000  O
  O57      1.0000 0.89060  0.34340  0.49460  Biso   1.000  O
  O58      1.0000 0.99550  0.31560  0.43630  Biso   1.000  O
  O59      1.0000 0.68660  0.03190  0.98890  Biso   1.000  O
  O60      1.0000 0.76620  0.00300  0.19310  Biso   1.000  O
  O61      1.0000 0.66910  0.97290  0.62780  Biso   1.000  O
  O62      1.0000 0.70980  0.01900  0.51290  Biso   1.000  O
  O63      1.0000 0.59780  0.28158  0.41240  Biso   1.000  O
  O64      1.0000 0.54390  0.24045  0.22440  Biso   1.000  O
  O65      1.0000 0.59980  0.81523  0.25580  Biso   1.000  O
  O66      1.0000 0.66200  0.83139  0.48010  Biso   1.000  O
  C57      1.0000 0.51330  0.14280  0.15950  Biso   1.000  C
  C58      1.0000 0.54260  0.09876  0.18620  Biso   1.000  C
  C59      1.0000 0.50190  0.07370  0.26160  Biso   1.000  C
  H31      1.0000 0.45760  0.08450  0.29800  Biso   1.000  H
  C60      1.0000 0.52650  0.03310  0.28290  Biso   1.000  C
  H32      1.0000 0.49480  0.01640  0.32770  Biso   1.000  H
  C61      1.0000 0.59590  0.01616  0.24080  Biso   1.000  C
  C62      1.0000 0.63530  0.04110  0.16390  Biso   1.000  C
  C63      1.0000 0.60990  0.08204  0.13610  Biso   1.000  C
  H33      1.0000 0.63790  0.09820  0.08410  Biso   1.000  H
  C64      1.0000 0.61700  0.97102  0.26750  Biso   1.000  C
  C65      1.0000 0.65570  0.95503  0.40050  Biso   1.000  C
  C66      1.0000 0.66360  0.91334  0.42710  Biso   1.000  C
  H34      1.0000 0.69230  0.90380  0.51710  Biso   1.000  H
  C67      1.0000 0.62870  0.88616  0.31970  Biso   1.000  C
  C68      1.0000 0.59050  0.90140  0.19100  Biso   1.000  C
  H35      1.0000 0.56710  0.88330  0.11680  Biso   1.000  H
  C69      1.0000 0.58510  0.94350  0.16540  Biso   1.000  C
  H36      1.0000 0.55850  0.95280  0.07440  Biso   1.000  H
  C70      1.0000 0.62970  0.84066  0.35020  Biso   1.000  C
  C71      1.0000 0.22870  0.24660  0.16130  Biso   1.000  C
  C72      1.0000 0.13990  0.24866  0.18770  Biso   1.000  C
  C73      1.0000 0.08270  0.28230  0.13490  Biso   1.000  C
  H37      1.0000 0.10170  0.30280  0.08520  Biso   1.000  H
  C74      1.0000 0.99840  0.28490  0.15680  Biso   1.000  C
  C75      1.0000 0.96700  0.25560  0.23470  Biso   1.000  C
  C76      1.0000 0.02370  0.22210  0.28200  Biso   1.000  C
  H38      1.0000 0.00420  0.20150  0.33060  Biso   1.000  H
  C77      1.0000 0.10810  0.21813  0.26010  Biso   1.000  C
  H39      1.0000 0.14390  0.19500  0.29350  Biso   1.000  H
  C78      1.0000 0.87680  0.25730  0.26470  Biso   1.000  C
  C79      1.0000 0.81400  0.22650  0.21150  Biso   1.000  C
  H40      1.0000 0.83120  0.20450  0.16550  Biso   1.000  H
  C80      1.0000 0.72650  0.22710  0.22380  Biso   1.000  C
  H41      1.0000 0.68500  0.20640  0.18370  Biso   1.000  H
  C81      1.0000 0.70150  0.25894  0.29650  Biso   1.000  C
  C82      1.0000 0.76420  0.28896  0.35710  Biso   1.000  C
  H42      1.0000 0.74780  0.30990  0.40840  Biso   1.000  H
  C83      1.0000 0.84980  0.28850  0.34310  Biso   1.000  C
  C84      1.0000 0.60640  0.26054  0.31120  Biso   1.000  C
  N9       1.0000 0.71260  0.02650  0.11660  Biso   1.000  N
  N10      1.0000 0.93980  0.31850  0.09370  Biso   1.000  N
  N11      1.0000 0.91410  0.32050  0.41430  Biso   1.000  N
  N12      1.0000 0.69130  0.98300  0.52500  Biso   1.000  N
  O67      1.0000 0.85750  0.31210  0.04950  Biso   1.000  O
  O68      1.0000 0.88020  0.35410  0.42500  Biso   1.000  O
  O69      1.0000 0.74920  0.05050  0.05500  Biso   1.000  O
  O70      1.0000 0.74160  0.99170  0.12330  Biso   1.000  O
  O71      1.0000 0.73680  0.96780  0.63470  Biso   1.000  O
  O72      1.0000 0.73800  0.00950  0.49500  Biso   1.000  O
  Cu10     1.0000 0.65443  0.77328  0.50032  Biso   1.000  Cu
  Cu11     1.0000 0.50863  0.71435  0.52590  Biso   1.000  Cu
  Cu12     1.0000 0.58059  0.71618  0.26377  Biso   1.000  Cu
  O73      1.0000 0.61860  0.71554  0.46650  Biso   1.000  O
  H43      1.0000 0.65960  0.69800  0.50530  Biso   1.000  H
  O74      1.0000 0.52950  0.65730  0.26320  Biso   1.000  O
  O75      1.0000 0.46580  0.66043  0.43920  Biso   1.000  O
  O76      1.0000 0.70820  0.72589  0.25400  Biso   1.000  O
  O77      1.0000 0.76460  0.76522  0.44520  Biso   1.000  O
  O78      1.0000 0.54480  0.77381  0.56580  Biso   1.000  O
  H44      1.0000 0.50390  0.79040  0.51980  Biso   1.000  H
  O79      1.0000 0.09580  0.84210  0.34300  Biso   1.000  O
  O80      1.0000 0.02770  0.84560  0.46070  Biso   1.000  O
  O81      1.0000 0.10940  0.84340  0.00540  Biso   1.000  O
  O82      1.0000 0.00450  0.81560  0.06370  Biso   1.000  O
  O83      1.0000 0.31340  0.53190  0.51110  Biso   1.000  O
  O84      1.0000 0.23380  0.50300  0.30690  Biso   1.000  O
  O85      1.0000 0.33090  0.47290  0.87220  Biso   1.000  O
  O86      1.0000 0.29020  0.51900  0.98710  Biso   1.000  O
  O87      1.0000 0.40220  0.78158  0.08760  Biso   1.000  O
  O88      1.0000 0.45610  0.74045  0.27560  Biso   1.000  O
  O89      1.0000 0.40020  0.31523  0.24420  Biso   1.000  O
  O90      1.0000 0.33800  0.33139  0.01990  Biso   1.000  O
  C85      1.0000 0.48670  0.64280  0.34050  Biso   1.000  C
  C86      1.0000 0.45740  0.59876  0.31380  Biso   1.000  C
  C87      1.0000 0.49810  0.57370  0.23840  Biso   1.000  C
  H45      1.0000 0.54240  0.58450  0.20200  Biso   1.000  H
  C88      1.0000 0.47350  0.53310  0.21710  Biso   1.000  C
  H46      1.0000 0.50520  0.51640  0.17230  Biso   1.000  H
  C89      1.0000 0.40410  0.51616  0.25920  Biso   1.000  C
  C90      1.0000 0.36470  0.54110  0.33610  Biso   1.000  C
  C91      1.0000 0.39010  0.58204  0.36390  Biso   1.000  C
  H47      1.0000 0.36210  0.59820  0.41590  Biso   1.000  H
  C92      1.0000 0.38300  0.47102  0.23250  Biso   1.000  C
  C93      1.0000 0.34430  0.45503  0.09950  Biso   1.000  C
  C94      1.0000 0.33640  0.41334  0.07290  Biso   1.000  C
  H48      1.0000 0.30770  0.40380  0.98290  Biso   1.000  H
  C95      1.0000 0.37130  0.38616  0.18030  Biso   1.000  C
  C96      1.0000 0.40950  0.40140  0.30900  Biso   1.000  C
  H49      1.0000 0.43290  0.38330  0.38320  Biso   1.000  H
  C97      1.0000 0.41490  0.44350  0.33460  Biso   1.000  C
  H50      1.0000 0.44150  0.45280  0.42560  Biso   1.000  H
  C98      1.0000 0.37030  0.34066  0.14980  Biso   1.000  C
  C99      1.0000 0.77130  0.74660  0.33870  Biso   1.000  C
  C100     1.0000 0.86010  0.74866  0.31230  Biso   1.000  C
  C101     1.0000 0.91730  0.78230  0.36510  Biso   1.000  C
  H51      1.0000 0.89830  0.80280  0.41480  Biso   1.000  H
  C102     1.0000 0.00160  0.78490  0.34320  Biso   1.000  C
  C103     1.0000 0.03300  0.75560  0.26530  Biso   1.000  C
  C104     1.0000 0.97630  0.72210  0.21800  Biso   1.000  C
  H52      1.0000 0.99580  0.70150  0.16940  Biso   1.000  H
  C105     1.0000 0.89190  0.71813  0.23990  Biso   1.000  C
  H53      1.0000 0.85610  0.69500  0.20650  Biso   1.000  H
  C106     1.0000 0.12320  0.75730  0.23530  Biso   1.000  C
  C107     1.0000 0.18600  0.72650  0.28850  Biso   1.000  C
  H54      1.0000 0.16880  0.70450  0.33450  Biso   1.000  H
  C108     1.0000 0.27350  0.72710  0.27620  Biso   1.000  C
  H55      1.0000 0.31500  0.70640  0.31630  Biso   1.000  H
  C109     1.0000 0.29850  0.75894  0.20350  Biso   1.000  C
  C110     1.0000 0.23580  0.78896  0.14290  Biso   1.000  C
  H56      1.0000 0.25220  0.80990  0.09160  Biso   1.000  H
  C111     1.0000 0.15020  0.78850  0.15690  Biso   1.000  C
  C112     1.0000 0.39360  0.76054  0.18880  Biso   1.000  C
  N13      1.0000 0.28740  0.52650  0.38340  Biso   1.000  N
  N14      1.0000 0.06020  0.81850  0.40630  Biso   1.000  N
  N15      1.0000 0.08590  0.82050  0.08570  Biso   1.000  N
  N16      1.0000 0.30870  0.48300  0.97500  Biso   1.000  N
  O91      1.0000 0.14250  0.81210  0.45050  Biso   1.000  O
  O92      1.0000 0.11980  0.85410  0.07500  Biso   1.000  O
  O93      1.0000 0.25080  0.55050  0.44500  Biso   1.000  O
  O94      1.0000 0.25840  0.49170  0.37670  Biso   1.000  O
  O95      1.0000 0.26320  0.46780  0.86530  Biso   1.000  O
  O96      1.0000 0.26200  0.50950  0.00500  Biso   1.000  O
