data_image0
_cell_length_a       15.418
_cell_length_b       34.135
_cell_length_c       10.1886
_cell_angle_alpha    90
_cell_angle_beta     105.446
_cell_angle_gamma    90

_symmetry_space_group_name_H-M    "P 1"
_symmetry_int_tables_number       1

loop_
  _symmetry_equiv_pos_as_xyz
  'x, y, z'

loop_
  _atom_site_label
  _atom_site_occupancy
  _atom_site_fract_x
  _atom_site_fract_y
  _atom_site_fract_z
  _atom_site_thermal_displace_type
  _atom_site_B_iso_or_equiv
  _atom_site_type_symbol
  Cu1      1.0000 0.08564  0.78123  0.31863  Biso   1.000  Cu
  Cu2      1.0000 0.93890  0.72370  0.33662  Biso   1.000  Cu
  Cu3      1.0000 0.01653  0.77986  0.58449  Biso   1.000  Cu
  O1       1.0000 0.04970  0.77368  0.77760  Biso   1.000  O
  H1       1.0000 0.08940  0.79010  0.81760  Biso   1.000  H
  O2       1.0000 0.97710  0.66470  0.10520  Biso   1.000  O
  O3       1.0000 0.91380  0.66874  0.27850  Biso   1.000  O
  O4       1.0000 0.13880  0.76263  0.56740  Biso   1.000  O
  O5       1.0000 0.18940  0.72334  0.74830  Biso   1.000  O
  O6       1.0000 0.97790  0.77855  0.38850  Biso   1.000  O
  H2       1.0000 0.93830  0.79570  0.35430  Biso   1.000  H
  O7       1.0000 0.44190  0.63800  0.69700  Biso   1.000  O
  O8       1.0000 0.55020  0.66260  0.70600  Biso   1.000  O
  O9       1.0000 0.44910  0.68180  0.36320  Biso   1.000  O
  O10      1.0000 0.57000  0.64310  0.39500  Biso   1.000  O
  O11      1.0000 0.78730  0.49700  0.31000  Biso   1.000  O
  O12      1.0000 0.73100  0.55070  0.31000  Biso   1.000  O
  O13      1.0000 0.10200  0.44220  0.24700  Biso   1.000  O
  O14      1.0000 0.07600  0.50120  0.25700  Biso   1.000  O
  O15      1.0000 0.83080  0.72585  0.39710  Biso   1.000  O
  O16      1.0000 0.88120  0.75969  0.59110  Biso   1.000  O
  O17      1.0000 0.77200  0.34710  0.03710  Biso   1.000  O
  O18      1.0000 0.90780  0.33674  0.16280  Biso   1.000  O
  C1       1.0000 0.93960  0.65066  0.18710  Biso   1.000  C
  C2       1.0000 0.92530  0.60730  0.17830  Biso   1.000  C
  C3       1.0000 0.97930  0.58450  0.12100  Biso   1.000  C
  C4       1.0000 0.96810  0.54460  0.11700  Biso   1.000  C
  C5       1.0000 0.90050  0.52600  0.15750  Biso   1.000  C
  C6       1.0000 0.85560  0.54830  0.23200  Biso   1.000  C
  C7       1.0000 0.86100  0.58980  0.23100  Biso   1.000  C
  C8       1.0000 0.88860  0.48280  0.14310  Biso   1.000  C
  C9       1.0000 0.95000  0.45730  0.20580  Biso   1.000  C
  C10      1.0000 0.93920  0.41680  0.18910  Biso   1.000  C
  H3       1.0000 0.98540  0.40010  0.23300  Biso   1.000  H
  C11      1.0000 0.86280  0.40220  0.11020  Biso   1.000  C
  C12      1.0000 0.79730  0.42680  0.03940  Biso   1.000  C
  H4       1.0000 0.74460  0.41700  0.98160  Biso   1.000  H
  C13      1.0000 0.81110  0.46730  0.05540  Biso   1.000  C
  C14      1.0000 0.84670  0.35770  0.10110  Biso   1.000  C
  C15      1.0000 0.19730  0.74200  0.64620  Biso   1.000  C
  C16      1.0000 0.28870  0.73860  0.61890  Biso   1.000  C
  C17      1.0000 0.34370  0.70790  0.67270  Biso   1.000  C
  H5       1.0000 0.32300  0.68870  0.72140  Biso   1.000  H
  C18      1.0000 0.42830  0.70510  0.65620  Biso   1.000  C
  C19      1.0000 0.46170  0.73350  0.58000  Biso   1.000  C
  C20      1.0000 0.40500  0.76390  0.52810  Biso   1.000  C
  H6       1.0000 0.42480  0.78310  0.47840  Biso   1.000  H
  C21      1.0000 0.31910  0.76730  0.54620  Biso   1.000  C
  H7       1.0000 0.28270  0.78850  0.51020  Biso   1.000  H
  C22      1.0000 0.55470  0.73320  0.55930  Biso   1.000  C
  C23      1.0000 0.61320  0.76330  0.61850  Biso   1.000  C
  H8       1.0000 0.59360  0.78220  0.67000  Biso   1.000  H
  C24      1.0000 0.69840  0.76600  0.60330  Biso   1.000  C
  H9       1.0000 0.73620  0.78610  0.64580  Biso   1.000  H
  C25      1.0000 0.72900  0.73870  0.52430  Biso   1.000  C
  C26      1.0000 0.67160  0.70930  0.46210  Biso   1.000  C
  H10      1.0000 0.69030  0.69100  0.40760  Biso   1.000  H
  C27      1.0000 0.58730  0.70690  0.48040  Biso   1.000  C
  C28      1.0000 0.82200  0.74153  0.50570  Biso   1.000  C
  N1       1.0000 0.78840  0.53120  0.29100  Biso   1.000  N
  N2       1.0000 0.48500  0.67390  0.72210  Biso   1.000  N
  N3       1.0000 0.52930  0.67620  0.40700  Biso   1.000  N
  N4       1.0000 0.04720  0.46750  0.26300  Biso   1.000  N
  O19      1.0000 0.46640  0.65480  0.80100  Biso   1.000  O
  O20      1.0000 0.56430  0.68320  0.78040  Biso   1.000  O
  O21      1.0000 0.47680  0.65840  0.45900  Biso   1.000  O
  O22      1.0000 0.54670  0.66110  0.30680  Biso   1.000  O
  O23      1.0000 0.84600  0.49740  0.38500  Biso   1.000  O
  O24      1.0000 0.92400  0.53790  0.51000  Biso   1.000  O
  O25      1.0000 0.69200  0.47600  0.84300  Biso   1.000  O
  O26      1.0000 0.72800  0.51920  0.98600  Biso   1.000  O
  C29      1.0000 0.92480  0.58790  0.05920  Biso   1.000  C
  C30      1.0000 0.91510  0.54760  0.04830  Biso   1.000  C
  C31      1.0000 0.90720  0.54520  0.27800  Biso   1.000  C
  C32      1.0000 0.91090  0.58660  0.28300  Biso   1.000  C
  N5       1.0000 0.87700  0.52870  0.39400  Biso   1.000  N
  N6       1.0000 0.74300  0.48650  0.95000  Biso   1.000  N
  Cu4      1.0000 0.91436  0.28123  0.18137  Biso   1.000  Cu
  Cu5      1.0000 0.06110  0.22370  0.16338  Biso   1.000  Cu
  Cu6      1.0000 0.98347  0.27986  0.91551  Biso   1.000  Cu
  O27      1.0000 0.95030  0.27368  0.72240  Biso   1.000  O
  H11      1.0000 0.91060  0.29010  0.68240  Biso   1.000  H
  O28      1.0000 0.02290  0.16470  0.39480  Biso   1.000  O
  O29      1.0000 0.08620  0.16874  0.22150  Biso   1.000  O
  O30      1.0000 0.86120  0.26263  0.93260  Biso   1.000  O
  O31      1.0000 0.81060  0.22334  0.75170  Biso   1.000  O
  O32      1.0000 0.02210  0.27855  0.11150  Biso   1.000  O
  H12      1.0000 0.06170  0.29570  0.14570  Biso   1.000  H
  O33      1.0000 0.55810  0.13800  0.80300  Biso   1.000  O
  O34      1.0000 0.44980  0.16260  0.79400  Biso   1.000  O
  O35      1.0000 0.55090  0.18180  0.13680  Biso   1.000  O
  O36      1.0000 0.43000  0.14310  0.10500  Biso   1.000  O
  O37      1.0000 0.21270  0.99700  0.19000  Biso   1.000  O
  O38      1.0000 0.26900  0.05070  0.19000  Biso   1.000  O
  O39      1.0000 0.89800  0.94220  0.25300  Biso   1.000  O
  O40      1.0000 0.92400  0.00120  0.24300  Biso   1.000  O
  O41      1.0000 0.16920  0.22585  0.10290  Biso   1.000  O
  O42      1.0000 0.11880  0.25969  0.90890  Biso   1.000  O
  O43      1.0000 0.22800  0.84710  0.46290  Biso   1.000  O
  O44      1.0000 0.09220  0.83674  0.33720  Biso   1.000  O
  C33      1.0000 0.06040  0.15066  0.31290  Biso   1.000  C
  C34      1.0000 0.07470  0.10730  0.32170  Biso   1.000  C
  C35      1.0000 0.02070  0.08450  0.37900  Biso   1.000  C
  C36      1.0000 0.03190  0.04460  0.38300  Biso   1.000  C
  C37      1.0000 0.09950  0.02600  0.34250  Biso   1.000  C
  C38      1.0000 0.14440  0.04830  0.26800  Biso   1.000  C
  C39      1.0000 0.13900  0.08980  0.26900  Biso   1.000  C
  C40      1.0000 0.11140  0.98280  0.35690  Biso   1.000  C
  C41      1.0000 0.05000  0.95730  0.29420  Biso   1.000  C
  C42      1.0000 0.06080  0.91680  0.31090  Biso   1.000  C
  H13      1.0000 0.01460  0.90010  0.26700  Biso   1.000  H
  C43      1.0000 0.13720  0.90220  0.38980  Biso   1.000  C
  C44      1.0000 0.20270  0.92680  0.46060  Biso   1.000  C
  H14      1.0000 0.25540  0.91700  0.51840  Biso   1.000  H
  C45      1.0000 0.18890  0.96730  0.44460  Biso   1.000  C
  C46      1.0000 0.15330  0.85770  0.39890  Biso   1.000  C
  C47      1.0000 0.80270  0.24200  0.85380  Biso   1.000  C
  C48      1.0000 0.71130  0.23860  0.88110  Biso   1.000  C
  C49      1.0000 0.65630  0.20790  0.82730  Biso   1.000  C
  H15      1.0000 0.67700  0.18870  0.77860  Biso   1.000  H
  C50      1.0000 0.57170  0.20510  0.84380  Biso   1.000  C
  C51      1.0000 0.53830  0.23350  0.92000  Biso   1.000  C
  C52      1.0000 0.59500  0.26390  0.97190  Biso   1.000  C
  H16      1.0000 0.57520  0.28310  0.02160  Biso   1.000  H
  C53      1.0000 0.68090  0.26730  0.95380  Biso   1.000  C
  H17      1.0000 0.71730  0.28850  0.98980  Biso   1.000  H
  C54      1.0000 0.44530  0.23320  0.94070  Biso   1.000  C
  C55      1.0000 0.38680  0.26330  0.88150  Biso   1.000  C
  H18      1.0000 0.40640  0.28220  0.83000  Biso   1.000  H
  C56      1.0000 0.30160  0.26600  0.89670  Biso   1.000  C
  H19      1.0000 0.26380  0.28610  0.85420  Biso   1.000  H
  C57      1.0000 0.27100  0.23870  0.97570  Biso   1.000  C
  C58      1.0000 0.32840  0.20930  0.03790  Biso   1.000  C
  H20      1.0000 0.30970  0.19100  0.09240  Biso   1.000  H
  C59      1.0000 0.41270  0.20690  0.01960  Biso   1.000  C
  C60      1.0000 0.17800  0.24153  0.99430  Biso   1.000  C
  N7       1.0000 0.21160  0.03120  0.20900  Biso   1.000  N
  N8       1.0000 0.51500  0.17390  0.77790  Biso   1.000  N
  N9       1.0000 0.47070  0.17620  0.09300  Biso   1.000  N
  N10      1.0000 0.95280  0.96750  0.23700  Biso   1.000  N
  O45      1.0000 0.53360  0.15480  0.69900  Biso   1.000  O
  O46      1.0000 0.43570  0.18320  0.71960  Biso   1.000  O
  O47      1.0000 0.52320  0.15840  0.04100  Biso   1.000  O
  O48      1.0000 0.45330  0.16110  0.19320  Biso   1.000  O
  O49      1.0000 0.15400  0.99740  0.11500  Biso   1.000  O
  O50      1.0000 0.07600  0.03790  0.99000  Biso   1.000  O
  O51      1.0000 0.30800  0.97600  0.65700  Biso   1.000  O
  O52      1.0000 0.27200  0.01920  0.51400  Biso   1.000  O
  C61      1.0000 0.07520  0.08790  0.44080  Biso   1.000  C
  C62      1.0000 0.08490  0.04760  0.45170  Biso   1.000  C
  C63      1.0000 0.09280  0.04520  0.22200  Biso   1.000  C
  C64      1.0000 0.08910  0.08660  0.21700  Biso   1.000  C
  N11      1.0000 0.12300  0.02870  0.10600  Biso   1.000  N
  N12      1.0000 0.25700  0.98650  0.55000  Biso   1.000  N
  Cu7      1.0000 0.91436  0.21877  0.68137  Biso   1.000  Cu
  Cu8      1.0000 0.06110  0.27630  0.66338  Biso   1.000  Cu
  Cu9      1.0000 0.98347  0.22014  0.41551  Biso   1.000  Cu
  O53      1.0000 0.95030  0.22632  0.22240  Biso   1.000  O
  H21      1.0000 0.91060  0.20990  0.18240  Biso   1.000  H
  O54      1.0000 0.02290  0.33530  0.89480  Biso   1.000  O
  O55      1.0000 0.08620  0.33126  0.72150  Biso   1.000  O
  O56      1.0000 0.86120  0.23737  0.43260  Biso   1.000  O
  O57      1.0000 0.81060  0.27666  0.25170  Biso   1.000  O
  O58      1.0000 0.02210  0.22145  0.61150  Biso   1.000  O
  H22      1.0000 0.06170  0.20430  0.64570  Biso   1.000  H
  O59      1.0000 0.55810  0.36200  0.30300  Biso   1.000  O
  O60      1.0000 0.44980  0.33740  0.29400  Biso   1.000  O
  O61      1.0000 0.55090  0.31820  0.63680  Biso   1.000  O
  O62      1.0000 0.43000  0.35690  0.60500  Biso   1.000  O
  O63      1.0000 0.21270  0.50300  0.69000  Biso   1.000  O
  O64      1.0000 0.26900  0.44930  0.69000  Biso   1.000  O
  O65      1.0000 0.89800  0.55780  0.75300  Biso   1.000  O
  O66      1.0000 0.92400  0.49880  0.74300  Biso   1.000  O
  O67      1.0000 0.16920  0.27415  0.60290  Biso   1.000  O
  O68      1.0000 0.11880  0.24031  0.40890  Biso   1.000  O
  O69      1.0000 0.22800  0.65290  0.96290  Biso   1.000  O
  O70      1.0000 0.09220  0.66326  0.83720  Biso   1.000  O
  C65      1.0000 0.06040  0.34934  0.81290  Biso   1.000  C
  C66      1.0000 0.07470  0.39270  0.82170  Biso   1.000  C
  C67      1.0000 0.02070  0.41550  0.87900  Biso   1.000  C
  C68      1.0000 0.03190  0.45540  0.88300  Biso   1.000  C
  C69      1.0000 0.09950  0.47400  0.84250  Biso   1.000  C
  C70      1.0000 0.14440  0.45170  0.76800  Biso   1.000  C
  C71      1.0000 0.13900  0.41020  0.76900  Biso   1.000  C
  C72      1.0000 0.11140  0.51720  0.85690  Biso   1.000  C
  C73      1.0000 0.05000  0.54270  0.79420  Biso   1.000  C
  C74      1.0000 0.06080  0.58320  0.81090  Biso   1.000  C
  H23      1.0000 0.01460  0.59990  0.76700  Biso   1.000  H
  C75      1.0000 0.13720  0.59780  0.88980  Biso   1.000  C
  C76      1.0000 0.20270  0.57320  0.96060  Biso   1.000  C
  H24      1.0000 0.25540  0.58300  0.01840  Biso   1.000  H
  C77      1.0000 0.18890  0.53270  0.94460  Biso   1.000  C
  C78      1.0000 0.15330  0.64230  0.89890  Biso   1.000  C
  C79      1.0000 0.80270  0.25800  0.35380  Biso   1.000  C
  C80      1.0000 0.71130  0.26140  0.38110  Biso   1.000  C
  C81      1.0000 0.65630  0.29210  0.32730  Biso   1.000  C
  H25      1.0000 0.67700  0.31130  0.27860  Biso   1.000  H
  C82      1.0000 0.57170  0.29490  0.34380  Biso   1.000  C
  C83      1.0000 0.53830  0.26650  0.42000  Biso   1.000  C
  C84      1.0000 0.59500  0.23610  0.47190  Biso   1.000  C
  H26      1.0000 0.57520  0.21690  0.52160  Biso   1.000  H
  C85      1.0000 0.68090  0.23270  0.45380  Biso   1.000  C
  H27      1.0000 0.71730  0.21150  0.48980  Biso   1.000  H
  C86      1.0000 0.44530  0.26680  0.44070  Biso   1.000  C
  C87      1.0000 0.38680  0.23670  0.38150  Biso   1.000  C
  H28      1.0000 0.40640  0.21780  0.33000  Biso   1.000  H
  C88      1.0000 0.30160  0.23400  0.39670  Biso   1.000  C
  H29      1.0000 0.26380  0.21390  0.35420  Biso   1.000  H
  C89      1.0000 0.27100  0.26130  0.47570  Biso   1.000  C
  C90      1.0000 0.32840  0.29070  0.53790  Biso   1.000  C
  H30      1.0000 0.30970  0.30900  0.59240  Biso   1.000  H
  C91      1.0000 0.41270  0.29310  0.51960  Biso   1.000  C
  C92      1.0000 0.17800  0.25847  0.49430  Biso   1.000  C
  N13      1.0000 0.21160  0.46880  0.70900  Biso   1.000  N
  N14      1.0000 0.51500  0.32610  0.27790  Biso   1.000  N
  N15      1.0000 0.47070  0.32380  0.59300  Biso   1.000  N
  N16      1.0000 0.95280  0.53250  0.73700  Biso   1.000  N
  O71      1.0000 0.53360  0.34520  0.19900  Biso   1.000  O
  O72      1.0000 0.43570  0.31680  0.21960  Biso   1.000  O
  O73      1.0000 0.52320  0.34160  0.54100  Biso   1.000  O
  O74      1.0000 0.45330  0.33890  0.69320  Biso   1.000  O
  O75      1.0000 0.15400  0.50260  0.61500  Biso   1.000  O
  O76      1.0000 0.07600  0.46210  0.49000  Biso   1.000  O
  O77      1.0000 0.30800  0.52400  0.15700  Biso   1.000  O
  O78      1.0000 0.27200  0.48080  0.01400  Biso   1.000  O
  C93      1.0000 0.07520  0.41210  0.94080  Biso   1.000  C
  C94      1.0000 0.08490  0.45240  0.95170  Biso   1.000  C
  C95      1.0000 0.09280  0.45480  0.72200  Biso   1.000  C
  C96      1.0000 0.08910  0.41340  0.71700  Biso   1.000  C
  N17      1.0000 0.12300  0.47130  0.60600  Biso   1.000  N
  N18      1.0000 0.25700  0.51350  0.05000  Biso   1.000  N
  Cu10     1.0000 0.08564  0.71877  0.81863  Biso   1.000  Cu
  Cu11     1.0000 0.93890  0.77630  0.83662  Biso   1.000  Cu
  Cu12     1.0000 0.01653  0.72014  0.08449  Biso   1.000  Cu
  O79      1.0000 0.04970  0.72632  0.27760  Biso   1.000  O
  H31      1.0000 0.08940  0.70990  0.31760  Biso   1.000  H
  O80      1.0000 0.97710  0.83530  0.60520  Biso   1.000  O
  O81      1.0000 0.91380  0.83126  0.77850  Biso   1.000  O
  O82      1.0000 0.13880  0.73737  0.06740  Biso   1.000  O
  O83      1.0000 0.18940  0.77666  0.24830  Biso   1.000  O
  O84      1.0000 0.97790  0.72145  0.88850  Biso   1.000  O
  H32      1.0000 0.93830  0.70430  0.85430  Biso   1.000  H
  O85      1.0000 0.44190  0.86200  0.19700  Biso   1.000  O
  O86      1.0000 0.55020  0.83740  0.20600  Biso   1.000  O
  O87      1.0000 0.44910  0.81820  0.86320  Biso   1.000  O
  O88      1.0000 0.57000  0.85690  0.89500  Biso   1.000  O
  O89      1.0000 0.78730  0.00300  0.81000  Biso   1.000  O
  O90      1.0000 0.73100  0.94930  0.81000  Biso   1.000  O
  O91      1.0000 0.10200  0.05780  0.74700  Biso   1.000  O
  O92      1.0000 0.07600  0.99880  0.75700  Biso   1.000  O
  O93      1.0000 0.83080  0.77415  0.89710  Biso   1.000  O
  O94      1.0000 0.88120  0.74031  0.09110  Biso   1.000  O
  O95      1.0000 0.77200  0.15290  0.53710  Biso   1.000  O
  O96      1.0000 0.90780  0.16326  0.66280  Biso   1.000  O
  C97      1.0000 0.93960  0.84934  0.68710  Biso   1.000  C
  C98      1.0000 0.92530  0.89270  0.67830  Biso   1.000  C
  C99      1.0000 0.97930  0.91550  0.62100  Biso   1.000  C
  C100     1.0000 0.96810  0.95540  0.61700  Biso   1.000  C
  C101     1.0000 0.90050  0.97400  0.65750  Biso   1.000  C
  C102     1.0000 0.85560  0.95170  0.73200  Biso   1.000  C
  C103     1.0000 0.86100  0.91020  0.73100  Biso   1.000  C
  C104     1.0000 0.88860  0.01720  0.64310  Biso   1.000  C
  C105     1.0000 0.95000  0.04270  0.70580  Biso   1.000  C
  C106     1.0000 0.93920  0.08320  0.68910  Biso   1.000  C
  H33      1.0000 0.98540  0.09990  0.73300  Biso   1.000  H
  C107     1.0000 0.86280  0.09780  0.61020  Biso   1.000  C
  C108     1.0000 0.79730  0.07320  0.53940  Biso   1.000  C
  H34      1.0000 0.74460  0.08300  0.48160  Biso   1.000  H
  C109     1.0000 0.81110  0.03270  0.55540  Biso   1.000  C
  C110     1.0000 0.84670  0.14230  0.60110  Biso   1.000  C
  C111     1.0000 0.19730  0.75800  0.14620  Biso   1.000  C
  C112     1.0000 0.28870  0.76140  0.11890  Biso   1.000  C
  C113     1.0000 0.34370  0.79210  0.17270  Biso   1.000  C
  H35      1.0000 0.32300  0.81130  0.22140  Biso   1.000  H
  C114     1.0000 0.42830  0.79490  0.15620  Biso   1.000  C
  C115     1.0000 0.46170  0.76650  0.08000  Biso   1.000  C
  C116     1.0000 0.40500  0.73610  0.02810  Biso   1.000  C
  H36      1.0000 0.42480  0.71690  0.97840  Biso   1.000  H
  C117     1.0000 0.31910  0.73270  0.04620  Biso   1.000  C
  H37      1.0000 0.28270  0.71150  0.01020  Biso   1.000  H
  C118     1.0000 0.55470  0.76680  0.05930  Biso   1.000  C
  C119     1.0000 0.61320  0.73670  0.11850  Biso   1.000  C
  H38      1.0000 0.59360  0.71780  0.17000  Biso   1.000  H
  C120     1.0000 0.69840  0.73400  0.10330  Biso   1.000  C
  H39      1.0000 0.73620  0.71390  0.14580  Biso   1.000  H
  C121     1.0000 0.72900  0.76130  0.02430  Biso   1.000  C
  C122     1.0000 0.67160  0.79070  0.96210  Biso   1.000  C
  H40      1.0000 0.69030  0.80900  0.90760  Biso   1.000  H
  C123     1.0000 0.58730  0.79310  0.98040  Biso   1.000  C
  C124     1.0000 0.82200  0.75847  0.00570  Biso   1.000  C
  N19      1.0000 0.78840  0.96880  0.79100  Biso   1.000  N
  N20      1.0000 0.48500  0.82610  0.22210  Biso   1.000  N
  N21      1.0000 0.52930  0.82380  0.90700  Biso   1.000  N
  N22      1.0000 0.04720  0.03250  0.76300  Biso   1.000  N
  O97      1.0000 0.46640  0.84520  0.30100  Biso   1.000  O
  O98      1.0000 0.56430  0.81680  0.28040  Biso   1.000  O
  O99      1.0000 0.47680  0.84160  0.95900  Biso   1.000  O
  O100     1.0000 0.54670  0.83890  0.80680  Biso   1.000  O
  O101     1.0000 0.84600  0.00260  0.88500  Biso   1.000  O
  O102     1.0000 0.92400  0.96210  0.01000  Biso   1.000  O
  O103     1.0000 0.69200  0.02400  0.34300  Biso   1.000  O
  O104     1.0000 0.72800  0.98080  0.48600  Biso   1.000  O
  C125     1.0000 0.92480  0.91210  0.55920  Biso   1.000  C
  C126     1.0000 0.91510  0.95240  0.54830  Biso   1.000  C
  C127     1.0000 0.90720  0.95480  0.77800  Biso   1.000  C
  C128     1.0000 0.91090  0.91340  0.78300  Biso   1.000  C
  N23      1.0000 0.87700  0.97130  0.89400  Biso   1.000  N
  N24      1.0000 0.74300  0.01350  0.45000  Biso   1.000  N
