data_image0
_cell_length_a       15.331
_cell_length_b       32.5
_cell_length_c       10.05
_cell_angle_alpha    90
_cell_angle_beta     107.451
_cell_angle_gamma    90

_symmetry_space_group_name_H-M    "P 1"
_symmetry_int_tables_number       1

loop_
  _symmetry_equiv_pos_as_xyz
  'x, y, z'

loop_
  _atom_site_label
  _atom_site_occupancy
  _atom_site_fract_x
  _atom_site_fract_y
  _atom_site_fract_z
  _atom_site_thermal_displace_type
  _atom_site_B_iso_or_equiv
  _atom_site_type_symbol
  Cu1      1.0000 0.41706  0.71618  0.73480  Biso   1.000  Cu
  Cu2      1.0000 0.48896  0.71437  0.47274  Biso   1.000  Cu
  Cu3      1.0000 0.34304  0.77326  0.49804  Biso   1.000  Cu
  O1       1.0000 0.37873  0.71549  0.53100  Biso   1.000  O
  H1       1.0000 0.33160  0.69530  0.48640  Biso   1.000  H
  O2       1.0000 0.46820  0.65718  0.73560  Biso   1.000  O
  O3       1.0000 0.53138  0.66040  0.55900  Biso   1.000  O
  O4       1.0000 0.28992  0.72606  0.74470  Biso   1.000  O
  O5       1.0000 0.23321  0.76516  0.55260  Biso   1.000  O
  O6       1.0000 0.45313  0.72600  0.93340  Biso   1.000  O
  H2       1.0000 0.50020  0.70680  0.98620  Biso   1.000  H
  O7       1.0000 0.96610  0.84460  0.53160  Biso   1.000  O
  O8       1.0000 0.85430  0.81160  0.54580  Biso   1.000  O
  O9       1.0000 0.99230  0.81626  0.93310  Biso   1.000  O
  O10      1.0000 0.88250  0.84809  0.96890  Biso   1.000  O
  O11      1.0000 0.77420  0.50510  0.71740  Biso   1.000  O
  O12      1.0000 0.69020  0.53530  0.47340  Biso   1.000  O
  O13      1.0000 0.72690  0.51624  0.99800  Biso   1.000  O
  O14      1.0000 0.67770  0.47230  0.13870  Biso   1.000  O
  O15      1.0000 0.59540  0.78182  0.91110  Biso   1.000  O
  O16      1.0000 0.54154  0.74079  0.72250  Biso   1.000  O
  O17      1.0000 0.60190  0.31531  0.75660  Biso   1.000  O
  O18      1.0000 0.66420  0.33136  0.98200  Biso   1.000  O
  C1       1.0000 0.51110  0.64287  0.65870  Biso   1.000  C
  C2       1.0000 0.54160  0.59885  0.68530  Biso   1.000  C
  C3       1.0000 0.50070  0.57399  0.76100  Biso   1.000  C
  H3       1.0000 0.45620  0.58470  0.79670  Biso   1.000  H
  C4       1.0000 0.52610  0.53305  0.78360  Biso   1.000  C
  H4       1.0000 0.49520  0.51640  0.82980  Biso   1.000  H
  C5       1.0000 0.59560  0.51613  0.74000  Biso   1.000  C
  C6       1.0000 0.63290  0.54145  0.66520  Biso   1.000  C
  C7       1.0000 0.60780  0.58192  0.63590  Biso   1.000  C
  H5       1.0000 0.63560  0.59770  0.58280  Biso   1.000  H
  C8       1.0000 0.61720  0.47156  0.76860  Biso   1.000  C
  C9       1.0000 0.65800  0.45538  0.90090  Biso   1.000  C
  C10      1.0000 0.66400  0.41353  0.92840  Biso   1.000  C
  H6       1.0000 0.69130  0.40400  0.01860  Biso   1.000  H
  C11      1.0000 0.62960  0.38620  0.82170  Biso   1.000  C
  C12      1.0000 0.59130  0.40146  0.68990  Biso   1.000  C
  H7       1.0000 0.56950  0.38330  0.61580  Biso   1.000  H
  C13      1.0000 0.58440  0.44351  0.66550  Biso   1.000  C
  H8       1.0000 0.55640  0.45280  0.57530  Biso   1.000  H
  C14      1.0000 0.63170  0.34080  0.85220  Biso   1.000  C
  C15      1.0000 0.22610  0.74637  0.65890  Biso   1.000  C
  C16      1.0000 0.13610  0.74888  0.68550  Biso   1.000  C
  C17      1.0000 0.07900  0.78216  0.63310  Biso   1.000  C
  H9       1.0000 0.09730  0.80240  0.58180  Biso   1.000  H
  C18      1.0000 0.99660  0.78515  0.65690  Biso   1.000  C
  C19      1.0000 0.96430  0.75626  0.73310  Biso   1.000  C
  C20      1.0000 0.02120  0.72226  0.78050  Biso   1.000  C
  H10      1.0000 0.00180  0.70150  0.82870  Biso   1.000  H
  C21      1.0000 0.10610  0.71862  0.75740  Biso   1.000  C
  H11      1.0000 0.14260  0.69570  0.79060  Biso   1.000  H
  C22      1.0000 0.87430  0.75767  0.76250  Biso   1.000  C
  C23      1.0000 0.81250  0.72680  0.71100  Biso   1.000  C
  H12      1.0000 0.83020  0.70480  0.66580  Biso   1.000  H
  C24      1.0000 0.72440  0.72701  0.72330  Biso   1.000  C
  H13      1.0000 0.68350  0.70610  0.68390  Biso   1.000  H
  C25      1.0000 0.69870  0.75867  0.79470  Biso   1.000  C
  C26      1.0000 0.76120  0.78924  0.85640  Biso   1.000  C
  H14      1.0000 0.74500  0.81020  0.90750  Biso   1.000  H
  C27      1.0000 0.84750  0.78816  0.84090  Biso   1.000  C
  C28      1.0000 0.60350  0.76052  0.80910  Biso   1.000  C
  N1       1.0000 0.70790  0.52720  0.61280  Biso   1.000  N
  N2       1.0000 0.93790  0.82003  0.59190  Biso   1.000  N
  N3       1.0000 0.91180  0.82016  0.91180  Biso   1.000  N
  N4       1.0000 0.69050  0.48340  0.02240  Biso   1.000  N
  O19      1.0000 0.90300  0.84470  0.66810  Biso   1.000  O
  O20      1.0000 0.74450  0.49480  0.63500  Biso   1.000  O
  O21      1.0000 0.75800  0.55260  0.57040  Biso   1.000  O
  O22      1.0000 0.76510  0.47120  0.10500  Biso   1.000  O
  Cu4      1.0000 0.58294  0.21618  0.76520  Biso   1.000  Cu
  Cu5      1.0000 0.51104  0.21437  0.02726  Biso   1.000  Cu
  Cu6      1.0000 0.65696  0.27326  0.00196  Biso   1.000  Cu
  O23      1.0000 0.62127  0.21549  0.96900  Biso   1.000  O
  H15      1.0000 0.66840  0.19530  0.01360  Biso   1.000  H
  O24      1.0000 0.53180  0.15718  0.76440  Biso   1.000  O
  O25      1.0000 0.46862  0.16040  0.94100  Biso   1.000  O
  O26      1.0000 0.71008  0.22606  0.75530  Biso   1.000  O
  O27      1.0000 0.76679  0.26516  0.94740  Biso   1.000  O
  O28      1.0000 0.54687  0.22600  0.56660  Biso   1.000  O
  H16      1.0000 0.49980  0.20680  0.51380  Biso   1.000  H
  O29      1.0000 0.03390  0.34460  0.96840  Biso   1.000  O
  O30      1.0000 0.14570  0.31160  0.95420  Biso   1.000  O
  O31      1.0000 0.00770  0.31626  0.56690  Biso   1.000  O
  O32      1.0000 0.11750  0.34809  0.53110  Biso   1.000  O
  O33      1.0000 0.22580  0.00510  0.78260  Biso   1.000  O
  O34      1.0000 0.30980  0.03530  0.02660  Biso   1.000  O
  O35      1.0000 0.27310  0.01624  0.50200  Biso   1.000  O
  O36      1.0000 0.32230  0.97230  0.36130  Biso   1.000  O
  O37      1.0000 0.40460  0.28182  0.58890  Biso   1.000  O
  O38      1.0000 0.45846  0.24079  0.77750  Biso   1.000  O
  O39      1.0000 0.39810  0.81531  0.74340  Biso   1.000  O
  O40      1.0000 0.33580  0.83136  0.51800  Biso   1.000  O
  C29      1.0000 0.48890  0.14287  0.84130  Biso   1.000  C
  C30      1.0000 0.45840  0.09885  0.81470  Biso   1.000  C
  C31      1.0000 0.49930  0.07399  0.73900  Biso   1.000  C
  H17      1.0000 0.54380  0.08470  0.70330  Biso   1.000  H
  C32      1.0000 0.47390  0.03305  0.71640  Biso   1.000  C
  H18      1.0000 0.50480  0.01640  0.67020  Biso   1.000  H
  C33      1.0000 0.40440  0.01613  0.76000  Biso   1.000  C
  C34      1.0000 0.36710  0.04145  0.83480  Biso   1.000  C
  C35      1.0000 0.39220  0.08192  0.86410  Biso   1.000  C
  H19      1.0000 0.36440  0.09770  0.91720  Biso   1.000  H
  C36      1.0000 0.38280  0.97156  0.73140  Biso   1.000  C
  C37      1.0000 0.34200  0.95538  0.59910  Biso   1.000  C
  C38      1.0000 0.33600  0.91353  0.57160  Biso   1.000  C
  H20      1.0000 0.30870  0.90400  0.48140  Biso   1.000  H
  C39      1.0000 0.37040  0.88620  0.67830  Biso   1.000  C
  C40      1.0000 0.40870  0.90146  0.81010  Biso   1.000  C
  H21      1.0000 0.43050  0.88330  0.88420  Biso   1.000  H
  C41      1.0000 0.41560  0.94351  0.83450  Biso   1.000  C
  H22      1.0000 0.44360  0.95280  0.92470  Biso   1.000  H
  C42      1.0000 0.36830  0.84080  0.64780  Biso   1.000  C
  C43      1.0000 0.77390  0.24637  0.84110  Biso   1.000  C
  C44      1.0000 0.86390  0.24888  0.81450  Biso   1.000  C
  C45      1.0000 0.92100  0.28216  0.86690  Biso   1.000  C
  H23      1.0000 0.90270  0.30240  0.91820  Biso   1.000  H
  C46      1.0000 0.00340  0.28515  0.84310  Biso   1.000  C
  C47      1.0000 0.03570  0.25626  0.76690  Biso   1.000  C
  C48      1.0000 0.97880  0.22226  0.71950  Biso   1.000  C
  H24      1.0000 0.99820  0.20150  0.67130  Biso   1.000  H
  C49      1.0000 0.89390  0.21862  0.74260  Biso   1.000  C
  H25      1.0000 0.85740  0.19570  0.70940  Biso   1.000  H
  C50      1.0000 0.12570  0.25767  0.73750  Biso   1.000  C
  C51      1.0000 0.18750  0.22680  0.78900  Biso   1.000  C
  H26      1.0000 0.16980  0.20480  0.83420  Biso   1.000  H
  C52      1.0000 0.27560  0.22701  0.77670  Biso   1.000  C
  H27      1.0000 0.31650  0.20610  0.81610  Biso   1.000  H
  C53      1.0000 0.30130  0.25867  0.70530  Biso   1.000  C
  C54      1.0000 0.23880  0.28924  0.64360  Biso   1.000  C
  H28      1.0000 0.25500  0.31020  0.59250  Biso   1.000  H
  C55      1.0000 0.15250  0.28816  0.65910  Biso   1.000  C
  C56      1.0000 0.39650  0.26052  0.69090  Biso   1.000  C
  N5       1.0000 0.29210  0.02720  0.88720  Biso   1.000  N
  N6       1.0000 0.06210  0.32003  0.90810  Biso   1.000  N
  N7       1.0000 0.08820  0.32016  0.58820  Biso   1.000  N
  N8       1.0000 0.30950  0.98340  0.47760  Biso   1.000  N
  O41      1.0000 0.09700  0.34470  0.83190  Biso   1.000  O
  O42      1.0000 0.25550  0.99480  0.86500  Biso   1.000  O
  O43      1.0000 0.24200  0.05260  0.92960  Biso   1.000  O
  O44      1.0000 0.23490  0.97120  0.39500  Biso   1.000  O
  Cu7      1.0000 0.58294  0.28382  0.26520  Biso   1.000  Cu
  Cu8      1.0000 0.51104  0.28563  0.52726  Biso   1.000  Cu
  Cu9      1.0000 0.65696  0.22674  0.50196  Biso   1.000  Cu
  O45      1.0000 0.62127  0.28451  0.46900  Biso   1.000  O
  H29      1.0000 0.66840  0.30470  0.51360  Biso   1.000  H
  O46      1.0000 0.53180  0.34282  0.26440  Biso   1.000  O
  O47      1.0000 0.46862  0.33960  0.44100  Biso   1.000  O
  O48      1.0000 0.71008  0.27394  0.25530  Biso   1.000  O
  O49      1.0000 0.76679  0.23484  0.44740  Biso   1.000  O
  O50      1.0000 0.54687  0.27400  0.06660  Biso   1.000  O
  H30      1.0000 0.49980  0.29320  0.01380  Biso   1.000  H
  O51      1.0000 0.03390  0.15540  0.46840  Biso   1.000  O
  O52      1.0000 0.14570  0.18840  0.45420  Biso   1.000  O
  O53      1.0000 0.00770  0.18374  0.06690  Biso   1.000  O
  O54      1.0000 0.11750  0.15191  0.03110  Biso   1.000  O
  O55      1.0000 0.22580  0.49490  0.28260  Biso   1.000  O
  O56      1.0000 0.30980  0.46470  0.52660  Biso   1.000  O
  O57      1.0000 0.27310  0.48376  0.00200  Biso   1.000  O
  O58      1.0000 0.32230  0.52770  0.86130  Biso   1.000  O
  O59      1.0000 0.40460  0.21818  0.08890  Biso   1.000  O
  O60      1.0000 0.45846  0.25921  0.27750  Biso   1.000  O
  O61      1.0000 0.39810  0.68469  0.24340  Biso   1.000  O
  O62      1.0000 0.33580  0.66864  0.01800  Biso   1.000  O
  C57      1.0000 0.48890  0.35713  0.34130  Biso   1.000  C
  C58      1.0000 0.45840  0.40115  0.31470  Biso   1.000  C
  C59      1.0000 0.49930  0.42601  0.23900  Biso   1.000  C
  H31      1.0000 0.54380  0.41530  0.20330  Biso   1.000  H
  C60      1.0000 0.47390  0.46695  0.21640  Biso   1.000  C
  H32      1.0000 0.50480  0.48360  0.17020  Biso   1.000  H
  C61      1.0000 0.40440  0.48387  0.26000  Biso   1.000  C
  C62      1.0000 0.36710  0.45855  0.33480  Biso   1.000  C
  C63      1.0000 0.39220  0.41808  0.36410  Biso   1.000  C
  H33      1.0000 0.36440  0.40230  0.41720  Biso   1.000  H
  C64      1.0000 0.38280  0.52844  0.23140  Biso   1.000  C
  C65      1.0000 0.34200  0.54462  0.09910  Biso   1.000  C
  C66      1.0000 0.33600  0.58647  0.07160  Biso   1.000  C
  H34      1.0000 0.30870  0.59600  0.98140  Biso   1.000  H
  C67      1.0000 0.37040  0.61380  0.17830  Biso   1.000  C
  C68      1.0000 0.40870  0.59854  0.31010  Biso   1.000  C
  H35      1.0000 0.43050  0.61670  0.38420  Biso   1.000  H
  C69      1.0000 0.41560  0.55649  0.33450  Biso   1.000  C
  H36      1.0000 0.44360  0.54720  0.42470  Biso   1.000  H
  C70      1.0000 0.36830  0.65920  0.14780  Biso   1.000  C
  C71      1.0000 0.77390  0.25363  0.34110  Biso   1.000  C
  C72      1.0000 0.86390  0.25112  0.31450  Biso   1.000  C
  C73      1.0000 0.92100  0.21784  0.36690  Biso   1.000  C
  H37      1.0000 0.90270  0.19760  0.41820  Biso   1.000  H
  C74      1.0000 0.00340  0.21485  0.34310  Biso   1.000  C
  C75      1.0000 0.03570  0.24374  0.26690  Biso   1.000  C
  C76      1.0000 0.97880  0.27774  0.21950  Biso   1.000  C
  H38      1.0000 0.99820  0.29850  0.17130  Biso   1.000  H
  C77      1.0000 0.89390  0.28138  0.24260  Biso   1.000  C
  H39      1.0000 0.85740  0.30430  0.20940  Biso   1.000  H
  C78      1.0000 0.12570  0.24233  0.23750  Biso   1.000  C
  C79      1.0000 0.18750  0.27320  0.28900  Biso   1.000  C
  H40      1.0000 0.16980  0.29520  0.33420  Biso   1.000  H
  C80      1.0000 0.27560  0.27299  0.27670  Biso   1.000  C
  H41      1.0000 0.31650  0.29390  0.31610  Biso   1.000  H
  C81      1.0000 0.30130  0.24133  0.20530  Biso   1.000  C
  C82      1.0000 0.23880  0.21076  0.14360  Biso   1.000  C
  H42      1.0000 0.25500  0.18980  0.09250  Biso   1.000  H
  C83      1.0000 0.15250  0.21184  0.15910  Biso   1.000  C
  C84      1.0000 0.39650  0.23948  0.19090  Biso   1.000  C
  N9       1.0000 0.29210  0.47280  0.38720  Biso   1.000  N
  N10      1.0000 0.06210  0.17997  0.40810  Biso   1.000  N
  N11      1.0000 0.08820  0.17984  0.08820  Biso   1.000  N
  N12      1.0000 0.30950  0.51660  0.97760  Biso   1.000  N
  O63      1.0000 0.09700  0.15530  0.33190  Biso   1.000  O
  O64      1.0000 0.25550  0.50520  0.36500  Biso   1.000  O
  O65      1.0000 0.24200  0.44740  0.42960  Biso   1.000  O
  O66      1.0000 0.23490  0.52880  0.89500  Biso   1.000  O
  Cu10     1.0000 0.41706  0.78382  0.23480  Biso   1.000  Cu
  Cu11     1.0000 0.48896  0.78563  0.97274  Biso   1.000  Cu
  Cu12     1.0000 0.34304  0.72674  0.99804  Biso   1.000  Cu
  O67      1.0000 0.37873  0.78451  0.03100  Biso   1.000  O
  H43      1.0000 0.33160  0.80470  0.98640  Biso   1.000  H
  O68      1.0000 0.46820  0.84282  0.23560  Biso   1.000  O
  O69      1.0000 0.53138  0.83960  0.05900  Biso   1.000  O
  O70      1.0000 0.28992  0.77394  0.24470  Biso   1.000  O
  O71      1.0000 0.23321  0.73484  0.05260  Biso   1.000  O
  O72      1.0000 0.45313  0.77400  0.43340  Biso   1.000  O
  H44      1.0000 0.50020  0.79320  0.48620  Biso   1.000  H
  O73      1.0000 0.96610  0.65540  0.03160  Biso   1.000  O
  O74      1.0000 0.85430  0.68840  0.04580  Biso   1.000  O
  O75      1.0000 0.99230  0.68374  0.43310  Biso   1.000  O
  O76      1.0000 0.88250  0.65191  0.46890  Biso   1.000  O
  O77      1.0000 0.77420  0.99490  0.21740  Biso   1.000  O
  O78      1.0000 0.69020  0.96470  0.97340  Biso   1.000  O
  O79      1.0000 0.72690  0.98376  0.49800  Biso   1.000  O
  O80      1.0000 0.67770  0.02770  0.63870  Biso   1.000  O
  O81      1.0000 0.59540  0.71818  0.41110  Biso   1.000  O
  O82      1.0000 0.54154  0.75921  0.22250  Biso   1.000  O
  O83      1.0000 0.60190  0.18469  0.25660  Biso   1.000  O
  O84      1.0000 0.66420  0.16864  0.48200  Biso   1.000  O
  C85      1.0000 0.51110  0.85713  0.15870  Biso   1.000  C
  C86      1.0000 0.54160  0.90115  0.18530  Biso   1.000  C
  C87      1.0000 0.50070  0.92601  0.26100  Biso   1.000  C
  H45      1.0000 0.45620  0.91530  0.29670  Biso   1.000  H
  C88      1.0000 0.52610  0.96695  0.28360  Biso   1.000  C
  H46      1.0000 0.49520  0.98360  0.32980  Biso   1.000  H
  C89      1.0000 0.59560  0.98387  0.24000  Biso   1.000  C
  C90      1.0000 0.63290  0.95855  0.16520  Biso   1.000  C
  C91      1.0000 0.60780  0.91808  0.13590  Biso   1.000  C
  H47      1.0000 0.63560  0.90230  0.08280  Biso   1.000  H
  C92      1.0000 0.61720  0.02844  0.26860  Biso   1.000  C
  C93      1.0000 0.65800  0.04462  0.40090  Biso   1.000  C
  C94      1.0000 0.66400  0.08647  0.42840  Biso   1.000  C
  H48      1.0000 0.69130  0.09600  0.51860  Biso   1.000  H
  C95      1.0000 0.62960  0.11380  0.32170  Biso   1.000  C
  C96      1.0000 0.59130  0.09854  0.18990  Biso   1.000  C
  H49      1.0000 0.56950  0.11670  0.11580  Biso   1.000  H
  C97      1.0000 0.58440  0.05649  0.16550  Biso   1.000  C
  H50      1.0000 0.55640  0.04720  0.07530  Biso   1.000  H
  C98      1.0000 0.63170  0.15920  0.35220  Biso   1.000  C
  C99      1.0000 0.22610  0.75363  0.15890  Biso   1.000  C
  C100     1.0000 0.13610  0.75112  0.18550  Biso   1.000  C
  C101     1.0000 0.07900  0.71784  0.13310  Biso   1.000  C
  H51      1.0000 0.09730  0.69760  0.08180  Biso   1.000  H
  C102     1.0000 0.99660  0.71485  0.15690  Biso   1.000  C
  C103     1.0000 0.96430  0.74374  0.23310  Biso   1.000  C
  C104     1.0000 0.02120  0.77774  0.28050  Biso   1.000  C
  H52      1.0000 0.00180  0.79850  0.32870  Biso   1.000  H
  C105     1.0000 0.10610  0.78138  0.25740  Biso   1.000  C
  H53      1.0000 0.14260  0.80430  0.29060  Biso   1.000  H
  C106     1.0000 0.87430  0.74233  0.26250  Biso   1.000  C
  C107     1.0000 0.81250  0.77320  0.21100  Biso   1.000  C
  H54      1.0000 0.83020  0.79520  0.16580  Biso   1.000  H
  C108     1.0000 0.72440  0.77299  0.22330  Biso   1.000  C
  H55      1.0000 0.68350  0.79390  0.18390  Biso   1.000  H
  C109     1.0000 0.69870  0.74133  0.29470  Biso   1.000  C
  C110     1.0000 0.76120  0.71076  0.35640  Biso   1.000  C
  H56      1.0000 0.74500  0.68980  0.40750  Biso   1.000  H
  C111     1.0000 0.84750  0.71184  0.34090  Biso   1.000  C
  C112     1.0000 0.60350  0.73948  0.30910  Biso   1.000  C
  N13      1.0000 0.70790  0.97280  0.11280  Biso   1.000  N
  N14      1.0000 0.93790  0.67997  0.09190  Biso   1.000  N
  N15      1.0000 0.91180  0.67984  0.41180  Biso   1.000  N
  N16      1.0000 0.69050  0.01660  0.52240  Biso   1.000  N
  O85      1.0000 0.90300  0.65530  0.16810  Biso   1.000  O
  O86      1.0000 0.74450  0.00520  0.13500  Biso   1.000  O
  O87      1.0000 0.75800  0.94740  0.07040  Biso   1.000  O
  O88      1.0000 0.76510  0.02880  0.60500  Biso   1.000  O
