data_image0
_cell_length_a       15.3332
_cell_length_b       32.852
_cell_length_c       10.1075
_cell_angle_alpha    90
_cell_angle_beta     106.565
_cell_angle_gamma    90

_symmetry_space_group_name_H-M    "P 1"
_symmetry_int_tables_number       1

loop_
  _symmetry_equiv_pos_as_xyz
  'x, y, z'

loop_
  _atom_site_label
  _atom_site_occupancy
  _atom_site_fract_x
  _atom_site_fract_y
  _atom_site_fract_z
  _atom_site_thermal_displace_type
  _atom_site_B_iso_or_equiv
  _atom_site_type_symbol
  Cu1      1.0000 0.57981  0.21666  0.22383  Biso   1.000  Cu
  Cu2      1.0000 0.50667  0.21733  0.48218  Biso   1.000  Cu
  Cu3      1.0000 0.65344  0.27473  0.45904  Biso   1.000  Cu
  O1       1.0000 0.61720  0.21805  0.42370  Biso   1.000  O
  H1       1.0000 0.65730  0.20060  0.46280  Biso   1.000  H
  O2       1.0000 0.53190  0.15800  0.23350  Biso   1.000  O
  O3       1.0000 0.47150  0.16262  0.41340  Biso   1.000  O
  O4       1.0000 0.70490  0.22826  0.21050  Biso   1.000  O
  O5       1.0000 0.76190  0.26697  0.39870  Biso   1.000  O
  O6       1.0000 0.54370  0.27520  0.52670  Biso   1.000  O
  H2       1.0000 0.50360  0.29210  0.48390  Biso   1.000  H
  O7       1.0000 0.04660  0.33450  0.45690  Biso   1.000  O
  O8       1.0000 0.09680  0.33690  0.29120  Biso   1.000  O
  O9       1.0000 0.00340  0.30450  0.00090  Biso   1.000  O
  O10      1.0000 0.11740  0.34570  0.00470  Biso   1.000  O
  O11      1.0000 0.27420  0.99640  0.38700  Biso   1.000  O
  O12      1.0000 0.27700  0.05090  0.47500  Biso   1.000  O
  O13      1.0000 0.29410  0.01840  0.00800  Biso   1.000  O
  O14      1.0000 0.29410  0.96970  0.87160  Biso   1.000  O
  O15      1.0000 0.40120  0.27866  0.04780  Biso   1.000  O
  O16      1.0000 0.45400  0.23979  0.23460  Biso   1.000  O
  O17      1.0000 0.40130  0.81978  0.27020  Biso   1.000  O
  O18      1.0000 0.33700  0.83251  0.04730  Biso   1.000  O
  C1       1.0000 0.49240  0.14380  0.31670  Biso   1.000  C
  C2       1.0000 0.46520  0.10000  0.29890  Biso   1.000  C
  C3       1.0000 0.51100  0.07370  0.23670  Biso   1.000  C
  H3       1.0000 0.55810  0.08350  0.20440  Biso   1.000  H
  C4       1.0000 0.48790  0.03260  0.22140  Biso   1.000  C
  H4       1.0000 0.52200  0.01500  0.18360  Biso   1.000  H
  C5       1.0000 0.41430  0.01730  0.26170  Biso   1.000  C
  C6       1.0000 0.36990  0.04450  0.32520  Biso   1.000  C
  C7       1.0000 0.39510  0.08490  0.34600  Biso   1.000  C
  H5       1.0000 0.36490  0.10200  0.39170  Biso   1.000  H
  C8       1.0000 0.39330  0.97320  0.24020  Biso   1.000  C
  C9       1.0000 0.35140  0.95640  0.11280  Biso   1.000  C
  C10      1.0000 0.34270  0.91500  0.08880  Biso   1.000  C
  H6       1.0000 0.31360  0.90500  0.00120  Biso   1.000  H
  C11      1.0000 0.37790  0.88870  0.19710  Biso   1.000  C
  C12      1.0000 0.42100  0.90470  0.32430  Biso   1.000  C
  H7       1.0000 0.44530  0.88730  0.39800  Biso   1.000  H
  C13      1.0000 0.42910  0.94610  0.34480  Biso   1.000  C
  H8       1.0000 0.45960  0.95600  0.43190  Biso   1.000  H
  C14      1.0000 0.37320  0.84330  0.17530  Biso   1.000  C
  C15      1.0000 0.76830  0.24786  0.29590  Biso   1.000  C
  C16      1.0000 0.85880  0.24830  0.26810  Biso   1.000  C
  C17      1.0000 0.91690  0.28060  0.32170  Biso   1.000  C
  H9       1.0000 0.89960  0.30090  0.37320  Biso   1.000  H
  C18      1.0000 0.00030  0.28190  0.29690  Biso   1.000  C
  C19      1.0000 0.03060  0.25210  0.21940  Biso   1.000  C
  C20      1.0000 0.97270  0.21930  0.17500  Biso   1.000  C
  H10      1.0000 0.99180  0.19770  0.13070  Biso   1.000  H
  C21      1.0000 0.88640  0.21800  0.19510  Biso   1.000  C
  H11      1.0000 0.84740  0.19650  0.15910  Biso   1.000  H
  C22      1.0000 0.12070  0.25350  0.19070  Biso   1.000  C
  C23      1.0000 0.18450  0.22300  0.24530  Biso   1.000  C
  H12      1.0000 0.16720  0.20120  0.29110  Biso   1.000  H
  C24      1.0000 0.27090  0.22390  0.23390  Biso   1.000  C
  H13      1.0000 0.31210  0.20370  0.27530  Biso   1.000  H
  C25      1.0000 0.29760  0.25510  0.16030  Biso   1.000  C
  C26      1.0000 0.23340  0.28440  0.09590  Biso   1.000  C
  H14      1.0000 0.24900  0.30470  0.04280  Biso   1.000  H
  C27      1.0000 0.14680  0.28310  0.11120  Biso   1.000  C
  C28      1.0000 0.39350  0.25801  0.14930  Biso   1.000  C
  N1       1.0000 0.31420  0.02870  0.41110  Biso   1.000  N
  N2       1.0000 0.06100  0.31570  0.36090  Biso   1.000  N
  N3       1.0000 0.08350  0.31480  0.03600  Biso   1.000  N
  N4       1.0000 0.31140  0.98300  0.98920  Biso   1.000  N
  O19      1.0000 0.02540  0.34590  0.39290  Biso   1.000  O
  O20      1.0000 0.14230  0.30710  0.39950  Biso   1.000  O
  O21      1.0000 0.00440  0.31430  0.03770  Biso   1.000  O
  O22      1.0000 0.10580  0.33640  0.95250  Biso   1.000  O
  O23      1.0000 0.24090  0.00260  0.29600  Biso   1.000  O
  O24      1.0000 0.22580  0.05870  0.36600  Biso   1.000  O
  O25      1.0000 0.26490  0.00960  0.02100  Biso   1.000  O
  O26      1.0000 0.33870  0.97340  0.89090  Biso   1.000  O
  N5       1.0000 0.27930  0.03400  0.34400  Biso   1.000  N
  Cu4      1.0000 0.42019  0.71666  0.27617  Biso   1.000  Cu
  Cu5      1.0000 0.49333  0.71733  0.01782  Biso   1.000  Cu
  Cu6      1.0000 0.34656  0.77473  0.04096  Biso   1.000  Cu
  O27      1.0000 0.38280  0.71805  0.07630  Biso   1.000  O
  H15      1.0000 0.34270  0.70060  0.03720  Biso   1.000  H
  O28      1.0000 0.46810  0.65800  0.26650  Biso   1.000  O
  O29      1.0000 0.52850  0.66262  0.08660  Biso   1.000  O
  O30      1.0000 0.29510  0.72826  0.28950  Biso   1.000  O
  O31      1.0000 0.23810  0.76697  0.10130  Biso   1.000  O
  O32      1.0000 0.45630  0.77520  0.97330  Biso   1.000  O
  H16      1.0000 0.49640  0.79210  0.01610  Biso   1.000  H
  O33      1.0000 0.95340  0.83450  0.04310  Biso   1.000  O
  O34      1.0000 0.90320  0.83690  0.20880  Biso   1.000  O
  O35      1.0000 0.99660  0.80450  0.49910  Biso   1.000  O
  O36      1.0000 0.88260  0.84570  0.49530  Biso   1.000  O
  O37      1.0000 0.72580  0.49640  0.11300  Biso   1.000  O
  O38      1.0000 0.72300  0.55090  0.02500  Biso   1.000  O
  O39      1.0000 0.70590  0.51840  0.49200  Biso   1.000  O
  O40      1.0000 0.70590  0.46970  0.62840  Biso   1.000  O
  O41      1.0000 0.59880  0.77866  0.45220  Biso   1.000  O
  O42      1.0000 0.54600  0.73979  0.26540  Biso   1.000  O
  O43      1.0000 0.59870  0.31978  0.22980  Biso   1.000  O
  O44      1.0000 0.66300  0.33251  0.45270  Biso   1.000  O
  C29      1.0000 0.50760  0.64380  0.18330  Biso   1.000  C
  C30      1.0000 0.53480  0.60000  0.20110  Biso   1.000  C
  C31      1.0000 0.48900  0.57370  0.26330  Biso   1.000  C
  H17      1.0000 0.44190  0.58350  0.29560  Biso   1.000  H
  C32      1.0000 0.51210  0.53260  0.27860  Biso   1.000  C
  H18      1.0000 0.47800  0.51500  0.31640  Biso   1.000  H
  C33      1.0000 0.58570  0.51730  0.23830  Biso   1.000  C
  C34      1.0000 0.63010  0.54450  0.17480  Biso   1.000  C
  C35      1.0000 0.60490  0.58490  0.15400  Biso   1.000  C
  H19      1.0000 0.63510  0.60200  0.10830  Biso   1.000  H
  C36      1.0000 0.60670  0.47320  0.25980  Biso   1.000  C
  C37      1.0000 0.64860  0.45640  0.38720  Biso   1.000  C
  C38      1.0000 0.65730  0.41500  0.41120  Biso   1.000  C
  H20      1.0000 0.68640  0.40500  0.49880  Biso   1.000  H
  C39      1.0000 0.62210  0.38870  0.30290  Biso   1.000  C
  C40      1.0000 0.57900  0.40470  0.17570  Biso   1.000  C
  H21      1.0000 0.55470  0.38730  0.10200  Biso   1.000  H
  C41      1.0000 0.57090  0.44610  0.15520  Biso   1.000  C
  H22      1.0000 0.54040  0.45600  0.06810  Biso   1.000  H
  C42      1.0000 0.62680  0.34330  0.32470  Biso   1.000  C
  C43      1.0000 0.23170  0.74786  0.20410  Biso   1.000  C
  C44      1.0000 0.14120  0.74830  0.23190  Biso   1.000  C
  C45      1.0000 0.08310  0.78060  0.17830  Biso   1.000  C
  H23      1.0000 0.10040  0.80090  0.12680  Biso   1.000  H
  C46      1.0000 0.99970  0.78190  0.20310  Biso   1.000  C
  C47      1.0000 0.96940  0.75210  0.28060  Biso   1.000  C
  C48      1.0000 0.02730  0.71930  0.32500  Biso   1.000  C
  H24      1.0000 0.00820  0.69770  0.36930  Biso   1.000  H
  C49      1.0000 0.11360  0.71800  0.30490  Biso   1.000  C
  H25      1.0000 0.15260  0.69650  0.34090  Biso   1.000  H
  C50      1.0000 0.87930  0.75350  0.30930  Biso   1.000  C
  C51      1.0000 0.81550  0.72300  0.25470  Biso   1.000  C
  H26      1.0000 0.83280  0.70120  0.20890  Biso   1.000  H
  C52      1.0000 0.72910  0.72390  0.26610  Biso   1.000  C
  H27      1.0000 0.68790  0.70370  0.22470  Biso   1.000  H
  C53      1.0000 0.70240  0.75510  0.33970  Biso   1.000  C
  C54      1.0000 0.76660  0.78440  0.40410  Biso   1.000  C
  H28      1.0000 0.75100  0.80470  0.45720  Biso   1.000  H
  C55      1.0000 0.85320  0.78310  0.38880  Biso   1.000  C
  C56      1.0000 0.60650  0.75801  0.35070  Biso   1.000  C
  N6       1.0000 0.68580  0.52870  0.08890  Biso   1.000  N
  N7       1.0000 0.93900  0.81570  0.13910  Biso   1.000  N
  N8       1.0000 0.91650  0.81480  0.46400  Biso   1.000  N
  N9       1.0000 0.68860  0.48300  0.51080  Biso   1.000  N
  O45      1.0000 0.97460  0.84590  0.10710  Biso   1.000  O
  O46      1.0000 0.85770  0.80710  0.10050  Biso   1.000  O
  O47      1.0000 0.99560  0.81430  0.46230  Biso   1.000  O
  O48      1.0000 0.89420  0.83640  0.54750  Biso   1.000  O
  O49      1.0000 0.75910  0.50260  0.20400  Biso   1.000  O
  O50      1.0000 0.77420  0.55870  0.13400  Biso   1.000  O
  O51      1.0000 0.73510  0.50960  0.47900  Biso   1.000  O
  O52      1.0000 0.66130  0.47340  0.60910  Biso   1.000  O
  N10      1.0000 0.72070  0.53400  0.15600  Biso   1.000  N
  Cu7      1.0000 0.42019  0.78334  0.77617  Biso   1.000  Cu
  Cu8      1.0000 0.49333  0.78267  0.51782  Biso   1.000  Cu
  Cu9      1.0000 0.34656  0.72527  0.54096  Biso   1.000  Cu
  O53      1.0000 0.38280  0.78195  0.57630  Biso   1.000  O
  H29      1.0000 0.34270  0.79940  0.53720  Biso   1.000  H
  O54      1.0000 0.46810  0.84200  0.76650  Biso   1.000  O
  O55      1.0000 0.52850  0.83738  0.58660  Biso   1.000  O
  O56      1.0000 0.29510  0.77174  0.78950  Biso   1.000  O
  O57      1.0000 0.23810  0.73303  0.60130  Biso   1.000  O
  O58      1.0000 0.45630  0.72480  0.47330  Biso   1.000  O
  H30      1.0000 0.49640  0.70790  0.51610  Biso   1.000  H
  O59      1.0000 0.95340  0.66550  0.54310  Biso   1.000  O
  O60      1.0000 0.90320  0.66310  0.70880  Biso   1.000  O
  O61      1.0000 0.99660  0.69550  0.99910  Biso   1.000  O
  O62      1.0000 0.88260  0.65430  0.99530  Biso   1.000  O
  O63      1.0000 0.72580  0.00360  0.61300  Biso   1.000  O
  O64      1.0000 0.72300  0.94910  0.52500  Biso   1.000  O
  O65      1.0000 0.70590  0.98160  0.99200  Biso   1.000  O
  O66      1.0000 0.70590  0.03030  0.12840  Biso   1.000  O
  O67      1.0000 0.59880  0.72134  0.95220  Biso   1.000  O
  O68      1.0000 0.54600  0.76021  0.76540  Biso   1.000  O
  O69      1.0000 0.59870  0.18022  0.72980  Biso   1.000  O
  O70      1.0000 0.66300  0.16749  0.95270  Biso   1.000  O
  C57      1.0000 0.50760  0.85620  0.68330  Biso   1.000  C
  C58      1.0000 0.53480  0.90000  0.70110  Biso   1.000  C
  C59      1.0000 0.48900  0.92630  0.76330  Biso   1.000  C
  H31      1.0000 0.44190  0.91650  0.79560  Biso   1.000  H
  C60      1.0000 0.51210  0.96740  0.77860  Biso   1.000  C
  H32      1.0000 0.47800  0.98500  0.81640  Biso   1.000  H
  C61      1.0000 0.58570  0.98270  0.73830  Biso   1.000  C
  C62      1.0000 0.63010  0.95550  0.67480  Biso   1.000  C
  C63      1.0000 0.60490  0.91510  0.65400  Biso   1.000  C
  H33      1.0000 0.63510  0.89800  0.60830  Biso   1.000  H
  C64      1.0000 0.60670  0.02680  0.75980  Biso   1.000  C
  C65      1.0000 0.64860  0.04360  0.88720  Biso   1.000  C
  C66      1.0000 0.65730  0.08500  0.91120  Biso   1.000  C
  H34      1.0000 0.68640  0.09500  0.99880  Biso   1.000  H
  C67      1.0000 0.62210  0.11130  0.80290  Biso   1.000  C
  C68      1.0000 0.57900  0.09530  0.67570  Biso   1.000  C
  H35      1.0000 0.55470  0.11270  0.60200  Biso   1.000  H
  C69      1.0000 0.57090  0.05390  0.65520  Biso   1.000  C
  H36      1.0000 0.54040  0.04400  0.56810  Biso   1.000  H
  C70      1.0000 0.62680  0.15670  0.82470  Biso   1.000  C
  C71      1.0000 0.23170  0.75214  0.70410  Biso   1.000  C
  C72      1.0000 0.14120  0.75170  0.73190  Biso   1.000  C
  C73      1.0000 0.08310  0.71940  0.67830  Biso   1.000  C
  H37      1.0000 0.10040  0.69910  0.62680  Biso   1.000  H
  C74      1.0000 0.99970  0.71810  0.70310  Biso   1.000  C
  C75      1.0000 0.96940  0.74790  0.78060  Biso   1.000  C
  C76      1.0000 0.02730  0.78070  0.82500  Biso   1.000  C
  H38      1.0000 0.00820  0.80230  0.86930  Biso   1.000  H
  C77      1.0000 0.11360  0.78200  0.80490  Biso   1.000  C
  H39      1.0000 0.15260  0.80350  0.84090  Biso   1.000  H
  C78      1.0000 0.87930  0.74650  0.80930  Biso   1.000  C
  C79      1.0000 0.81550  0.77700  0.75470  Biso   1.000  C
  H40      1.0000 0.83280  0.79880  0.70890  Biso   1.000  H
  C80      1.0000 0.72910  0.77610  0.76610  Biso   1.000  C
  H41      1.0000 0.68790  0.79630  0.72470  Biso   1.000  H
  C81      1.0000 0.70240  0.74490  0.83970  Biso   1.000  C
  C82      1.0000 0.76660  0.71560  0.90410  Biso   1.000  C
  H42      1.0000 0.75100  0.69530  0.95720  Biso   1.000  H
  C83      1.0000 0.85320  0.71690  0.88880  Biso   1.000  C
  C84      1.0000 0.60650  0.74199  0.85070  Biso   1.000  C
  N11      1.0000 0.68580  0.97130  0.58890  Biso   1.000  N
  N12      1.0000 0.93900  0.68430  0.63910  Biso   1.000  N
  N13      1.0000 0.91650  0.68520  0.96400  Biso   1.000  N
  N14      1.0000 0.68860  0.01700  0.01080  Biso   1.000  N
  O71      1.0000 0.97460  0.65410  0.60710  Biso   1.000  O
  O72      1.0000 0.85770  0.69290  0.60050  Biso   1.000  O
  O73      1.0000 0.99560  0.68570  0.96230  Biso   1.000  O
  O74      1.0000 0.89420  0.66360  0.04750  Biso   1.000  O
  O75      1.0000 0.75910  0.99740  0.70400  Biso   1.000  O
  O76      1.0000 0.77420  0.94130  0.63400  Biso   1.000  O
  O77      1.0000 0.73510  0.99040  0.97900  Biso   1.000  O
  O78      1.0000 0.66130  0.02660  0.10910  Biso   1.000  O
  N15      1.0000 0.72070  0.96600  0.65600  Biso   1.000  N
  Cu10     1.0000 0.57981  0.28334  0.72383  Biso   1.000  Cu
  Cu11     1.0000 0.50667  0.28267  0.98218  Biso   1.000  Cu
  Cu12     1.0000 0.65344  0.22527  0.95904  Biso   1.000  Cu
  O79      1.0000 0.61720  0.28195  0.92370  Biso   1.000  O
  H43      1.0000 0.65730  0.29940  0.96280  Biso   1.000  H
  O80      1.0000 0.53190  0.34200  0.73350  Biso   1.000  O
  O81      1.0000 0.47150  0.33738  0.91340  Biso   1.000  O
  O82      1.0000 0.70490  0.27174  0.71050  Biso   1.000  O
  O83      1.0000 0.76190  0.23303  0.89870  Biso   1.000  O
  O84      1.0000 0.54370  0.22480  0.02670  Biso   1.000  O
  H44      1.0000 0.50360  0.20790  0.98390  Biso   1.000  H
  O85      1.0000 0.04660  0.16550  0.95690  Biso   1.000  O
  O86      1.0000 0.09680  0.16310  0.79120  Biso   1.000  O
  O87      1.0000 0.00340  0.19550  0.50090  Biso   1.000  O
  O88      1.0000 0.11740  0.15430  0.50470  Biso   1.000  O
  O89      1.0000 0.27420  0.50360  0.88700  Biso   1.000  O
  O90      1.0000 0.27700  0.44910  0.97500  Biso   1.000  O
  O91      1.0000 0.29410  0.48160  0.50800  Biso   1.000  O
  O92      1.0000 0.29410  0.53030  0.37160  Biso   1.000  O
  O93      1.0000 0.40120  0.22134  0.54780  Biso   1.000  O
  O94      1.0000 0.45400  0.26021  0.73460  Biso   1.000  O
  O95      1.0000 0.40130  0.68022  0.77020  Biso   1.000  O
  O96      1.0000 0.33700  0.66749  0.54730  Biso   1.000  O
  C85      1.0000 0.49240  0.35620  0.81670  Biso   1.000  C
  C86      1.0000 0.46520  0.40000  0.79890  Biso   1.000  C
  C87      1.0000 0.51100  0.42630  0.73670  Biso   1.000  C
  H45      1.0000 0.55810  0.41650  0.70440  Biso   1.000  H
  C88      1.0000 0.48790  0.46740  0.72140  Biso   1.000  C
  H46      1.0000 0.52200  0.48500  0.68360  Biso   1.000  H
  C89      1.0000 0.41430  0.48270  0.76170  Biso   1.000  C
  C90      1.0000 0.36990  0.45550  0.82520  Biso   1.000  C
  C91      1.0000 0.39510  0.41510  0.84600  Biso   1.000  C
  H47      1.0000 0.36490  0.39800  0.89170  Biso   1.000  H
  C92      1.0000 0.39330  0.52680  0.74020  Biso   1.000  C
  C93      1.0000 0.35140  0.54360  0.61280  Biso   1.000  C
  C94      1.0000 0.34270  0.58500  0.58880  Biso   1.000  C
  H48      1.0000 0.31360  0.59500  0.50120  Biso   1.000  H
  C95      1.0000 0.37790  0.61130  0.69710  Biso   1.000  C
  C96      1.0000 0.42100  0.59530  0.82430  Biso   1.000  C
  H49      1.0000 0.44530  0.61270  0.89800  Biso   1.000  H
  C97      1.0000 0.42910  0.55390  0.84480  Biso   1.000  C
  H50      1.0000 0.45960  0.54400  0.93190  Biso   1.000  H
  C98      1.0000 0.37320  0.65670  0.67530  Biso   1.000  C
  C99      1.0000 0.76830  0.25214  0.79590  Biso   1.000  C
  C100     1.0000 0.85880  0.25170  0.76810  Biso   1.000  C
  C101     1.0000 0.91690  0.21940  0.82170  Biso   1.000  C
  H51      1.0000 0.89960  0.19910  0.87320  Biso   1.000  H
  C102     1.0000 0.00030  0.21810  0.79690  Biso   1.000  C
  C103     1.0000 0.03060  0.24790  0.71940  Biso   1.000  C
  C104     1.0000 0.97270  0.28070  0.67500  Biso   1.000  C
  H52      1.0000 0.99180  0.30230  0.63070  Biso   1.000  H
  C105     1.0000 0.88640  0.28200  0.69510  Biso   1.000  C
  H53      1.0000 0.84740  0.30350  0.65910  Biso   1.000  H
  C106     1.0000 0.12070  0.24650  0.69070  Biso   1.000  C
  C107     1.0000 0.18450  0.27700  0.74530  Biso   1.000  C
  H54      1.0000 0.16720  0.29880  0.79110  Biso   1.000  H
  C108     1.0000 0.27090  0.27610  0.73390  Biso   1.000  C
  H55      1.0000 0.31210  0.29630  0.77530  Biso   1.000  H
  C109     1.0000 0.29760  0.24490  0.66030  Biso   1.000  C
  C110     1.0000 0.23340  0.21560  0.59590  Biso   1.000  C
  H56      1.0000 0.24900  0.19530  0.54280  Biso   1.000  H
  C111     1.0000 0.14680  0.21690  0.61120  Biso   1.000  C
  C112     1.0000 0.39350  0.24199  0.64930  Biso   1.000  C
  N16      1.0000 0.31420  0.47130  0.91110  Biso   1.000  N
  N17      1.0000 0.06100  0.18430  0.86090  Biso   1.000  N
  N18      1.0000 0.08350  0.18520  0.53600  Biso   1.000  N
  N19      1.0000 0.31140  0.51700  0.48920  Biso   1.000  N
  O97      1.0000 0.02540  0.15410  0.89290  Biso   1.000  O
  O98      1.0000 0.14230  0.19290  0.89950  Biso   1.000  O
  O99      1.0000 0.00440  0.18570  0.53770  Biso   1.000  O
  O100     1.0000 0.10580  0.16360  0.45250  Biso   1.000  O
  O101     1.0000 0.24090  0.49740  0.79600  Biso   1.000  O
  O102     1.0000 0.22580  0.44130  0.86600  Biso   1.000  O
  O103     1.0000 0.26490  0.49040  0.52100  Biso   1.000  O
  O104     1.0000 0.33870  0.52660  0.39090  Biso   1.000  O
  N20      1.0000 0.27930  0.46600  0.84400  Biso   1.000  N
