data_image0
_cell_length_a       15.337
_cell_length_b       32.832
_cell_length_c       10.1057
_cell_angle_alpha    90
_cell_angle_beta     106.549
_cell_angle_gamma    90

_symmetry_space_group_name_H-M    "P 1"
_symmetry_int_tables_number       1

loop_
  _symmetry_equiv_pos_as_xyz
  'x, y, z'

loop_
  _atom_site_label
  _atom_site_occupancy
  _atom_site_fract_x
  _atom_site_fract_y
  _atom_site_fract_z
  _atom_site_thermal_displace_type
  _atom_site_B_iso_or_equiv
  _atom_site_type_symbol
  Cu1      1.0000 0.58029  0.21663  0.22464  Biso   1.000  Cu
  Cu2      1.0000 0.50722  0.21726  0.48308  Biso   1.000  Cu
  Cu3      1.0000 0.65408  0.27467  0.45990  Biso   1.000  Cu
  O1       1.0000 0.61770  0.21803  0.42480  Biso   1.000  O
  H1       1.0000 0.65770  0.20060  0.46390  Biso   1.000  H
  O2       1.0000 0.53240  0.15784  0.23470  Biso   1.000  O
  O3       1.0000 0.47200  0.16264  0.41410  Biso   1.000  O
  O4       1.0000 0.70510  0.22832  0.21090  Biso   1.000  O
  O5       1.0000 0.76260  0.26671  0.40010  Biso   1.000  O
  O6       1.0000 0.54430  0.27519  0.52720  Biso   1.000  O
  H2       1.0000 0.50420  0.29210  0.48440  Biso   1.000  H
  O7       1.0000 0.04790  0.33450  0.46010  Biso   1.000  O
  O8       1.0000 0.09830  0.33660  0.29410  Biso   1.000  O
  O9       1.0000 0.00350  0.30480  0.99940  Biso   1.000  O
  O10      1.0000 0.11900  0.34560  0.00490  Biso   1.000  O
  O11      1.0000 0.27540  0.99600  0.39320  Biso   1.000  O
  O12      1.0000 0.27580  0.05180  0.47280  Biso   1.000  O
  O13      1.0000 0.29420  0.01869  0.00530  Biso   1.000  O
  O14      1.0000 0.29480  0.97000  0.87190  Biso   1.000  O
  O15      1.0000 0.40180  0.27874  0.04870  Biso   1.000  O
  O16      1.0000 0.45430  0.23979  0.23540  Biso   1.000  O
  O17      1.0000 0.40110  0.81982  0.27010  Biso   1.000  O
  O18      1.0000 0.33600  0.83249  0.04630  Biso   1.000  O
  C1       1.0000 0.49230  0.14391  0.31790  Biso   1.000  C
  C2       1.0000 0.46550  0.09983  0.29930  Biso   1.000  C
  C3       1.0000 0.51130  0.07360  0.23810  Biso   1.000  C
  H3       1.0000 0.55850  0.08330  0.20610  Biso   1.000  H
  C4       1.0000 0.48820  0.03250  0.22270  Biso   1.000  C
  H4       1.0000 0.52260  0.01490  0.18590  Biso   1.000  H
  C5       1.0000 0.41370  0.01730  0.26190  Biso   1.000  C
  C6       1.0000 0.36980  0.04470  0.32520  Biso   1.000  C
  C7       1.0000 0.39510  0.08483  0.34670  Biso   1.000  C
  H5       1.0000 0.36520  0.10190  0.39280  Biso   1.000  H
  C8       1.0000 0.39320  0.97310  0.24000  Biso   1.000  C
  C9       1.0000 0.35150  0.95660  0.11320  Biso   1.000  C
  C10      1.0000 0.34210  0.91490  0.08830  Biso   1.000  C
  H6       1.0000 0.31270  0.90500  0.00070  Biso   1.000  H
  C11      1.0000 0.37740  0.88869  0.19630  Biso   1.000  C
  C12      1.0000 0.42120  0.90470  0.32420  Biso   1.000  C
  H7       1.0000 0.44620  0.88730  0.39760  Biso   1.000  H
  C13      1.0000 0.42850  0.94580  0.34460  Biso   1.000  C
  H8       1.0000 0.45840  0.95560  0.43210  Biso   1.000  H
  C14      1.0000 0.37240  0.84328  0.17370  Biso   1.000  C
  C15      1.0000 0.76940  0.24775  0.29660  Biso   1.000  C
  C16      1.0000 0.85920  0.24832  0.26890  Biso   1.000  C
  C17      1.0000 0.91730  0.28050  0.32230  Biso   1.000  C
  H9       1.0000 0.89980  0.30070  0.37400  Biso   1.000  H
  C18      1.0000 0.00110  0.28230  0.29790  Biso   1.000  C
  C19      1.0000 0.03050  0.25210  0.22030  Biso   1.000  C
  C20      1.0000 0.97280  0.21940  0.17540  Biso   1.000  C
  H10      1.0000 0.99190  0.19800  0.13010  Biso   1.000  H
  C21      1.0000 0.88730  0.21770  0.19600  Biso   1.000  C
  H11      1.0000 0.84880  0.19600  0.16080  Biso   1.000  H
  C22      1.0000 0.12100  0.25340  0.19030  Biso   1.000  C
  C23      1.0000 0.18470  0.22300  0.24660  Biso   1.000  C
  H12      1.0000 0.16760  0.20150  0.29360  Biso   1.000  H
  C24      1.0000 0.27160  0.22400  0.23480  Biso   1.000  C
  H13      1.0000 0.31290  0.20380  0.27640  Biso   1.000  H
  C25      1.0000 0.29810  0.25510  0.16060  Biso   1.000  C
  C26      1.0000 0.23410  0.28430  0.09790  Biso   1.000  C
  H14      1.0000 0.25010  0.30500  0.04630  Biso   1.000  H
  C27      1.0000 0.14730  0.28298  0.11120  Biso   1.000  C
  C28      1.0000 0.39360  0.25803  0.14930  Biso   1.000  C
  N1       1.0000 0.31250  0.02910  0.40970  Biso   1.000  N
  N2       1.0000 0.06160  0.31570  0.36330  Biso   1.000  N
  N3       1.0000 0.08380  0.31499  0.03620  Biso   1.000  N
  N4       1.0000 0.31110  0.98303  0.98970  Biso   1.000  N
  O19      1.0000 0.02550  0.34570  0.39570  Biso   1.000  O
  O20      1.0000 0.14280  0.30690  0.40120  Biso   1.000  O
  O21      1.0000 0.00520  0.31450  0.04100  Biso   1.000  O
  O22      1.0000 0.10550  0.33670  0.95260  Biso   1.000  O
  O23      1.0000 0.24250  0.00240  0.30210  Biso   1.000  O
  O24      1.0000 0.22470  0.05950  0.36310  Biso   1.000  O
  O25      1.0000 0.26510  0.00970  0.02210  Biso   1.000  O
  O26      1.0000 0.33850  0.97360  0.89130  Biso   1.000  O
  N5       1.0000 0.27890  0.03470  0.34340  Biso   1.000  N
  Cu4      1.0000 0.41971  0.71663  0.27536  Biso   1.000  Cu
  Cu5      1.0000 0.49278  0.71726  0.01692  Biso   1.000  Cu
  Cu6      1.0000 0.34592  0.77467  0.04010  Biso   1.000  Cu
  O27      1.0000 0.38230  0.71803  0.07520  Biso   1.000  O
  H15      1.0000 0.34230  0.70060  0.03610  Biso   1.000  H
  O28      1.0000 0.46760  0.65784  0.26530  Biso   1.000  O
  O29      1.0000 0.52800  0.66264  0.08590  Biso   1.000  O
  O30      1.0000 0.29490  0.72832  0.28910  Biso   1.000  O
  O31      1.0000 0.23740  0.76671  0.09990  Biso   1.000  O
  O32      1.0000 0.45570  0.77519  0.97280  Biso   1.000  O
  H16      1.0000 0.49580  0.79210  0.01560  Biso   1.000  H
  O33      1.0000 0.95210  0.83450  0.03990  Biso   1.000  O
  O34      1.0000 0.90170  0.83660  0.20590  Biso   1.000  O
  O35      1.0000 0.99650  0.80480  0.50060  Biso   1.000  O
  O36      1.0000 0.88100  0.84560  0.49510  Biso   1.000  O
  O37      1.0000 0.72460  0.49600  0.10680  Biso   1.000  O
  O38      1.0000 0.72420  0.55180  0.02720  Biso   1.000  O
  O39      1.0000 0.70580  0.51869  0.49470  Biso   1.000  O
  O40      1.0000 0.70520  0.47000  0.62810  Biso   1.000  O
  O41      1.0000 0.59820  0.77874  0.45130  Biso   1.000  O
  O42      1.0000 0.54570  0.73979  0.26460  Biso   1.000  O
  O43      1.0000 0.59890  0.31982  0.22990  Biso   1.000  O
  O44      1.0000 0.66400  0.33249  0.45370  Biso   1.000  O
  C29      1.0000 0.50770  0.64391  0.18210  Biso   1.000  C
  C30      1.0000 0.53450  0.59983  0.20070  Biso   1.000  C
  C31      1.0000 0.48870  0.57360  0.26190  Biso   1.000  C
  H17      1.0000 0.44150  0.58330  0.29390  Biso   1.000  H
  C32      1.0000 0.51180  0.53250  0.27730  Biso   1.000  C
  H18      1.0000 0.47740  0.51490  0.31410  Biso   1.000  H
  C33      1.0000 0.58630  0.51730  0.23810  Biso   1.000  C
  C34      1.0000 0.63020  0.54470  0.17480  Biso   1.000  C
  C35      1.0000 0.60490  0.58483  0.15330  Biso   1.000  C
  H19      1.0000 0.63480  0.60190  0.10720  Biso   1.000  H
  C36      1.0000 0.60680  0.47310  0.26000  Biso   1.000  C
  C37      1.0000 0.64850  0.45660  0.38680  Biso   1.000  C
  C38      1.0000 0.65790  0.41490  0.41170  Biso   1.000  C
  H20      1.0000 0.68730  0.40500  0.49930  Biso   1.000  H
  C39      1.0000 0.62260  0.38869  0.30370  Biso   1.000  C
  C40      1.0000 0.57880  0.40470  0.17580  Biso   1.000  C
  H21      1.0000 0.55380  0.38730  0.10240  Biso   1.000  H
  C41      1.0000 0.57150  0.44580  0.15540  Biso   1.000  C
  H22      1.0000 0.54160  0.45560  0.06790  Biso   1.000  H
  C42      1.0000 0.62760  0.34328  0.32630  Biso   1.000  C
  C43      1.0000 0.23060  0.74775  0.20340  Biso   1.000  C
  C44      1.0000 0.14080  0.74832  0.23110  Biso   1.000  C
  C45      1.0000 0.08270  0.78050  0.17770  Biso   1.000  C
  H23      1.0000 0.10020  0.80070  0.12600  Biso   1.000  H
  C46      1.0000 0.99890  0.78230  0.20210  Biso   1.000  C
  C47      1.0000 0.96950  0.75210  0.27970  Biso   1.000  C
  C48      1.0000 0.02720  0.71940  0.32460  Biso   1.000  C
  H24      1.0000 0.00810  0.69800  0.36990  Biso   1.000  H
  C49      1.0000 0.11270  0.71770  0.30400  Biso   1.000  C
  H25      1.0000 0.15120  0.69600  0.33920  Biso   1.000  H
  C50      1.0000 0.87900  0.75340  0.30970  Biso   1.000  C
  C51      1.0000 0.81530  0.72300  0.25340  Biso   1.000  C
  H26      1.0000 0.83240  0.70150  0.20640  Biso   1.000  H
  C52      1.0000 0.72840  0.72400  0.26520  Biso   1.000  C
  H27      1.0000 0.68710  0.70380  0.22360  Biso   1.000  H
  C53      1.0000 0.70190  0.75510  0.33940  Biso   1.000  C
  C54      1.0000 0.76590  0.78430  0.40210  Biso   1.000  C
  H28      1.0000 0.74990  0.80500  0.45370  Biso   1.000  H
  C55      1.0000 0.85270  0.78298  0.38880  Biso   1.000  C
  C56      1.0000 0.60640  0.75803  0.35070  Biso   1.000  C
  N6       1.0000 0.68750  0.52910  0.09030  Biso   1.000  N
  N7       1.0000 0.93840  0.81570  0.13670  Biso   1.000  N
  N8       1.0000 0.91620  0.81499  0.46380  Biso   1.000  N
  N9       1.0000 0.68890  0.48303  0.51030  Biso   1.000  N
  O45      1.0000 0.97450  0.84570  0.10430  Biso   1.000  O
  O46      1.0000 0.85720  0.80690  0.09880  Biso   1.000  O
  O47      1.0000 0.99480  0.81450  0.45900  Biso   1.000  O
  O48      1.0000 0.89450  0.83670  0.54740  Biso   1.000  O
  O49      1.0000 0.75750  0.50240  0.19790  Biso   1.000  O
  O50      1.0000 0.77530  0.55950  0.13690  Biso   1.000  O
  O51      1.0000 0.73490  0.50970  0.47790  Biso   1.000  O
  O52      1.0000 0.66150  0.47360  0.60870  Biso   1.000  O
  N10      1.0000 0.72110  0.53470  0.15660  Biso   1.000  N
  Cu7      1.0000 0.41971  0.78336  0.77536  Biso   1.000  Cu
  Cu8      1.0000 0.49278  0.78274  0.51692  Biso   1.000  Cu
  Cu9      1.0000 0.34592  0.72533  0.54010  Biso   1.000  Cu
  O53      1.0000 0.38230  0.78197  0.57520  Biso   1.000  O
  H29      1.0000 0.34230  0.79940  0.53610  Biso   1.000  H
  O54      1.0000 0.46760  0.84216  0.76530  Biso   1.000  O
  O55      1.0000 0.52800  0.83736  0.58590  Biso   1.000  O
  O56      1.0000 0.29490  0.77168  0.78910  Biso   1.000  O
  O57      1.0000 0.23740  0.73329  0.59990  Biso   1.000  O
  O58      1.0000 0.45570  0.72481  0.47280  Biso   1.000  O
  H30      1.0000 0.49580  0.70790  0.51560  Biso   1.000  H
  O59      1.0000 0.95210  0.66550  0.53990  Biso   1.000  O
  O60      1.0000 0.90170  0.66340  0.70590  Biso   1.000  O
  O61      1.0000 0.99650  0.69520  0.00060  Biso   1.000  O
  O62      1.0000 0.88100  0.65440  0.99510  Biso   1.000  O
  O63      1.0000 0.72460  0.00400  0.60680  Biso   1.000  O
  O64      1.0000 0.72420  0.94820  0.52720  Biso   1.000  O
  O65      1.0000 0.70580  0.98131  0.99470  Biso   1.000  O
  O66      1.0000 0.70520  0.03000  0.12810  Biso   1.000  O
  O67      1.0000 0.59820  0.72126  0.95130  Biso   1.000  O
  O68      1.0000 0.54570  0.76021  0.76460  Biso   1.000  O
  O69      1.0000 0.59890  0.18018  0.72990  Biso   1.000  O
  O70      1.0000 0.66400  0.16751  0.95370  Biso   1.000  O
  C57      1.0000 0.50770  0.85609  0.68210  Biso   1.000  C
  C58      1.0000 0.53450  0.90017  0.70070  Biso   1.000  C
  C59      1.0000 0.48870  0.92640  0.76190  Biso   1.000  C
  H31      1.0000 0.44150  0.91670  0.79390  Biso   1.000  H
  C60      1.0000 0.51180  0.96750  0.77730  Biso   1.000  C
  H32      1.0000 0.47740  0.98510  0.81410  Biso   1.000  H
  C61      1.0000 0.58630  0.98270  0.73810  Biso   1.000  C
  C62      1.0000 0.63020  0.95530  0.67480  Biso   1.000  C
  C63      1.0000 0.60490  0.91517  0.65330  Biso   1.000  C
  H33      1.0000 0.63480  0.89810  0.60720  Biso   1.000  H
  C64      1.0000 0.60680  0.02690  0.76000  Biso   1.000  C
  C65      1.0000 0.64850  0.04340  0.88680  Biso   1.000  C
  C66      1.0000 0.65790  0.08510  0.91170  Biso   1.000  C
  H34      1.0000 0.68730  0.09500  0.99930  Biso   1.000  H
  C67      1.0000 0.62260  0.11131  0.80370  Biso   1.000  C
  C68      1.0000 0.57880  0.09530  0.67580  Biso   1.000  C
  H35      1.0000 0.55380  0.11270  0.60240  Biso   1.000  H
  C69      1.0000 0.57150  0.05420  0.65540  Biso   1.000  C
  H36      1.0000 0.54160  0.04440  0.56790  Biso   1.000  H
  C70      1.0000 0.62760  0.15672  0.82630  Biso   1.000  C
  C71      1.0000 0.23060  0.75225  0.70340  Biso   1.000  C
  C72      1.0000 0.14080  0.75168  0.73110  Biso   1.000  C
  C73      1.0000 0.08270  0.71950  0.67770  Biso   1.000  C
  H37      1.0000 0.10020  0.69930  0.62600  Biso   1.000  H
  C74      1.0000 0.99890  0.71770  0.70210  Biso   1.000  C
  C75      1.0000 0.96950  0.74790  0.77970  Biso   1.000  C
  C76      1.0000 0.02720  0.78060  0.82460  Biso   1.000  C
  H38      1.0000 0.00810  0.80200  0.86990  Biso   1.000  H
  C77      1.0000 0.11270  0.78230  0.80400  Biso   1.000  C
  H39      1.0000 0.15120  0.80400  0.83920  Biso   1.000  H
  C78      1.0000 0.87900  0.74660  0.80970  Biso   1.000  C
  C79      1.0000 0.81530  0.77700  0.75340  Biso   1.000  C
  H40      1.0000 0.83240  0.79850  0.70640  Biso   1.000  H
  C80      1.0000 0.72840  0.77600  0.76520  Biso   1.000  C
  H41      1.0000 0.68710  0.79620  0.72360  Biso   1.000  H
  C81      1.0000 0.70190  0.74490  0.83940  Biso   1.000  C
  C82      1.0000 0.76590  0.71570  0.90210  Biso   1.000  C
  H42      1.0000 0.74990  0.69500  0.95370  Biso   1.000  H
  C83      1.0000 0.85270  0.71702  0.88880  Biso   1.000  C
  C84      1.0000 0.60640  0.74197  0.85070  Biso   1.000  C
  N11      1.0000 0.68750  0.97090  0.59030  Biso   1.000  N
  N12      1.0000 0.93840  0.68430  0.63670  Biso   1.000  N
  N13      1.0000 0.91620  0.68501  0.96380  Biso   1.000  N
  N14      1.0000 0.68890  0.01697  0.01030  Biso   1.000  N
  O71      1.0000 0.97450  0.65430  0.60430  Biso   1.000  O
  O72      1.0000 0.85720  0.69310  0.59880  Biso   1.000  O
  O73      1.0000 0.99480  0.68550  0.95900  Biso   1.000  O
  O74      1.0000 0.89450  0.66330  0.04740  Biso   1.000  O
  O75      1.0000 0.75750  0.99760  0.69790  Biso   1.000  O
  O76      1.0000 0.77530  0.94050  0.63690  Biso   1.000  O
  O77      1.0000 0.73490  0.99030  0.97790  Biso   1.000  O
  O78      1.0000 0.66150  0.02640  0.10870  Biso   1.000  O
  N15      1.0000 0.72110  0.96530  0.65660  Biso   1.000  N
  Cu10     1.0000 0.58029  0.28337  0.72464  Biso   1.000  Cu
  Cu11     1.0000 0.50722  0.28274  0.98308  Biso   1.000  Cu
  Cu12     1.0000 0.65408  0.22533  0.95990  Biso   1.000  Cu
  O79      1.0000 0.61770  0.28197  0.92480  Biso   1.000  O
  H43      1.0000 0.65770  0.29940  0.96390  Biso   1.000  H
  O80      1.0000 0.53240  0.34216  0.73470  Biso   1.000  O
  O81      1.0000 0.47200  0.33736  0.91410  Biso   1.000  O
  O82      1.0000 0.70510  0.27168  0.71090  Biso   1.000  O
  O83      1.0000 0.76260  0.23329  0.90010  Biso   1.000  O
  O84      1.0000 0.54430  0.22481  0.02720  Biso   1.000  O
  H44      1.0000 0.50420  0.20790  0.98440  Biso   1.000  H
  O85      1.0000 0.04790  0.16550  0.96010  Biso   1.000  O
  O86      1.0000 0.09830  0.16340  0.79410  Biso   1.000  O
  O87      1.0000 0.00350  0.19520  0.49940  Biso   1.000  O
  O88      1.0000 0.11900  0.15440  0.50490  Biso   1.000  O
  O89      1.0000 0.27540  0.50400  0.89320  Biso   1.000  O
  O90      1.0000 0.27580  0.44820  0.97280  Biso   1.000  O
  O91      1.0000 0.29420  0.48131  0.50530  Biso   1.000  O
  O92      1.0000 0.29480  0.53000  0.37190  Biso   1.000  O
  O93      1.0000 0.40180  0.22126  0.54870  Biso   1.000  O
  O94      1.0000 0.45430  0.26021  0.73540  Biso   1.000  O
  O95      1.0000 0.40110  0.68018  0.77010  Biso   1.000  O
  O96      1.0000 0.33600  0.66751  0.54630  Biso   1.000  O
  C85      1.0000 0.49230  0.35609  0.81790  Biso   1.000  C
  C86      1.0000 0.46550  0.40017  0.79930  Biso   1.000  C
  C87      1.0000 0.51130  0.42640  0.73810  Biso   1.000  C
  H45      1.0000 0.55850  0.41670  0.70610  Biso   1.000  H
  C88      1.0000 0.48820  0.46750  0.72270  Biso   1.000  C
  H46      1.0000 0.52260  0.48510  0.68590  Biso   1.000  H
  C89      1.0000 0.41370  0.48270  0.76190  Biso   1.000  C
  C90      1.0000 0.36980  0.45530  0.82520  Biso   1.000  C
  C91      1.0000 0.39510  0.41517  0.84670  Biso   1.000  C
  H47      1.0000 0.36520  0.39810  0.89280  Biso   1.000  H
  C92      1.0000 0.39320  0.52690  0.74000  Biso   1.000  C
  C93      1.0000 0.35150  0.54340  0.61320  Biso   1.000  C
  C94      1.0000 0.34210  0.58510  0.58830  Biso   1.000  C
  H48      1.0000 0.31270  0.59500  0.50070  Biso   1.000  H
  C95      1.0000 0.37740  0.61131  0.69630  Biso   1.000  C
  C96      1.0000 0.42120  0.59530  0.82420  Biso   1.000  C
  H49      1.0000 0.44620  0.61270  0.89760  Biso   1.000  H
  C97      1.0000 0.42850  0.55420  0.84460  Biso   1.000  C
  H50      1.0000 0.45840  0.54440  0.93210  Biso   1.000  H
  C98      1.0000 0.37240  0.65672  0.67370  Biso   1.000  C
  C99      1.0000 0.76940  0.25225  0.79660  Biso   1.000  C
  C100     1.0000 0.85920  0.25168  0.76890  Biso   1.000  C
  C101     1.0000 0.91730  0.21950  0.82230  Biso   1.000  C
  H51      1.0000 0.89980  0.19930  0.87400  Biso   1.000  H
  C102     1.0000 0.00110  0.21770  0.79790  Biso   1.000  C
  C103     1.0000 0.03050  0.24790  0.72030  Biso   1.000  C
  C104     1.0000 0.97280  0.28060  0.67540  Biso   1.000  C
  H52      1.0000 0.99190  0.30200  0.63010  Biso   1.000  H
  C105     1.0000 0.88730  0.28230  0.69600  Biso   1.000  C
  H53      1.0000 0.84880  0.30400  0.66080  Biso   1.000  H
  C106     1.0000 0.12100  0.24660  0.69030  Biso   1.000  C
  C107     1.0000 0.18470  0.27700  0.74660  Biso   1.000  C
  H54      1.0000 0.16760  0.29850  0.79360  Biso   1.000  H
  C108     1.0000 0.27160  0.27600  0.73480  Biso   1.000  C
  H55      1.0000 0.31290  0.29620  0.77640  Biso   1.000  H
  C109     1.0000 0.29810  0.24490  0.66060  Biso   1.000  C
  C110     1.0000 0.23410  0.21570  0.59790  Biso   1.000  C
  H56      1.0000 0.25010  0.19500  0.54630  Biso   1.000  H
  C111     1.0000 0.14730  0.21702  0.61120  Biso   1.000  C
  C112     1.0000 0.39360  0.24197  0.64930  Biso   1.000  C
  N16      1.0000 0.31250  0.47090  0.90970  Biso   1.000  N
  N17      1.0000 0.06160  0.18430  0.86330  Biso   1.000  N
  N18      1.0000 0.08380  0.18501  0.53620  Biso   1.000  N
  N19      1.0000 0.31110  0.51697  0.48970  Biso   1.000  N
  O97      1.0000 0.02550  0.15430  0.89570  Biso   1.000  O
  O98      1.0000 0.14280  0.19310  0.90120  Biso   1.000  O
  O99      1.0000 0.00520  0.18550  0.54100  Biso   1.000  O
  O100     1.0000 0.10550  0.16330  0.45260  Biso   1.000  O
  O101     1.0000 0.24250  0.49760  0.80210  Biso   1.000  O
  O102     1.0000 0.22470  0.44050  0.86310  Biso   1.000  O
  O103     1.0000 0.26510  0.49030  0.52210  Biso   1.000  O
  O104     1.0000 0.33850  0.52640  0.39130  Biso   1.000  O
  N20      1.0000 0.27890  0.46530  0.84340  Biso   1.000  N
