data_image0
_cell_length_a       15.6019
_cell_length_b       15.6019
_cell_length_c       15.6019
_cell_angle_alpha    90
_cell_angle_beta     90
_cell_angle_gamma    90

_symmetry_space_group_name_H-M    "P 1"
_symmetry_int_tables_number       1

loop_
  _symmetry_equiv_pos_as_xyz
  'x, y, z'

loop_
  _atom_site_label
  _atom_site_occupancy
  _atom_site_fract_x
  _atom_site_fract_y
  _atom_site_fract_z
  _atom_site_thermal_displace_type
  _atom_site_B_iso_or_equiv
  _atom_site_type_symbol
  C1       1.0000 0.26870  0.50370  0.01150  Biso   1.000  C
  C2       1.0000 0.27030  0.40730  0.01920  Biso   1.000  C
  H1       1.0000 0.21210  0.38650  0.02640  Biso   1.000  H
  H2       1.0000 0.30260  0.39140  0.06980  Biso   1.000  H
  C3       1.0000 0.31040  0.36400  0.94050  Biso   1.000  C
  H3       1.0000 0.37090  0.38040  0.93640  Biso   1.000  H
  C4       1.0000 0.26390  0.39290  0.86010  Biso   1.000  C
  H4       1.0000 0.20470  0.37220  0.86260  Biso   1.000  H
  C5       1.0000 0.26260  0.49070  0.85110  Biso   1.000  C
  H5       1.0000 0.22930  0.50580  0.80000  Biso   1.000  H
  C6       1.0000 0.21940  0.53070  0.93010  Biso   1.000  C
  H6       1.0000 0.16040  0.51150  0.93380  Biso   1.000  H
  H7       1.0000 0.21940  0.59270  0.92500  Biso   1.000  H
  C7       1.0000 0.22350  0.54060  0.09220  Biso   1.000  C
  O1       1.0000 0.35270  0.53760  0.00780  Biso   1.000  O
  H8       1.0000 0.36850  0.54000  0.95770  Biso   1.000  H
  O2       1.0000 0.27160  0.58400  0.14190  Biso   1.000  O
  O3       1.0000 0.14650  0.52680  0.10400  Biso   1.000  O
  O4       1.0000 0.30400  0.27230  0.94390  Biso   1.000  O
  H9       1.0000 0.32090  0.25530  0.99070  Biso   1.000  H
  O5       1.0000 0.30590  0.35340  0.78810  Biso   1.000  O
  H10      1.0000 0.28440  0.37090  0.74350  Biso   1.000  H
  O6       1.0000 0.34880  0.52310  0.84100  Biso   1.000  O
  H11      1.0000 0.36890  0.53430  0.88820  Biso   1.000  H
  C8       1.0000 0.23130  0.49630  0.51150  Biso   1.000  C
  C9       1.0000 0.22970  0.59270  0.51920  Biso   1.000  C
  H12      1.0000 0.28790  0.61350  0.52640  Biso   1.000  H
  H13      1.0000 0.19740  0.60860  0.56980  Biso   1.000  H
  C10      1.0000 0.18960  0.63600  0.44050  Biso   1.000  C
  H14      1.0000 0.12910  0.61960  0.43640  Biso   1.000  H
  C11      1.0000 0.23610  0.60710  0.36010  Biso   1.000  C
  H15      1.0000 0.29530  0.62780  0.36260  Biso   1.000  H
  C12      1.0000 0.23740  0.50930  0.35110  Biso   1.000  C
  H16      1.0000 0.27070  0.49420  0.30000  Biso   1.000  H
  C13      1.0000 0.28060  0.46930  0.43010  Biso   1.000  C
  H17      1.0000 0.33960  0.48850  0.43380  Biso   1.000  H
  H18      1.0000 0.28060  0.40730  0.42500  Biso   1.000  H
  C14      1.0000 0.27650  0.45940  0.59220  Biso   1.000  C
  O7       1.0000 0.14730  0.46240  0.50780  Biso   1.000  O
  H19      1.0000 0.13150  0.46000  0.45770  Biso   1.000  H
  O8       1.0000 0.22840  0.41600  0.64190  Biso   1.000  O
  O9       1.0000 0.35350  0.47320  0.60400  Biso   1.000  O
  O10      1.0000 0.19600  0.72770  0.44390  Biso   1.000  O
  H20      1.0000 0.17910  0.74470  0.49070  Biso   1.000  H
  O11      1.0000 0.19410  0.64660  0.28810  Biso   1.000  O
  H21      1.0000 0.21560  0.62910  0.24350  Biso   1.000  H
  O12      1.0000 0.15120  0.47690  0.34100  Biso   1.000  O
  H22      1.0000 0.13110  0.46570  0.38820  Biso   1.000  H
  C15      1.0000 0.73130  0.00370  0.48850  Biso   1.000  C
  C16      1.0000 0.72970  0.90730  0.48080  Biso   1.000  C
  H23      1.0000 0.78790  0.88650  0.47360  Biso   1.000  H
  H24      1.0000 0.69740  0.89140  0.43020  Biso   1.000  H
  C17      1.0000 0.68960  0.86400  0.55950  Biso   1.000  C
  H25      1.0000 0.62910  0.88040  0.56360  Biso   1.000  H
  C18      1.0000 0.73610  0.89290  0.63990  Biso   1.000  C
  H26      1.0000 0.79530  0.87220  0.63740  Biso   1.000  H
  C19      1.0000 0.73740  0.99070  0.64890  Biso   1.000  C
  H27      1.0000 0.77070  0.00580  0.70000  Biso   1.000  H
  C20      1.0000 0.78060  0.03070  0.56990  Biso   1.000  C
  H28      1.0000 0.83960  0.01150  0.56620  Biso   1.000  H
  H29      1.0000 0.78060  0.09270  0.57500  Biso   1.000  H
  C21      1.0000 0.77650  0.04060  0.40780  Biso   1.000  C
  O13      1.0000 0.64730  0.03760  0.49220  Biso   1.000  O
  H30      1.0000 0.63150  0.04000  0.54230  Biso   1.000  H
  O14      1.0000 0.72840  0.08400  0.35810  Biso   1.000  O
  O15      1.0000 0.85350  0.02680  0.39600  Biso   1.000  O
  O16      1.0000 0.69600  0.77230  0.55610  Biso   1.000  O
  H31      1.0000 0.67910  0.75530  0.50930  Biso   1.000  H
  O17      1.0000 0.69410  0.85340  0.71190  Biso   1.000  O
  H32      1.0000 0.71560  0.87090  0.75650  Biso   1.000  H
  O18      1.0000 0.65120  0.02310  0.65900  Biso   1.000  O
  H33      1.0000 0.63110  0.03430  0.61180  Biso   1.000  H
  C22      1.0000 0.76870  0.99630  0.98850  Biso   1.000  C
  C23      1.0000 0.77030  0.09270  0.98080  Biso   1.000  C
  H34      1.0000 0.71210  0.11350  0.97360  Biso   1.000  H
  H35      1.0000 0.80260  0.10860  0.93020  Biso   1.000  H
  C24      1.0000 0.81040  0.13600  0.05950  Biso   1.000  C
  H36      1.0000 0.87090  0.11960  0.06360  Biso   1.000  H
  C25      1.0000 0.76390  0.10710  0.13990  Biso   1.000  C
  H37      1.0000 0.70470  0.12780  0.13740  Biso   1.000  H
  C26      1.0000 0.76260  0.00930  0.14890  Biso   1.000  C
  H38      1.0000 0.72930  0.99420  0.20000  Biso   1.000  H
  C27      1.0000 0.71940  0.96930  0.06990  Biso   1.000  C
  H39      1.0000 0.66040  0.98850  0.06620  Biso   1.000  H
  H40      1.0000 0.71940  0.90730  0.07500  Biso   1.000  H
  C28      1.0000 0.72350  0.95940  0.90780  Biso   1.000  C
  O19      1.0000 0.85270  0.96240  0.99220  Biso   1.000  O
  H41      1.0000 0.86850  0.96000  0.04230  Biso   1.000  H
  O20      1.0000 0.77160  0.91600  0.85810  Biso   1.000  O
  O21      1.0000 0.64650  0.97320  0.89600  Biso   1.000  O
  O22      1.0000 0.80400  0.22770  0.05610  Biso   1.000  O
  H42      1.0000 0.82090  0.24470  0.00930  Biso   1.000  H
  O23      1.0000 0.80590  0.14660  0.21190  Biso   1.000  O
  H43      1.0000 0.78440  0.12910  0.25650  Biso   1.000  H
  O24      1.0000 0.84880  0.97690  0.15900  Biso   1.000  O
  H44      1.0000 0.86890  0.96570  0.11180  Biso   1.000  H
  C29      1.0000 0.01150  0.26870  0.50370  Biso   1.000  C
  C30      1.0000 0.01920  0.27030  0.40730  Biso   1.000  C
  H45      1.0000 0.02640  0.21210  0.38650  Biso   1.000  H
  H46      1.0000 0.06980  0.30260  0.39140  Biso   1.000  H
  C31      1.0000 0.94050  0.31040  0.36400  Biso   1.000  C
  H47      1.0000 0.93640  0.37090  0.38040  Biso   1.000  H
  C32      1.0000 0.86010  0.26390  0.39290  Biso   1.000  C
  H48      1.0000 0.86260  0.20470  0.37220  Biso   1.000  H
  C33      1.0000 0.85110  0.26260  0.49070  Biso   1.000  C
  H49      1.0000 0.80000  0.22930  0.50580  Biso   1.000  H
  C34      1.0000 0.93010  0.21940  0.53070  Biso   1.000  C
  H50      1.0000 0.93380  0.16040  0.51150  Biso   1.000  H
  H51      1.0000 0.92500  0.21940  0.59270  Biso   1.000  H
  C35      1.0000 0.09220  0.22350  0.54060  Biso   1.000  C
  O25      1.0000 0.00780  0.35270  0.53760  Biso   1.000  O
  H52      1.0000 0.95770  0.36850  0.54000  Biso   1.000  H
  O26      1.0000 0.14190  0.27160  0.58400  Biso   1.000  O
  O27      1.0000 0.10400  0.14650  0.52680  Biso   1.000  O
  O28      1.0000 0.94390  0.30400  0.27230  Biso   1.000  O
  H53      1.0000 0.99070  0.32090  0.25530  Biso   1.000  H
  O29      1.0000 0.78810  0.30590  0.35340  Biso   1.000  O
  H54      1.0000 0.74350  0.28440  0.37090  Biso   1.000  H
  O30      1.0000 0.84100  0.34880  0.52310  Biso   1.000  O
  H55      1.0000 0.88820  0.36890  0.53430  Biso   1.000  H
  C36      1.0000 0.51150  0.23130  0.49630  Biso   1.000  C
  C37      1.0000 0.51920  0.22970  0.59270  Biso   1.000  C
  H56      1.0000 0.52640  0.28790  0.61350  Biso   1.000  H
  H57      1.0000 0.56980  0.19740  0.60860  Biso   1.000  H
  C38      1.0000 0.44050  0.18960  0.63600  Biso   1.000  C
  H58      1.0000 0.43640  0.12910  0.61960  Biso   1.000  H
  C39      1.0000 0.36010  0.23610  0.60710  Biso   1.000  C
  H59      1.0000 0.36260  0.29530  0.62780  Biso   1.000  H
  C40      1.0000 0.35110  0.23740  0.50930  Biso   1.000  C
  H60      1.0000 0.30000  0.27070  0.49420  Biso   1.000  H
  C41      1.0000 0.43010  0.28060  0.46930  Biso   1.000  C
  H61      1.0000 0.43380  0.33960  0.48850  Biso   1.000  H
  H62      1.0000 0.42500  0.28060  0.40730  Biso   1.000  H
  C42      1.0000 0.59220  0.27650  0.45940  Biso   1.000  C
  O31      1.0000 0.50780  0.14730  0.46240  Biso   1.000  O
  H63      1.0000 0.45770  0.13150  0.46000  Biso   1.000  H
  O32      1.0000 0.64190  0.22840  0.41600  Biso   1.000  O
  O33      1.0000 0.60400  0.35350  0.47320  Biso   1.000  O
  O34      1.0000 0.44390  0.19600  0.72770  Biso   1.000  O
  H64      1.0000 0.49070  0.17910  0.74470  Biso   1.000  H
  O35      1.0000 0.28810  0.19410  0.64660  Biso   1.000  O
  H65      1.0000 0.24350  0.21560  0.62910  Biso   1.000  H
  O36      1.0000 0.34100  0.15120  0.47690  Biso   1.000  O
  H66      1.0000 0.38820  0.13110  0.46570  Biso   1.000  H
  C43      1.0000 0.48850  0.73130  0.00370  Biso   1.000  C
  C44      1.0000 0.48080  0.72970  0.90730  Biso   1.000  C
  H67      1.0000 0.47360  0.78790  0.88650  Biso   1.000  H
  H68      1.0000 0.43020  0.69740  0.89140  Biso   1.000  H
  C45      1.0000 0.55950  0.68960  0.86400  Biso   1.000  C
  H69      1.0000 0.56360  0.62910  0.88040  Biso   1.000  H
  C46      1.0000 0.63990  0.73610  0.89290  Biso   1.000  C
  H70      1.0000 0.63740  0.79530  0.87220  Biso   1.000  H
  C47      1.0000 0.64890  0.73740  0.99070  Biso   1.000  C
  H71      1.0000 0.70000  0.77070  0.00580  Biso   1.000  H
  C48      1.0000 0.56990  0.78060  0.03070  Biso   1.000  C
  H72      1.0000 0.56620  0.83960  0.01150  Biso   1.000  H
  H73      1.0000 0.57500  0.78060  0.09270  Biso   1.000  H
  C49      1.0000 0.40780  0.77650  0.04060  Biso   1.000  C
  O37      1.0000 0.49220  0.64730  0.03760  Biso   1.000  O
  H74      1.0000 0.54230  0.63150  0.04000  Biso   1.000  H
  O38      1.0000 0.35810  0.72840  0.08400  Biso   1.000  O
  O39      1.0000 0.39600  0.85350  0.02680  Biso   1.000  O
  O40      1.0000 0.55610  0.69600  0.77230  Biso   1.000  O
  H75      1.0000 0.50930  0.67910  0.75530  Biso   1.000  H
  O41      1.0000 0.71190  0.69410  0.85340  Biso   1.000  O
  H76      1.0000 0.75650  0.71560  0.87090  Biso   1.000  H
  O42      1.0000 0.65900  0.65120  0.02310  Biso   1.000  O
  H77      1.0000 0.61180  0.63110  0.03430  Biso   1.000  H
  C50      1.0000 0.98850  0.76870  0.99630  Biso   1.000  C
  C51      1.0000 0.98080  0.77030  0.09270  Biso   1.000  C
  H78      1.0000 0.97360  0.71210  0.11350  Biso   1.000  H
  H79      1.0000 0.93020  0.80260  0.10860  Biso   1.000  H
  C52      1.0000 0.05950  0.81040  0.13600  Biso   1.000  C
  H80      1.0000 0.06360  0.87090  0.11960  Biso   1.000  H
  C53      1.0000 0.13990  0.76390  0.10710  Biso   1.000  C
  H81      1.0000 0.13740  0.70470  0.12780  Biso   1.000  H
  C54      1.0000 0.14890  0.76260  0.00930  Biso   1.000  C
  H82      1.0000 0.20000  0.72930  0.99420  Biso   1.000  H
  C55      1.0000 0.06990  0.71940  0.96930  Biso   1.000  C
  H83      1.0000 0.06620  0.66040  0.98850  Biso   1.000  H
  H84      1.0000 0.07500  0.71940  0.90730  Biso   1.000  H
  C56      1.0000 0.90780  0.72350  0.95940  Biso   1.000  C
  O43      1.0000 0.99220  0.85270  0.96240  Biso   1.000  O
  H85      1.0000 0.04230  0.86850  0.96000  Biso   1.000  H
  O44      1.0000 0.85810  0.77160  0.91600  Biso   1.000  O
  O45      1.0000 0.89600  0.64650  0.97320  Biso   1.000  O
  O46      1.0000 0.05610  0.80400  0.22770  Biso   1.000  O
  H86      1.0000 0.00930  0.82090  0.24470  Biso   1.000  H
  O47      1.0000 0.21190  0.80590  0.14660  Biso   1.000  O
  H87      1.0000 0.25650  0.78440  0.12910  Biso   1.000  H
  O48      1.0000 0.15900  0.84880  0.97690  Biso   1.000  O
  H88      1.0000 0.11180  0.86890  0.96570  Biso   1.000  H
  C57      1.0000 0.50370  0.01150  0.26870  Biso   1.000  C
  C58      1.0000 0.40730  0.01920  0.27030  Biso   1.000  C
  H89      1.0000 0.38650  0.02640  0.21210  Biso   1.000  H
  H90      1.0000 0.39140  0.06980  0.30260  Biso   1.000  H
  C59      1.0000 0.36400  0.94050  0.31040  Biso   1.000  C
  H91      1.0000 0.38040  0.93640  0.37090  Biso   1.000  H
  C60      1.0000 0.39290  0.86010  0.26390  Biso   1.000  C
  H92      1.0000 0.37220  0.86260  0.20470  Biso   1.000  H
  C61      1.0000 0.49070  0.85110  0.26260  Biso   1.000  C
  H93      1.0000 0.50580  0.80000  0.22930  Biso   1.000  H
  C62      1.0000 0.53070  0.93010  0.21940  Biso   1.000  C
  H94      1.0000 0.51150  0.93380  0.16040  Biso   1.000  H
  H95      1.0000 0.59270  0.92500  0.21940  Biso   1.000  H
  C63      1.0000 0.54060  0.09220  0.22350  Biso   1.000  C
  O49      1.0000 0.53760  0.00780  0.35270  Biso   1.000  O
  H96      1.0000 0.54000  0.95770  0.36850  Biso   1.000  H
  O50      1.0000 0.58400  0.14190  0.27160  Biso   1.000  O
  O51      1.0000 0.52680  0.10400  0.14650  Biso   1.000  O
  O52      1.0000 0.27230  0.94390  0.30400  Biso   1.000  O
  H97      1.0000 0.25530  0.99070  0.32090  Biso   1.000  H
  O53      1.0000 0.35340  0.78810  0.30590  Biso   1.000  O
  H98      1.0000 0.37090  0.74350  0.28440  Biso   1.000  H
  O54      1.0000 0.52310  0.84100  0.34880  Biso   1.000  O
  H99      1.0000 0.53430  0.88820  0.36890  Biso   1.000  H
  C64      1.0000 0.49630  0.51150  0.23130  Biso   1.000  C
  C65      1.0000 0.59270  0.51920  0.22970  Biso   1.000  C
  H100     1.0000 0.61350  0.52640  0.28790  Biso   1.000  H
  H101     1.0000 0.60860  0.56980  0.19740  Biso   1.000  H
  C66      1.0000 0.63600  0.44050  0.18960  Biso   1.000  C
  H102     1.0000 0.61960  0.43640  0.12910  Biso   1.000  H
  C67      1.0000 0.60710  0.36010  0.23610  Biso   1.000  C
  H103     1.0000 0.62780  0.36260  0.29530  Biso   1.000  H
  C68      1.0000 0.50930  0.35110  0.23740  Biso   1.000  C
  H104     1.0000 0.49420  0.30000  0.27070  Biso   1.000  H
  C69      1.0000 0.46930  0.43010  0.28060  Biso   1.000  C
  H105     1.0000 0.48850  0.43380  0.33960  Biso   1.000  H
  H106     1.0000 0.40730  0.42500  0.28060  Biso   1.000  H
  C70      1.0000 0.45940  0.59220  0.27650  Biso   1.000  C
  O55      1.0000 0.46240  0.50780  0.14730  Biso   1.000  O
  H107     1.0000 0.46000  0.45770  0.13150  Biso   1.000  H
  O56      1.0000 0.41600  0.64190  0.22840  Biso   1.000  O
  O57      1.0000 0.47320  0.60400  0.35350  Biso   1.000  O
  O58      1.0000 0.72770  0.44390  0.19600  Biso   1.000  O
  H108     1.0000 0.74470  0.49070  0.17910  Biso   1.000  H
  O59      1.0000 0.64660  0.28810  0.19410  Biso   1.000  O
  H109     1.0000 0.62910  0.24350  0.21560  Biso   1.000  H
  O60      1.0000 0.47690  0.34100  0.15120  Biso   1.000  O
  H110     1.0000 0.46570  0.38820  0.13110  Biso   1.000  H
  C71      1.0000 0.00370  0.48850  0.73130  Biso   1.000  C
  C72      1.0000 0.90730  0.48080  0.72970  Biso   1.000  C
  H111     1.0000 0.88650  0.47360  0.78790  Biso   1.000  H
  H112     1.0000 0.89140  0.43020  0.69740  Biso   1.000  H
  C73      1.0000 0.86400  0.55950  0.68960  Biso   1.000  C
  H113     1.0000 0.88040  0.56360  0.62910  Biso   1.000  H
  C74      1.0000 0.89290  0.63990  0.73610  Biso   1.000  C
  H114     1.0000 0.87220  0.63740  0.79530  Biso   1.000  H
  C75      1.0000 0.99070  0.64890  0.73740  Biso   1.000  C
  H115     1.0000 0.00580  0.70000  0.77070  Biso   1.000  H
  C76      1.0000 0.03070  0.56990  0.78060  Biso   1.000  C
  H116     1.0000 0.01150  0.56620  0.83960  Biso   1.000  H
  H117     1.0000 0.09270  0.57500  0.78060  Biso   1.000  H
  C77      1.0000 0.04060  0.40780  0.77650  Biso   1.000  C
  O61      1.0000 0.03760  0.49220  0.64730  Biso   1.000  O
  H118     1.0000 0.04000  0.54230  0.63150  Biso   1.000  H
  O62      1.0000 0.08400  0.35810  0.72840  Biso   1.000  O
  O63      1.0000 0.02680  0.39600  0.85350  Biso   1.000  O
  O64      1.0000 0.77230  0.55610  0.69600  Biso   1.000  O
  H119     1.0000 0.75530  0.50930  0.67910  Biso   1.000  H
  O65      1.0000 0.85340  0.71190  0.69410  Biso   1.000  O
  H120     1.0000 0.87090  0.75650  0.71560  Biso   1.000  H
  O66      1.0000 0.02310  0.65900  0.65120  Biso   1.000  O
  H121     1.0000 0.03430  0.61180  0.63110  Biso   1.000  H
  C78      1.0000 0.99630  0.98850  0.76870  Biso   1.000  C
  C79      1.0000 0.09270  0.98080  0.77030  Biso   1.000  C
  H122     1.0000 0.11350  0.97360  0.71210  Biso   1.000  H
  H123     1.0000 0.10860  0.93020  0.80260  Biso   1.000  H
  C80      1.0000 0.13600  0.05950  0.81040  Biso   1.000  C
  H124     1.0000 0.11960  0.06360  0.87090  Biso   1.000  H
  C81      1.0000 0.10710  0.13990  0.76390  Biso   1.000  C
  H125     1.0000 0.12780  0.13740  0.70470  Biso   1.000  H
  C82      1.0000 0.00930  0.14890  0.76260  Biso   1.000  C
  H126     1.0000 0.99420  0.20000  0.72930  Biso   1.000  H
  C83      1.0000 0.96930  0.06990  0.71940  Biso   1.000  C
  H127     1.0000 0.98850  0.06620  0.66040  Biso   1.000  H
  H128     1.0000 0.90730  0.07500  0.71940  Biso   1.000  H
  C84      1.0000 0.95940  0.90780  0.72350  Biso   1.000  C
  O67      1.0000 0.96240  0.99220  0.85270  Biso   1.000  O
  H129     1.0000 0.96000  0.04230  0.86850  Biso   1.000  H
  O68      1.0000 0.91600  0.85810  0.77160  Biso   1.000  O
  O69      1.0000 0.97320  0.89600  0.64650  Biso   1.000  O
  O70      1.0000 0.22770  0.05610  0.80400  Biso   1.000  O
  H130     1.0000 0.24470  0.00930  0.82090  Biso   1.000  H
  O71      1.0000 0.14660  0.21190  0.80590  Biso   1.000  O
  H131     1.0000 0.12910  0.25650  0.78440  Biso   1.000  H
  O72      1.0000 0.97690  0.15900  0.84880  Biso   1.000  O
  H132     1.0000 0.96570  0.11180  0.86890  Biso   1.000  H
  Fe1      1.0000 0.39758  0.60242  0.10242  Biso   1.000  Fe
  Fe2      1.0000 0.10242  0.39758  0.60242  Biso   1.000  Fe
  Fe3      1.0000 0.60242  0.10242  0.39758  Biso   1.000  Fe
  Fe4      1.0000 0.89758  0.89758  0.89758  Biso   1.000  Fe
  Na1      1.0000 0.30217  0.19783  0.80217  Biso   1.000  Na
  Na2      1.0000 0.19783  0.80217  0.30217  Biso   1.000  Na
  Na3      1.0000 0.69783  0.69783  0.69783  Biso   1.000  Na
  Na4      1.0000 0.80217  0.30217  0.19783  Biso   1.000  Na
