data_image0
_cell_length_a       6.7567
_cell_length_b       16.231
_cell_length_c       16.3562
_cell_angle_alpha    90
_cell_angle_beta     97.495
_cell_angle_gamma    90

_symmetry_space_group_name_H-M    "P 1"
_symmetry_int_tables_number       1

loop_
  _symmetry_equiv_pos_as_xyz
  'x, y, z'

loop_
  _atom_site_label
  _atom_site_occupancy
  _atom_site_fract_x
  _atom_site_fract_y
  _atom_site_fract_z
  _atom_site_thermal_displace_type
  _atom_site_B_iso_or_equiv
  _atom_site_type_symbol
  Mg1      1.0000 0.44386  0.52570  0.41191  Biso   1.000  Mg
  O1       1.0000 0.33550  0.41165  0.37594  Biso   1.000  O
  O2       1.0000 0.02370  0.41292  0.40750  Biso   1.000  O
  O3       1.0000 0.04560  0.10304  0.07986  Biso   1.000  O
  O4       1.0000 0.79970  0.07903  0.15441  Biso   1.000  O
  O5       1.0000 0.69046  0.47426  0.48059  Biso   1.000  O
  H1       1.0000 0.68560  0.42580  0.46640  Biso   1.000  H
  N1       1.0000 0.56170  0.52710  0.28728  Biso   1.000  N
  C1       1.0000 0.15800  0.38733  0.36852  Biso   1.000  C
  C2       1.0000 0.10320  0.31961  0.30642  Biso   1.000  C
  C3       1.0000 0.06800  0.24208  0.33310  Biso   1.000  C
  H2       1.0000 0.07710  0.23170  0.38940  Biso   1.000  H
  C4       1.0000 0.01840  0.17793  0.27709  Biso   1.000  C
  H3       1.0000 0.99250  0.12580  0.29670  Biso   1.000  H
  C5       1.0000 0.00730  0.19055  0.19415  Biso   1.000  C
  C6       1.0000 0.03950  0.27082  0.16334  Biso   1.000  C
  C7       1.0000 0.01550  0.28970  0.07798  Biso   1.000  C
  H4       1.0000 0.98310  0.24790  0.03960  Biso   1.000  H
  C8       1.0000 0.03900  0.36823  0.05132  Biso   1.000  C
  H5       1.0000 0.02160  0.37940  0.99510  Biso   1.000  H
  C9       1.0000 0.08930  0.43243  0.10779  Biso   1.000  C
  H6       1.0000 0.10600  0.48570  0.08880  Biso   1.000  H
  C10      1.0000 0.11360  0.41694  0.19018  Biso   1.000  C
  H7       1.0000 0.14670  0.45990  0.22710  Biso   1.000  H
  C11      1.0000 0.08910  0.33625  0.22066  Biso   1.000  C
  C12      1.0000 0.94670  0.11889  0.13830  Biso   1.000  C
  C13      1.0000 0.62180  0.45840  0.25405  Biso   1.000  C
  H8       1.0000 0.66680  0.41540  0.28920  Biso   1.000  H
  C14      1.0000 0.62130  0.44700  0.17118  Biso   1.000  C
  H9       1.0000 0.66540  0.39730  0.15170  Biso   1.000  H
  C15      1.0000 0.55730  0.50740  0.11753  Biso   1.000  C
  C16      1.0000 0.50510  0.58190  0.15100  Biso   1.000  C
  H10      1.0000 0.46850  0.62670  0.11690  Biso   1.000  H
  C17      1.0000 0.50830  0.58870  0.23553  Biso   1.000  C
  H11      1.0000 0.47150  0.63860  0.25710  Biso   1.000  H
  C18      1.0000 0.54730  0.47780  0.02970  Biso   1.000  C
  H12      1.0000 0.60760  0.42850  0.01790  Biso   1.000  H
  C19      1.0000 0.50880  0.53270  0.02460  Biso   1.000  C
  H13      1.0000 0.49410  0.58690  0.00610  Biso   1.000  H
  Mg2      1.0000 0.55614  0.02570  0.08809  Biso   1.000  Mg
  O6       1.0000 0.66450  0.91165  0.12406  Biso   1.000  O
  O7       1.0000 0.97630  0.91292  0.09250  Biso   1.000  O
  O8       1.0000 0.95440  0.60304  0.42014  Biso   1.000  O
  O9       1.0000 0.20030  0.57903  0.34559  Biso   1.000  O
  O10      1.0000 0.30954  0.97426  0.01941  Biso   1.000  O
  H14      1.0000 0.31440  0.92580  0.03360  Biso   1.000  H
  N2       1.0000 0.43830  0.02710  0.21272  Biso   1.000  N
  C20      1.0000 0.84200  0.88733  0.13148  Biso   1.000  C
  C21      1.0000 0.89680  0.81961  0.19358  Biso   1.000  C
  C22      1.0000 0.93200  0.74208  0.16690  Biso   1.000  C
  H15      1.0000 0.92290  0.73170  0.11060  Biso   1.000  H
  C23      1.0000 0.98160  0.67793  0.22291  Biso   1.000  C
  H16      1.0000 0.00750  0.62580  0.20330  Biso   1.000  H
  C24      1.0000 0.99270  0.69055  0.30585  Biso   1.000  C
  C25      1.0000 0.96050  0.77082  0.33666  Biso   1.000  C
  C26      1.0000 0.98450  0.78970  0.42202  Biso   1.000  C
  H17      1.0000 0.01690  0.74790  0.46040  Biso   1.000  H
  C27      1.0000 0.96100  0.86823  0.44868  Biso   1.000  C
  H18      1.0000 0.97840  0.87940  0.50490  Biso   1.000  H
  C28      1.0000 0.91070  0.93243  0.39221  Biso   1.000  C
  H19      1.0000 0.89400  0.98570  0.41120  Biso   1.000  H
  C29      1.0000 0.88640  0.91694  0.30982  Biso   1.000  C
  H20      1.0000 0.85330  0.95990  0.27290  Biso   1.000  H
  C30      1.0000 0.91090  0.83625  0.27934  Biso   1.000  C
  C31      1.0000 0.05330  0.61889  0.36170  Biso   1.000  C
  C32      1.0000 0.37820  0.95840  0.24595  Biso   1.000  C
  H21      1.0000 0.33320  0.91540  0.21080  Biso   1.000  H
  C33      1.0000 0.37870  0.94700  0.32882  Biso   1.000  C
  H22      1.0000 0.33460  0.89730  0.34830  Biso   1.000  H
  C34      1.0000 0.44270  0.00740  0.38247  Biso   1.000  C
  C35      1.0000 0.49490  0.08190  0.34900  Biso   1.000  C
  H23      1.0000 0.53150  0.12670  0.38310  Biso   1.000  H
  C36      1.0000 0.49170  0.08870  0.26447  Biso   1.000  C
  H24      1.0000 0.52850  0.13860  0.24290  Biso   1.000  H
  C37      1.0000 0.45270  0.97780  0.47030  Biso   1.000  C
  H25      1.0000 0.39240  0.92850  0.48210  Biso   1.000  H
  C38      1.0000 0.49120  0.03270  0.47540  Biso   1.000  C
  H26      1.0000 0.50590  0.08690  0.49390  Biso   1.000  H
  Mg3      1.0000 0.55614  0.47430  0.58809  Biso   1.000  Mg
  O11      1.0000 0.66450  0.58835  0.62406  Biso   1.000  O
  O12      1.0000 0.97630  0.58708  0.59250  Biso   1.000  O
  O13      1.0000 0.95440  0.89696  0.92014  Biso   1.000  O
  O14      1.0000 0.20030  0.92097  0.84559  Biso   1.000  O
  O15      1.0000 0.30954  0.52574  0.51941  Biso   1.000  O
  H27      1.0000 0.31440  0.57420  0.53360  Biso   1.000  H
  N3       1.0000 0.43830  0.47290  0.71272  Biso   1.000  N
  C39      1.0000 0.84200  0.61267  0.63148  Biso   1.000  C
  C40      1.0000 0.89680  0.68039  0.69358  Biso   1.000  C
  C41      1.0000 0.93200  0.75792  0.66690  Biso   1.000  C
  H28      1.0000 0.92290  0.76830  0.61060  Biso   1.000  H
  C42      1.0000 0.98160  0.82207  0.72291  Biso   1.000  C
  H29      1.0000 0.00750  0.87420  0.70330  Biso   1.000  H
  C43      1.0000 0.99270  0.80945  0.80585  Biso   1.000  C
  C44      1.0000 0.96050  0.72918  0.83666  Biso   1.000  C
  C45      1.0000 0.98450  0.71030  0.92202  Biso   1.000  C
  H30      1.0000 0.01690  0.75210  0.96040  Biso   1.000  H
  C46      1.0000 0.96100  0.63177  0.94868  Biso   1.000  C
  H31      1.0000 0.97840  0.62060  0.00490  Biso   1.000  H
  C47      1.0000 0.91070  0.56757  0.89221  Biso   1.000  C
  H32      1.0000 0.89400  0.51430  0.91120  Biso   1.000  H
  C48      1.0000 0.88640  0.58306  0.80982  Biso   1.000  C
  H33      1.0000 0.85330  0.54010  0.77290  Biso   1.000  H
  C49      1.0000 0.91090  0.66375  0.77934  Biso   1.000  C
  C50      1.0000 0.05330  0.88111  0.86170  Biso   1.000  C
  C51      1.0000 0.37820  0.54160  0.74595  Biso   1.000  C
  H34      1.0000 0.33320  0.58460  0.71080  Biso   1.000  H
  C52      1.0000 0.37870  0.55300  0.82882  Biso   1.000  C
  H35      1.0000 0.33460  0.60270  0.84830  Biso   1.000  H
  C53      1.0000 0.44270  0.49260  0.88247  Biso   1.000  C
  C54      1.0000 0.49490  0.41810  0.84900  Biso   1.000  C
  H36      1.0000 0.53150  0.37330  0.88310  Biso   1.000  H
  C55      1.0000 0.49170  0.41130  0.76447  Biso   1.000  C
  H37      1.0000 0.52850  0.36140  0.74290  Biso   1.000  H
  C56      1.0000 0.45270  0.52220  0.97030  Biso   1.000  C
  H38      1.0000 0.39240  0.57150  0.98210  Biso   1.000  H
  C57      1.0000 0.49120  0.46730  0.97540  Biso   1.000  C
  H39      1.0000 0.50590  0.41310  0.99390  Biso   1.000  H
  Mg4      1.0000 0.44386  0.97430  0.91191  Biso   1.000  Mg
  O16      1.0000 0.33550  0.08835  0.87594  Biso   1.000  O
  O17      1.0000 0.02370  0.08708  0.90750  Biso   1.000  O
  O18      1.0000 0.04560  0.39696  0.57986  Biso   1.000  O
  O19      1.0000 0.79970  0.42097  0.65441  Biso   1.000  O
  O20      1.0000 0.69046  0.02574  0.98059  Biso   1.000  O
  H40      1.0000 0.68560  0.07420  0.96640  Biso   1.000  H
  N4       1.0000 0.56170  0.97290  0.78728  Biso   1.000  N
  C58      1.0000 0.15800  0.11267  0.86852  Biso   1.000  C
  C59      1.0000 0.10320  0.18039  0.80642  Biso   1.000  C
  C60      1.0000 0.06800  0.25792  0.83310  Biso   1.000  C
  H41      1.0000 0.07710  0.26830  0.88940  Biso   1.000  H
  C61      1.0000 0.01840  0.32207  0.77709  Biso   1.000  C
  H42      1.0000 0.99250  0.37420  0.79670  Biso   1.000  H
  C62      1.0000 0.00730  0.30945  0.69415  Biso   1.000  C
  C63      1.0000 0.03950  0.22918  0.66334  Biso   1.000  C
  C64      1.0000 0.01550  0.21030  0.57798  Biso   1.000  C
  H43      1.0000 0.98310  0.25210  0.53960  Biso   1.000  H
  C65      1.0000 0.03900  0.13177  0.55132  Biso   1.000  C
  H44      1.0000 0.02160  0.12060  0.49510  Biso   1.000  H
  C66      1.0000 0.08930  0.06757  0.60779  Biso   1.000  C
  H45      1.0000 0.10600  0.01430  0.58880  Biso   1.000  H
  C67      1.0000 0.11360  0.08306  0.69018  Biso   1.000  C
  H46      1.0000 0.14670  0.04010  0.72710  Biso   1.000  H
  C68      1.0000 0.08910  0.16375  0.72066  Biso   1.000  C
  C69      1.0000 0.94670  0.38111  0.63830  Biso   1.000  C
  C70      1.0000 0.62180  0.04160  0.75405  Biso   1.000  C
  H47      1.0000 0.66680  0.08460  0.78920  Biso   1.000  H
  C71      1.0000 0.62130  0.05300  0.67118  Biso   1.000  C
  H48      1.0000 0.66540  0.10270  0.65170  Biso   1.000  H
  C72      1.0000 0.55730  0.99260  0.61753  Biso   1.000  C
  C73      1.0000 0.50510  0.91810  0.65100  Biso   1.000  C
  H49      1.0000 0.46850  0.87330  0.61690  Biso   1.000  H
  C74      1.0000 0.50830  0.91130  0.73553  Biso   1.000  C
  H50      1.0000 0.47150  0.86140  0.75710  Biso   1.000  H
  C75      1.0000 0.54730  0.02220  0.52970  Biso   1.000  C
  H51      1.0000 0.60760  0.07150  0.51790  Biso   1.000  H
  C76      1.0000 0.50880  0.96730  0.52460  Biso   1.000  C
  H52      1.0000 0.49410  0.91310  0.50610  Biso   1.000  H
  Mg5      1.0000 0.00000  0.50000  0.50000  Biso   1.000  Mg
  Mg6      1.0000 0.00000  0.00000  0.00000  Biso   1.000  Mg
