data_image0
_cell_length_a       11.6164
_cell_length_b       16.3416
_cell_length_c       24.198
_cell_angle_alpha    90
_cell_angle_beta     99.02
_cell_angle_gamma    90

_symmetry_space_group_name_H-M    "P 1"
_symmetry_int_tables_number       1

loop_
  _symmetry_equiv_pos_as_xyz
  'x, y, z'

loop_
  _atom_site_label
  _atom_site_occupancy
  _atom_site_fract_x
  _atom_site_fract_y
  _atom_site_fract_z
  _atom_site_thermal_displace_type
  _atom_site_B_iso_or_equiv
  _atom_site_type_symbol
  Co1      1.0000 0.75508  0.64948  0.26112  Biso   1.000  Co
  Co2      1.0000 0.62700  0.50288  0.48782  Biso   1.000  Co
  C1       1.0000 0.04330  0.51390  0.34230  Biso   1.000  C
  H1       1.0000 0.12360  0.50700  0.35050  Biso   1.000  H
  C2       1.0000 0.96140  0.46370  0.35911  Biso   1.000  C
  C3       1.0000 0.85440  0.49950  0.33690  Biso   1.000  C
  H2       1.0000 0.78200  0.47890  0.34170  Biso   1.000  H
  C4       1.0000 0.98080  0.38480  0.39120  Biso   1.000  C
  H3       1.0000 0.05980  0.38350  0.41140  Biso   1.000  H
  H4       1.0000 0.92770  0.38190  0.41830  Biso   1.000  H
  C5       1.0000 0.96160  0.31240  0.35260  Biso   1.000  C
  C6       1.0000 0.04010  0.27150  0.32750  Biso   1.000  C
  H5       1.0000 0.12030  0.28000  0.33350  Biso   1.000  H
  C7       1.0000 0.85620  0.28030  0.32720  Biso   1.000  C
  H6       1.0000 0.78420  0.29840  0.33440  Biso   1.000  H
  C8       1.0000 0.78590  0.79710  0.34610  Biso   1.000  C
  H7       1.0000 0.85260  0.81660  0.33380  Biso   1.000  H
  C9       1.0000 0.73000  0.83620  0.38630  Biso   1.000  C
  C10      1.0000 0.63780  0.78700  0.39150  Biso   1.000  C
  H8       1.0000 0.58280  0.79630  0.41480  Biso   1.000  H
  C11      1.0000 0.76490  0.91460  0.41760  Biso   1.000  C
  H9       1.0000 0.84840  0.91410  0.43000  Biso   1.000  H
  H10      1.0000 0.72720  0.91690  0.45060  Biso   1.000  H
  C12      1.0000 0.73320  0.99050  0.38290  Biso   1.000  C
  C13      1.0000 0.75820  0.00890  0.32930  Biso   1.000  C
  H11      1.0000 0.79650  0.97330  0.30830  Biso   1.000  H
  C14      1.0000 0.67740  0.05930  0.39700  Biso   1.000  C
  H12      1.0000 0.64910  0.06760  0.43040  Biso   1.000  H
  C15      1.0000 0.81320  0.28050  0.48600  Biso   1.000  C
  H13      1.0000 0.81750  0.22550  0.47680  Biso   1.000  H
  C16      1.0000 0.89100  0.32240  0.52450  Biso   1.000  C
  C17      1.0000 0.84750  0.40170  0.52250  Biso   1.000  C
  H14      1.0000 0.88270  0.44470  0.54400  Biso   1.000  H
  C18      1.0000 0.00340  0.29060  0.55820  Biso   1.000  C
  H15      1.0000 0.00860  0.30840  0.59670  Biso   1.000  H
  H16      1.0000 0.00280  0.23120  0.55780  Biso   1.000  H
  C19      1.0000 0.10790  0.32120  0.53450  Biso   1.000  C
  C20      1.0000 0.16330  0.39620  0.54340  Biso   1.000  C
  H17      1.0000 0.14190  0.43640  0.56700  Biso   1.000  H
  C21      1.0000 0.16690  0.28220  0.49690  Biso   1.000  C
  H18      1.0000 0.15100  0.23010  0.48220  Biso   1.000  H
  C22      1.0000 0.52410  0.55550  0.29020  Biso   1.000  C
  C23      1.0000 0.46010  0.47340  0.28830  Biso   1.000  C
  H19      1.0000 0.40750  0.47350  0.25240  Biso   1.000  H
  C24      1.0000 0.53720  0.39770  0.28600  Biso   1.000  C
  H20      1.0000 0.59110  0.39240  0.32070  Biso   1.000  H
  H21      1.0000 0.58200  0.40300  0.25550  Biso   1.000  H
  C25      1.0000 0.45800  0.32160  0.27680  Biso   1.000  C
  H22      1.0000 0.40040  0.33370  0.24370  Biso   1.000  H
  C26      1.0000 0.38850  0.31160  0.32490  Biso   1.000  C
  H23      1.0000 0.33620  0.26490  0.31540  Biso   1.000  H
  C27      1.0000 0.31030  0.38700  0.32720  Biso   1.000  C
  H24      1.0000 0.26840  0.38150  0.35870  Biso   1.000  H
  H25      1.0000 0.25310  0.38890  0.29340  Biso   1.000  H
  C28      1.0000 0.37880  0.46830  0.33290  Biso   1.000  C
  H26      1.0000 0.32090  0.51170  0.32380  Biso   1.000  H
  C29      1.0000 0.46650  0.28980  0.38000  Biso   1.000  C
  C30      1.0000 0.43310  0.48200  0.39380  Biso   1.000  C
  C31      1.0000 0.51510  0.24110  0.26400  Biso   1.000  C
  O1       1.0000 0.62360  0.55850  0.27578  Biso   1.000  O
  O2       1.0000 0.44830  0.17870  0.26018  Biso   1.000  O
  O3       1.0000 0.61790  0.23886  0.25623  Biso   1.000  O
  O4       1.0000 0.54190  0.48702  0.40718  Biso   1.000  O
  O5       1.0000 0.35930  0.48730  0.42672  Biso   1.000  O
  O6       1.0000 0.42450  0.29770  0.42464  Biso   1.000  O
  O7       1.0000 0.56790  0.26520  0.37831  Biso   1.000  O
  N1       1.0000 0.86990  0.56690  0.30812  Biso   1.000  N
  N2       1.0000 0.98760  0.57490  0.31190  Biso   1.000  N
  H27      1.0000 0.02170  0.61390  0.29690  Biso   1.000  H
  N3       1.0000 0.86930  0.22080  0.29120  Biso   1.000  N
  N4       1.0000 0.98190  0.21600  0.29190  Biso   1.000  N
  H28      1.0000 0.01490  0.18190  0.27230  Biso   1.000  H
  N5       1.0000 0.73090  0.72860  0.32796  Biso   1.000  N
  N6       1.0000 0.64000  0.72290  0.35707  Biso   1.000  N
  H29      1.0000 0.59050  0.68340  0.35380  Biso   1.000  H
  N7       1.0000 0.72090  0.08240  0.31218  Biso   1.000  N
  N8       1.0000 0.67030  0.11320  0.35425  Biso   1.000  N
  H30      1.0000 0.63800  0.16060  0.35390  Biso   1.000  H
  N9       1.0000 0.74940  0.40880  0.48609  Biso   1.000  N
  N10      1.0000 0.72980  0.33320  0.46396  Biso   1.000  N
  H31      1.0000 0.67140  0.32050  0.43900  Biso   1.000  H
  N11      1.0000 0.25130  0.40410  0.51408  Biso   1.000  N
  N12      1.0000 0.25140  0.33250  0.48537  Biso   1.000  N
  H32      1.0000 0.29940  0.32100  0.46280  Biso   1.000  H
  O8       1.0000 0.47480  0.61960  0.30920  Biso   1.000  O
  O9       1.0000 0.46040  0.61670  0.29110  Biso   1.000  O
  Co3      1.0000 0.74492  0.14948  0.23888  Biso   1.000  Co
  Co4      1.0000 0.87300  0.00288  0.01218  Biso   1.000  Co
  C32      1.0000 0.45670  0.01390  0.15770  Biso   1.000  C
  H33      1.0000 0.37640  0.00700  0.14950  Biso   1.000  H
  C33      1.0000 0.53860  0.96370  0.14089  Biso   1.000  C
  C34      1.0000 0.64560  0.99950  0.16310  Biso   1.000  C
  H34      1.0000 0.71800  0.97890  0.15830  Biso   1.000  H
  C35      1.0000 0.51920  0.88480  0.10880  Biso   1.000  C
  H35      1.0000 0.44020  0.88350  0.08860  Biso   1.000  H
  H36      1.0000 0.57230  0.88190  0.08170  Biso   1.000  H
  C36      1.0000 0.53840  0.81240  0.14740  Biso   1.000  C
  C37      1.0000 0.45990  0.77150  0.17250  Biso   1.000  C
  H37      1.0000 0.37970  0.78000  0.16650  Biso   1.000  H
  C38      1.0000 0.64380  0.78030  0.17280  Biso   1.000  C
  H38      1.0000 0.71580  0.79840  0.16560  Biso   1.000  H
  C39      1.0000 0.71410  0.29710  0.15390  Biso   1.000  C
  H39      1.0000 0.64740  0.31660  0.16620  Biso   1.000  H
  C40      1.0000 0.77000  0.33620  0.11370  Biso   1.000  C
  C41      1.0000 0.86220  0.28700  0.10850  Biso   1.000  C
  H40      1.0000 0.91720  0.29630  0.08520  Biso   1.000  H
  C42      1.0000 0.73510  0.41460  0.08240  Biso   1.000  C
  H41      1.0000 0.65160  0.41410  0.07000  Biso   1.000  H
  H42      1.0000 0.77280  0.41690  0.04940  Biso   1.000  H
  C43      1.0000 0.76680  0.49050  0.11710  Biso   1.000  C
  C44      1.0000 0.74180  0.50890  0.17070  Biso   1.000  C
  H43      1.0000 0.70350  0.47330  0.19170  Biso   1.000  H
  C45      1.0000 0.82260  0.55930  0.10300  Biso   1.000  C
  H44      1.0000 0.85090  0.56760  0.06960  Biso   1.000  H
  C46      1.0000 0.68680  0.78050  0.01400  Biso   1.000  C
  H45      1.0000 0.68250  0.72550  0.02320  Biso   1.000  H
  C47      1.0000 0.60900  0.82240  0.97550  Biso   1.000  C
  C48      1.0000 0.65250  0.90170  0.97750  Biso   1.000  C
  H46      1.0000 0.61730  0.94470  0.95600  Biso   1.000  H
  C49      1.0000 0.49660  0.79060  0.94180  Biso   1.000  C
  H47      1.0000 0.49140  0.80840  0.90330  Biso   1.000  H
  H48      1.0000 0.49720  0.73120  0.94220  Biso   1.000  H
  C50      1.0000 0.39210  0.82120  0.96550  Biso   1.000  C
  C51      1.0000 0.33670  0.89620  0.95660  Biso   1.000  C
  H49      1.0000 0.35810  0.93640  0.93300  Biso   1.000  H
  C52      1.0000 0.33310  0.78220  0.00310  Biso   1.000  C
  H50      1.0000 0.34900  0.73010  0.01780  Biso   1.000  H
  C53      1.0000 0.97590  0.05550  0.20980  Biso   1.000  C
  C54      1.0000 0.03990  0.97340  0.21170  Biso   1.000  C
  H51      1.0000 0.09250  0.97350  0.24760  Biso   1.000  H
  C55      1.0000 0.96280  0.89770  0.21400  Biso   1.000  C
  H52      1.0000 0.90890  0.89240  0.17930  Biso   1.000  H
  H53      1.0000 0.91800  0.90300  0.24450  Biso   1.000  H
  C56      1.0000 0.04200  0.82160  0.22320  Biso   1.000  C
  H54      1.0000 0.09960  0.83370  0.25630  Biso   1.000  H
  C57      1.0000 0.11150  0.81160  0.17510  Biso   1.000  C
  H55      1.0000 0.16380  0.76490  0.18460  Biso   1.000  H
  C58      1.0000 0.18970  0.88700  0.17280  Biso   1.000  C
  H56      1.0000 0.23160  0.88150  0.14130  Biso   1.000  H
  H57      1.0000 0.24690  0.88890  0.20660  Biso   1.000  H
  C59      1.0000 0.12120  0.96830  0.16710  Biso   1.000  C
  H58      1.0000 0.17910  0.01170  0.17620  Biso   1.000  H
  C60      1.0000 0.03350  0.78980  0.12000  Biso   1.000  C
  C61      1.0000 0.06690  0.98200  0.10620  Biso   1.000  C
  C62      1.0000 0.98490  0.74110  0.23600  Biso   1.000  C
  O10      1.0000 0.87640  0.05850  0.22422  Biso   1.000  O
  O11      1.0000 0.05170  0.67870  0.23982  Biso   1.000  O
  O12      1.0000 0.88210  0.73886  0.24377  Biso   1.000  O
  O13      1.0000 0.95810  0.98702  0.09282  Biso   1.000  O
  O14      1.0000 0.14070  0.98730  0.07328  Biso   1.000  O
  O15      1.0000 0.07550  0.79770  0.07536  Biso   1.000  O
  O16      1.0000 0.93210  0.76520  0.12169  Biso   1.000  O
  N13      1.0000 0.63010  0.06690  0.19188  Biso   1.000  N
  N14      1.0000 0.51240  0.07490  0.18810  Biso   1.000  N
  H59      1.0000 0.47830  0.11390  0.20310  Biso   1.000  H
  N15      1.0000 0.63070  0.72080  0.20880  Biso   1.000  N
  N16      1.0000 0.51810  0.71600  0.20810  Biso   1.000  N
  H60      1.0000 0.48510  0.68190  0.22770  Biso   1.000  H
  N17      1.0000 0.76910  0.22860  0.17204  Biso   1.000  N
  N18      1.0000 0.86000  0.22290  0.14293  Biso   1.000  N
  H61      1.0000 0.90950  0.18340  0.14620  Biso   1.000  H
  N19      1.0000 0.77910  0.58240  0.18782  Biso   1.000  N
  N20      1.0000 0.82970  0.61320  0.14575  Biso   1.000  N
  H62      1.0000 0.86200  0.66060  0.14610  Biso   1.000  H
  N21      1.0000 0.75060  0.90880  0.01391  Biso   1.000  N
  N22      1.0000 0.77020  0.83320  0.03604  Biso   1.000  N
  H63      1.0000 0.82860  0.82050  0.06100  Biso   1.000  H
  N23      1.0000 0.24870  0.90410  0.98592  Biso   1.000  N
  N24      1.0000 0.24860  0.83250  0.01463  Biso   1.000  N
  H64      1.0000 0.20060  0.82100  0.03720  Biso   1.000  H
  O17      1.0000 0.02520  0.11960  0.19080  Biso   1.000  O
  O18      1.0000 0.03960  0.11670  0.20890  Biso   1.000  O
  Co5      1.0000 0.24492  0.35052  0.73888  Biso   1.000  Co
  Co6      1.0000 0.37300  0.49712  0.51218  Biso   1.000  Co
  C63      1.0000 0.95670  0.48610  0.65770  Biso   1.000  C
  H65      1.0000 0.87640  0.49300  0.64950  Biso   1.000  H
  C64      1.0000 0.03860  0.53630  0.64089  Biso   1.000  C
  C65      1.0000 0.14560  0.50050  0.66310  Biso   1.000  C
  H66      1.0000 0.21800  0.52110  0.65830  Biso   1.000  H
  C66      1.0000 0.01920  0.61520  0.60880  Biso   1.000  C
  H67      1.0000 0.94020  0.61650  0.58860  Biso   1.000  H
  H68      1.0000 0.07230  0.61810  0.58170  Biso   1.000  H
  C67      1.0000 0.03840  0.68760  0.64740  Biso   1.000  C
  C68      1.0000 0.95990  0.72850  0.67250  Biso   1.000  C
  H69      1.0000 0.87970  0.72000  0.66650  Biso   1.000  H
  C69      1.0000 0.14380  0.71970  0.67280  Biso   1.000  C
  H70      1.0000 0.21580  0.70160  0.66560  Biso   1.000  H
  C70      1.0000 0.21410  0.20290  0.65390  Biso   1.000  C
  H71      1.0000 0.14740  0.18340  0.66620  Biso   1.000  H
  C71      1.0000 0.27000  0.16380  0.61370  Biso   1.000  C
  C72      1.0000 0.36220  0.21300  0.60850  Biso   1.000  C
  H72      1.0000 0.41720  0.20370  0.58520  Biso   1.000  H
  C73      1.0000 0.23510  0.08540  0.58240  Biso   1.000  C
  H73      1.0000 0.15160  0.08590  0.57000  Biso   1.000  H
  H74      1.0000 0.27280  0.08310  0.54940  Biso   1.000  H
  C74      1.0000 0.26680  0.00950  0.61710  Biso   1.000  C
  C75      1.0000 0.24180  0.99110  0.67070  Biso   1.000  C
  H75      1.0000 0.20350  0.02670  0.69170  Biso   1.000  H
  C76      1.0000 0.32260  0.94070  0.60300  Biso   1.000  C
  H76      1.0000 0.35090  0.93240  0.56960  Biso   1.000  H
  C77      1.0000 0.18680  0.71950  0.51400  Biso   1.000  C
  H77      1.0000 0.18250  0.77450  0.52320  Biso   1.000  H
  C78      1.0000 0.10900  0.67760  0.47550  Biso   1.000  C
  C79      1.0000 0.15250  0.59830  0.47750  Biso   1.000  C
  H78      1.0000 0.11730  0.55530  0.45600  Biso   1.000  H
  C80      1.0000 0.99660  0.70940  0.44180  Biso   1.000  C
  H79      1.0000 0.99140  0.69160  0.40330  Biso   1.000  H
  H80      1.0000 0.99720  0.76880  0.44220  Biso   1.000  H
  C81      1.0000 0.89210  0.67880  0.46550  Biso   1.000  C
  C82      1.0000 0.83670  0.60380  0.45660  Biso   1.000  C
  H81      1.0000 0.85810  0.56360  0.43300  Biso   1.000  H
  C83      1.0000 0.83310  0.71780  0.50310  Biso   1.000  C
  H82      1.0000 0.84900  0.76990  0.51780  Biso   1.000  H
  C84      1.0000 0.47590  0.44450  0.70980  Biso   1.000  C
  C85      1.0000 0.53990  0.52660  0.71170  Biso   1.000  C
  H83      1.0000 0.59250  0.52650  0.74760  Biso   1.000  H
  C86      1.0000 0.46280  0.60230  0.71400  Biso   1.000  C
  H84      1.0000 0.40890  0.60760  0.67930  Biso   1.000  H
  H85      1.0000 0.41800  0.59700  0.74450  Biso   1.000  H
  C87      1.0000 0.54200  0.67840  0.72320  Biso   1.000  C
  H86      1.0000 0.59960  0.66630  0.75630  Biso   1.000  H
  C88      1.0000 0.61150  0.68840  0.67510  Biso   1.000  C
  H87      1.0000 0.66380  0.73510  0.68460  Biso   1.000  H
  C89      1.0000 0.68970  0.61300  0.67280  Biso   1.000  C
  H88      1.0000 0.73160  0.61850  0.64130  Biso   1.000  H
  H89      1.0000 0.74690  0.61110  0.70660  Biso   1.000  H
  C90      1.0000 0.62120  0.53170  0.66710  Biso   1.000  C
  H90      1.0000 0.67910  0.48830  0.67620  Biso   1.000  H
  C91      1.0000 0.53350  0.71020  0.62000  Biso   1.000  C
  C92      1.0000 0.56690  0.51800  0.60620  Biso   1.000  C
  C93      1.0000 0.48490  0.75890  0.73600  Biso   1.000  C
  O19      1.0000 0.37640  0.44150  0.72422  Biso   1.000  O
  O20      1.0000 0.55170  0.82130  0.73982  Biso   1.000  O
  O21      1.0000 0.38210  0.76114  0.74377  Biso   1.000  O
  O22      1.0000 0.45810  0.51298  0.59282  Biso   1.000  O
  O23      1.0000 0.64070  0.51270  0.57328  Biso   1.000  O
  O24      1.0000 0.57550  0.70230  0.57536  Biso   1.000  O
  O25      1.0000 0.43210  0.73480  0.62169  Biso   1.000  O
  N25      1.0000 0.13010  0.43310  0.69188  Biso   1.000  N
  N26      1.0000 0.01240  0.42510  0.68810  Biso   1.000  N
  H91      1.0000 0.97830  0.38610  0.70310  Biso   1.000  H
  N27      1.0000 0.13070  0.77920  0.70880  Biso   1.000  N
  N28      1.0000 0.01810  0.78400  0.70810  Biso   1.000  N
  H92      1.0000 0.98510  0.81810  0.72770  Biso   1.000  H
  N29      1.0000 0.26910  0.27140  0.67204  Biso   1.000  N
  N30      1.0000 0.36000  0.27710  0.64293  Biso   1.000  N
  H93      1.0000 0.40950  0.31660  0.64620  Biso   1.000  H
  N31      1.0000 0.27910  0.91760  0.68782  Biso   1.000  N
  N32      1.0000 0.32970  0.88680  0.64575  Biso   1.000  N
  H94      1.0000 0.36200  0.83940  0.64610  Biso   1.000  H
  N33      1.0000 0.25060  0.59120  0.51391  Biso   1.000  N
  N34      1.0000 0.27020  0.66680  0.53604  Biso   1.000  N
  H95      1.0000 0.32860  0.67950  0.56100  Biso   1.000  H
  N35      1.0000 0.74870  0.59590  0.48592  Biso   1.000  N
  N36      1.0000 0.74860  0.66750  0.51463  Biso   1.000  N
  H96      1.0000 0.70060  0.67900  0.53720  Biso   1.000  H
  O26      1.0000 0.52520  0.38040  0.69080  Biso   1.000  O
  O27      1.0000 0.53960  0.38330  0.70890  Biso   1.000  O
  Co7      1.0000 0.25508  0.85052  0.76112  Biso   1.000  Co
  Co8      1.0000 0.12700  0.99712  0.98782  Biso   1.000  Co
  C94      1.0000 0.54330  0.98610  0.84230  Biso   1.000  C
  H97      1.0000 0.62360  0.99300  0.85050  Biso   1.000  H
  C95      1.0000 0.46140  0.03630  0.85911  Biso   1.000  C
  C96      1.0000 0.35440  0.00050  0.83690  Biso   1.000  C
  H98      1.0000 0.28200  0.02110  0.84170  Biso   1.000  H
  C97      1.0000 0.48080  0.11520  0.89120  Biso   1.000  C
  H99      1.0000 0.55980  0.11650  0.91140  Biso   1.000  H
  H100     1.0000 0.42770  0.11810  0.91830  Biso   1.000  H
  C98      1.0000 0.46160  0.18760  0.85260  Biso   1.000  C
  C99      1.0000 0.54010  0.22850  0.82750  Biso   1.000  C
  H101     1.0000 0.62030  0.22000  0.83350  Biso   1.000  H
  C100     1.0000 0.35620  0.21970  0.82720  Biso   1.000  C
  H102     1.0000 0.28420  0.20160  0.83440  Biso   1.000  H
  C101     1.0000 0.28590  0.70290  0.84610  Biso   1.000  C
  H103     1.0000 0.35260  0.68340  0.83380  Biso   1.000  H
  C102     1.0000 0.23000  0.66380  0.88630  Biso   1.000  C
  C103     1.0000 0.13780  0.71300  0.89150  Biso   1.000  C
  H104     1.0000 0.08280  0.70370  0.91480  Biso   1.000  H
  C104     1.0000 0.26490  0.58540  0.91760  Biso   1.000  C
  H105     1.0000 0.34840  0.58590  0.93000  Biso   1.000  H
  H106     1.0000 0.22720  0.58310  0.95060  Biso   1.000  H
  C105     1.0000 0.23320  0.50950  0.88290  Biso   1.000  C
  C106     1.0000 0.25820  0.49110  0.82930  Biso   1.000  C
  H107     1.0000 0.29650  0.52670  0.80830  Biso   1.000  H
  C107     1.0000 0.17740  0.44070  0.89700  Biso   1.000  C
  H108     1.0000 0.14910  0.43240  0.93040  Biso   1.000  H
  C108     1.0000 0.31320  0.21950  0.98600  Biso   1.000  C
  H109     1.0000 0.31750  0.27450  0.97680  Biso   1.000  H
  C109     1.0000 0.39100  0.17760  0.02450  Biso   1.000  C
  C110     1.0000 0.34750  0.09830  0.02250  Biso   1.000  C
  H110     1.0000 0.38270  0.05530  0.04400  Biso   1.000  H
  C111     1.0000 0.50340  0.20940  0.05820  Biso   1.000  C
  H111     1.0000 0.50860  0.19160  0.09670  Biso   1.000  H
  H112     1.0000 0.50280  0.26880  0.05780  Biso   1.000  H
  C112     1.0000 0.60790  0.17880  0.03450  Biso   1.000  C
  C113     1.0000 0.66330  0.10380  0.04340  Biso   1.000  C
  H113     1.0000 0.64190  0.06360  0.06700  Biso   1.000  H
  C114     1.0000 0.66690  0.21780  0.99690  Biso   1.000  C
  H114     1.0000 0.65100  0.26990  0.98220  Biso   1.000  H
  C115     1.0000 0.02410  0.94450  0.79020  Biso   1.000  C
  C116     1.0000 0.96010  0.02660  0.78830  Biso   1.000  C
  H115     1.0000 0.90750  0.02650  0.75240  Biso   1.000  H
  C117     1.0000 0.03720  0.10230  0.78600  Biso   1.000  C
  H116     1.0000 0.09110  0.10760  0.82070  Biso   1.000  H
  H117     1.0000 0.08200  0.09700  0.75550  Biso   1.000  H
  C118     1.0000 0.95800  0.17840  0.77680  Biso   1.000  C
  H118     1.0000 0.90040  0.16630  0.74370  Biso   1.000  H
  C119     1.0000 0.88850  0.18840  0.82490  Biso   1.000  C
  H119     1.0000 0.83620  0.23510  0.81540  Biso   1.000  H
  C120     1.0000 0.81030  0.11300  0.82720  Biso   1.000  C
  H120     1.0000 0.76840  0.11850  0.85870  Biso   1.000  H
  H121     1.0000 0.75310  0.11110  0.79340  Biso   1.000  H
  C121     1.0000 0.87880  0.03170  0.83290  Biso   1.000  C
  H122     1.0000 0.82090  0.98830  0.82380  Biso   1.000  H
  C122     1.0000 0.96650  0.21020  0.88000  Biso   1.000  C
  C123     1.0000 0.93310  0.01800  0.89380  Biso   1.000  C
  C124     1.0000 0.01510  0.25890  0.76400  Biso   1.000  C
  O28      1.0000 0.12360  0.94150  0.77578  Biso   1.000  O
  O29      1.0000 0.94830  0.32130  0.76018  Biso   1.000  O
  O30      1.0000 0.11790  0.26114  0.75623  Biso   1.000  O
  O31      1.0000 0.04190  0.01298  0.90718  Biso   1.000  O
  O32      1.0000 0.85930  0.01270  0.92672  Biso   1.000  O
  O33      1.0000 0.92450  0.20230  0.92464  Biso   1.000  O
  O34      1.0000 0.06790  0.23480  0.87831  Biso   1.000  O
  N37      1.0000 0.36990  0.93310  0.80812  Biso   1.000  N
  N38      1.0000 0.48760  0.92510  0.81190  Biso   1.000  N
  H123     1.0000 0.52170  0.88610  0.79690  Biso   1.000  H
  N39      1.0000 0.36930  0.27920  0.79120  Biso   1.000  N
  N40      1.0000 0.48190  0.28400  0.79190  Biso   1.000  N
  H124     1.0000 0.51490  0.31810  0.77230  Biso   1.000  H
  N41      1.0000 0.23090  0.77140  0.82796  Biso   1.000  N
  N42      1.0000 0.14000  0.77710  0.85707  Biso   1.000  N
  H125     1.0000 0.09050  0.81660  0.85380  Biso   1.000  H
  N43      1.0000 0.22090  0.41760  0.81218  Biso   1.000  N
  N44      1.0000 0.17030  0.38680  0.85425  Biso   1.000  N
  H126     1.0000 0.13800  0.33940  0.85390  Biso   1.000  H
  N45      1.0000 0.24940  0.09120  0.98609  Biso   1.000  N
  N46      1.0000 0.22980  0.16680  0.96396  Biso   1.000  N
  H127     1.0000 0.17140  0.17950  0.93900  Biso   1.000  H
  N47      1.0000 0.75130  0.09590  0.01408  Biso   1.000  N
  N48      1.0000 0.75140  0.16750  0.98537  Biso   1.000  N
  H128     1.0000 0.79940  0.17900  0.96280  Biso   1.000  H
  O35      1.0000 0.97480  0.88040  0.80920  Biso   1.000  O
  O36      1.0000 0.96040  0.88330  0.79110  Biso   1.000  O
