data_image0
_cell_length_a       33.843
_cell_length_b       9.954
_cell_length_c       35.817
_cell_angle_alpha    90
_cell_angle_beta     106.562
_cell_angle_gamma    90

_symmetry_space_group_name_H-M    "P 1"
_symmetry_int_tables_number       1

loop_
  _symmetry_equiv_pos_as_xyz
  'x, y, z'

loop_
  _atom_site_label
  _atom_site_occupancy
  _atom_site_fract_x
  _atom_site_fract_y
  _atom_site_fract_z
  _atom_site_thermal_displace_type
  _atom_site_B_iso_or_equiv
  _atom_site_type_symbol
  Zn1      1.0000 0.87268  0.43594  0.14406  Biso   1.000  Zn
  Zn2      1.0000 0.86110  0.67895  0.07371  Biso   1.000  Zn
  Zn3      1.0000 0.09273  0.99573  0.12875  Biso   1.000  Zn
  Zn4      1.0000 0.16658  0.75199  0.15989  Biso   1.000  Zn
  O1       1.0000 0.87480  0.23250  0.14550  Biso   1.000  O
  O2       1.0000 0.80000  0.82250  0.04340  Biso   1.000  O
  O3       1.0000 0.85740  0.78380  0.02760  Biso   1.000  O
  O4       1.0000 0.92050  0.43510  0.12240  Biso   1.000  O
  O5       1.0000 0.91920  0.62280  0.08750  Biso   1.000  O
  O6       1.0000 0.85860  0.75120  0.12360  Biso   1.000  O
  O7       1.0000 0.88090  0.60670  0.17410  Biso   1.000  O
  O8       1.0000 0.67750  0.97460  0.93820  Biso   1.000  O
  O9       1.0000 0.68510  0.05140  0.88320  Biso   1.000  O
  O10      1.0000 0.06040  0.82660  0.11940  Biso   1.000  O
  O11      1.0000 0.11410  0.69030  0.12340  Biso   1.000  O
  O12      1.0000 0.88800  0.00400  0.31330  Biso   1.000  O
  O13      1.0000 0.86230  0.79830  0.29910  Biso   1.000  O
  O14      1.0000 0.82180  0.07940  0.86410  Biso   1.000  O
  O15      1.0000 0.87710  0.01240  0.91140  Biso   1.000  O
  O16      1.0000 0.03890  0.11870  0.11170  Biso   1.000  O
  O17      1.0000 0.09870  0.21420  0.12730  Biso   1.000  O
  C1       1.0000 0.87650  0.22200  0.17310  Biso   1.000  C
  O18      1.0000 0.87990  0.31440  0.19450  Biso   1.000  O
  C2       1.0000 0.87190  0.07930  0.19460  Biso   1.000  C
  C3       1.0000 0.87430  0.05770  0.23420  Biso   1.000  C
  H1       1.0000 0.87670  0.13110  0.25070  Biso   1.000  H
  C4       1.0000 0.87310  0.92770  0.24910  Biso   1.000  C
  C5       1.0000 0.87360  0.81480  0.22470  Biso   1.000  C
  H2       1.0000 0.87500  0.72760  0.23430  Biso   1.000  H
  C6       1.0000 0.87200  0.83860  0.18620  Biso   1.000  C
  C7       1.0000 0.87150  0.96680  0.17180  Biso   1.000  C
  H3       1.0000 0.87090  0.97830  0.14580  Biso   1.000  H
  C8       1.0000 0.82070  0.83240  0.02000  Biso   1.000  C
  C9       1.0000 0.80330  0.90590  0.98250  Biso   1.000  C
  C10      1.0000 0.76330  0.93090  0.96990  Biso   1.000  C
  H4       1.0000 0.74670  0.90930  0.98570  Biso   1.000  H
  C11      1.0000 0.74480  0.98980  0.93270  Biso   1.000  C
  C12      1.0000 0.76990  0.02880  0.91050  Biso   1.000  C
  H5       1.0000 0.75900  0.07280  0.88690  Biso   1.000  H
  C13      1.0000 0.81240  0.00120  0.92390  Biso   1.000  C
  C14      1.0000 0.93660  0.51820  0.10560  Biso   1.000  C
  C15      1.0000 0.82860  0.94000  0.95970  Biso   1.000  C
  H6       1.0000 0.85660  0.92150  0.96850  Biso   1.000  H
  C16      1.0000 0.98090  0.49990  0.10790  Biso   1.000  C
  C17      1.0000 0.99810  0.37010  0.10960  Biso   1.000  C
  H7       1.0000 0.98140  0.29480  0.10790  Biso   1.000  H
  C18      1.0000 0.03940  0.35540  0.11390  Biso   1.000  C
  C19      1.0000 0.06360  0.46540  0.11570  Biso   1.000  C
  H8       1.0000 0.09150  0.45440  0.11820  Biso   1.000  H
  C20      1.0000 0.04750  0.59320  0.11390  Biso   1.000  C
  C21      1.0000 0.00590  0.60870  0.10950  Biso   1.000  C
  H9       1.0000 0.99470  0.69470  0.10760  Biso   1.000  H
  C22      1.0000 0.07660  0.71360  0.11960  Biso   1.000  C
  C23      1.0000 0.87250  0.90820  0.28980  Biso   1.000  C
  C24      1.0000 0.83940  0.03660  0.89700  Biso   1.000  C
  C25      1.0000 0.06100  0.21930  0.11750  Biso   1.000  C
  C26      1.0000 0.69980  0.00850  0.91730  Biso   1.000  C
  C27      1.0000 0.87080  0.72230  0.15990  Biso   1.000  C
  O19      1.0000 0.19990  0.68900  0.12390  Biso   1.000  O
  N1       1.0000 0.23160  0.52600  0.08700  Biso   1.000  N
  C28      1.0000 0.19420  0.58700  0.10040  Biso   1.000  C
  C29      1.0000 0.16250  0.48500  0.08820  Biso   1.000  C
  C30      1.0000 0.18020  0.38700  0.07060  Biso   1.000  C
  C31      1.0000 0.21890  0.43100  0.05840  Biso   1.000  C
  C32      1.0000 0.27440  0.62100  0.09720  Biso   1.000  C
  C33      1.0000 0.86340  0.21900  0.18580  Biso   1.000  C
  O20      1.0000 0.84300  0.31000  0.19940  Biso   1.000  O
  O21      1.0000 0.19190  0.58500  0.16690  Biso   1.000  O
  N2       1.0000 0.19690  0.64100  0.10000  Biso   1.000  N
  C34      1.0000 0.21130  0.56200  0.14060  Biso   1.000  C
  C35      1.0000 0.25610  0.55700  0.14650  Biso   1.000  C
  C36      1.0000 0.26200  0.58100  0.11060  Biso   1.000  C
  C37      1.0000 0.22490  0.63500  0.07810  Biso   1.000  C
  C38      1.0000 0.14540  0.62900  0.07840  Biso   1.000  C
  Zn5      1.0000 0.37268  0.93594  0.14406  Biso   1.000  Zn
  Zn6      1.0000 0.36110  0.17895  0.07371  Biso   1.000  Zn
  Zn7      1.0000 0.59273  0.49573  0.12875  Biso   1.000  Zn
  Zn8      1.0000 0.66658  0.25199  0.15989  Biso   1.000  Zn
  O22      1.0000 0.37480  0.73250  0.14550  Biso   1.000  O
  O23      1.0000 0.30000  0.32250  0.04340  Biso   1.000  O
  O24      1.0000 0.35740  0.28380  0.02760  Biso   1.000  O
  O25      1.0000 0.42050  0.93510  0.12240  Biso   1.000  O
  O26      1.0000 0.41920  0.12280  0.08750  Biso   1.000  O
  O27      1.0000 0.35860  0.25120  0.12360  Biso   1.000  O
  O28      1.0000 0.38090  0.10670  0.17410  Biso   1.000  O
  O29      1.0000 0.17750  0.47460  0.93820  Biso   1.000  O
  O30      1.0000 0.18510  0.55140  0.88320  Biso   1.000  O
  O31      1.0000 0.56040  0.32660  0.11940  Biso   1.000  O
  O32      1.0000 0.61410  0.19030  0.12340  Biso   1.000  O
  O33      1.0000 0.38800  0.50400  0.31330  Biso   1.000  O
  O34      1.0000 0.36230  0.29830  0.29910  Biso   1.000  O
  O35      1.0000 0.32180  0.57940  0.86410  Biso   1.000  O
  O36      1.0000 0.37710  0.51240  0.91140  Biso   1.000  O
  O37      1.0000 0.53890  0.61870  0.11170  Biso   1.000  O
  O38      1.0000 0.59870  0.71420  0.12730  Biso   1.000  O
  C39      1.0000 0.37650  0.72200  0.17310  Biso   1.000  C
  O39      1.0000 0.37990  0.81440  0.19450  Biso   1.000  O
  C40      1.0000 0.37190  0.57930  0.19460  Biso   1.000  C
  C41      1.0000 0.37430  0.55770  0.23420  Biso   1.000  C
  H10      1.0000 0.37670  0.63110  0.25070  Biso   1.000  H
  C42      1.0000 0.37310  0.42770  0.24910  Biso   1.000  C
  C43      1.0000 0.37360  0.31480  0.22470  Biso   1.000  C
  H11      1.0000 0.37500  0.22760  0.23430  Biso   1.000  H
  C44      1.0000 0.37200  0.33860  0.18620  Biso   1.000  C
  C45      1.0000 0.37150  0.46680  0.17180  Biso   1.000  C
  H12      1.0000 0.37090  0.47830  0.14580  Biso   1.000  H
  C46      1.0000 0.32070  0.33240  0.02000  Biso   1.000  C
  C47      1.0000 0.30330  0.40590  0.98250  Biso   1.000  C
  C48      1.0000 0.26330  0.43090  0.96990  Biso   1.000  C
  H13      1.0000 0.24670  0.40930  0.98570  Biso   1.000  H
  C49      1.0000 0.24480  0.48980  0.93270  Biso   1.000  C
  C50      1.0000 0.26990  0.52880  0.91050  Biso   1.000  C
  H14      1.0000 0.25900  0.57280  0.88690  Biso   1.000  H
  C51      1.0000 0.31240  0.50120  0.92390  Biso   1.000  C
  C52      1.0000 0.43660  0.01820  0.10560  Biso   1.000  C
  C53      1.0000 0.32860  0.44000  0.95970  Biso   1.000  C
  H15      1.0000 0.35660  0.42150  0.96850  Biso   1.000  H
  C54      1.0000 0.48090  0.99990  0.10790  Biso   1.000  C
  C55      1.0000 0.49810  0.87010  0.10960  Biso   1.000  C
  H16      1.0000 0.48140  0.79480  0.10790  Biso   1.000  H
  C56      1.0000 0.53940  0.85540  0.11390  Biso   1.000  C
  C57      1.0000 0.56360  0.96540  0.11570  Biso   1.000  C
  H17      1.0000 0.59150  0.95440  0.11820  Biso   1.000  H
  C58      1.0000 0.54750  0.09320  0.11390  Biso   1.000  C
  C59      1.0000 0.50590  0.10870  0.10950  Biso   1.000  C
  H18      1.0000 0.49470  0.19470  0.10760  Biso   1.000  H
  C60      1.0000 0.57660  0.21360  0.11960  Biso   1.000  C
  C61      1.0000 0.37250  0.40820  0.28980  Biso   1.000  C
  C62      1.0000 0.33940  0.53660  0.89700  Biso   1.000  C
  C63      1.0000 0.56100  0.71930  0.11750  Biso   1.000  C
  C64      1.0000 0.19980  0.50850  0.91730  Biso   1.000  C
  C65      1.0000 0.37080  0.22230  0.15990  Biso   1.000  C
  O40      1.0000 0.69990  0.18900  0.12390  Biso   1.000  O
  N3       1.0000 0.73160  0.02600  0.08700  Biso   1.000  N
  C66      1.0000 0.69420  0.08700  0.10040  Biso   1.000  C
  C67      1.0000 0.66250  0.98500  0.08820  Biso   1.000  C
  C68      1.0000 0.68020  0.88700  0.07060  Biso   1.000  C
  C69      1.0000 0.71890  0.93100  0.05840  Biso   1.000  C
  C70      1.0000 0.77440  0.12100  0.09720  Biso   1.000  C
  C71      1.0000 0.36340  0.71900  0.18580  Biso   1.000  C
  O41      1.0000 0.34300  0.81000  0.19940  Biso   1.000  O
  O42      1.0000 0.69190  0.08500  0.16690  Biso   1.000  O
  N4       1.0000 0.69690  0.14100  0.10000  Biso   1.000  N
  C72      1.0000 0.71130  0.06200  0.14060  Biso   1.000  C
  C73      1.0000 0.75610  0.05700  0.14650  Biso   1.000  C
  C74      1.0000 0.76200  0.08100  0.11060  Biso   1.000  C
  C75      1.0000 0.72490  0.13500  0.07810  Biso   1.000  C
  C76      1.0000 0.64540  0.12900  0.07840  Biso   1.000  C
  Zn9      1.0000 0.12732  0.43594  0.35594  Biso   1.000  Zn
  Zn10     1.0000 0.13890  0.67895  0.42629  Biso   1.000  Zn
  Zn11     1.0000 0.90727  0.99573  0.37125  Biso   1.000  Zn
  Zn12     1.0000 0.83342  0.75199  0.34011  Biso   1.000  Zn
  O43      1.0000 0.12520  0.23250  0.35450  Biso   1.000  O
  O44      1.0000 0.20000  0.82250  0.45660  Biso   1.000  O
  O45      1.0000 0.14260  0.78380  0.47240  Biso   1.000  O
  O46      1.0000 0.07950  0.43510  0.37760  Biso   1.000  O
  O47      1.0000 0.08080  0.62280  0.41250  Biso   1.000  O
  O48      1.0000 0.14140  0.75120  0.37640  Biso   1.000  O
  O49      1.0000 0.11910  0.60670  0.32590  Biso   1.000  O
  O50      1.0000 0.32250  0.97460  0.56180  Biso   1.000  O
  O51      1.0000 0.31490  0.05140  0.61680  Biso   1.000  O
  O52      1.0000 0.93960  0.82660  0.38060  Biso   1.000  O
  O53      1.0000 0.88590  0.69030  0.37660  Biso   1.000  O
  O54      1.0000 0.11200  0.00400  0.18670  Biso   1.000  O
  O55      1.0000 0.13770  0.79830  0.20090  Biso   1.000  O
  O56      1.0000 0.17820  0.07940  0.63590  Biso   1.000  O
  O57      1.0000 0.12290  0.01240  0.58860  Biso   1.000  O
  O58      1.0000 0.96110  0.11870  0.38830  Biso   1.000  O
  O59      1.0000 0.90130  0.21420  0.37270  Biso   1.000  O
  C77      1.0000 0.12350  0.22200  0.32690  Biso   1.000  C
  O60      1.0000 0.12010  0.31440  0.30550  Biso   1.000  O
  C78      1.0000 0.12810  0.07930  0.30540  Biso   1.000  C
  C79      1.0000 0.12570  0.05770  0.26580  Biso   1.000  C
  H19      1.0000 0.12330  0.13110  0.24930  Biso   1.000  H
  C80      1.0000 0.12690  0.92770  0.25090  Biso   1.000  C
  C81      1.0000 0.12640  0.81480  0.27530  Biso   1.000  C
  H20      1.0000 0.12500  0.72760  0.26570  Biso   1.000  H
  C82      1.0000 0.12800  0.83860  0.31380  Biso   1.000  C
  C83      1.0000 0.12850  0.96680  0.32820  Biso   1.000  C
  H21      1.0000 0.12910  0.97830  0.35420  Biso   1.000  H
  C84      1.0000 0.17930  0.83240  0.48000  Biso   1.000  C
  C85      1.0000 0.19670  0.90590  0.51750  Biso   1.000  C
  C86      1.0000 0.23670  0.93090  0.53010  Biso   1.000  C
  H22      1.0000 0.25330  0.90930  0.51430  Biso   1.000  H
  C87      1.0000 0.25520  0.98980  0.56730  Biso   1.000  C
  C88      1.0000 0.23010  0.02880  0.58950  Biso   1.000  C
  H23      1.0000 0.24100  0.07280  0.61310  Biso   1.000  H
  C89      1.0000 0.18760  0.00120  0.57610  Biso   1.000  C
  C90      1.0000 0.06340  0.51820  0.39440  Biso   1.000  C
  C91      1.0000 0.17140  0.94000  0.54030  Biso   1.000  C
  H24      1.0000 0.14340  0.92150  0.53150  Biso   1.000  H
  C92      1.0000 0.01910  0.49990  0.39210  Biso   1.000  C
  C93      1.0000 0.00190  0.37010  0.39040  Biso   1.000  C
  H25      1.0000 0.01860  0.29480  0.39210  Biso   1.000  H
  C94      1.0000 0.96060  0.35540  0.38610  Biso   1.000  C
  C95      1.0000 0.93640  0.46540  0.38430  Biso   1.000  C
  H26      1.0000 0.90850  0.45440  0.38180  Biso   1.000  H
  C96      1.0000 0.95250  0.59320  0.38610  Biso   1.000  C
  C97      1.0000 0.99410  0.60870  0.39050  Biso   1.000  C
  H27      1.0000 0.00530  0.69470  0.39240  Biso   1.000  H
  C98      1.0000 0.92340  0.71360  0.38040  Biso   1.000  C
  C99      1.0000 0.12750  0.90820  0.21020  Biso   1.000  C
  C100     1.0000 0.16060  0.03660  0.60300  Biso   1.000  C
  C101     1.0000 0.93900  0.21930  0.38250  Biso   1.000  C
  C102     1.0000 0.30020  0.00850  0.58270  Biso   1.000  C
  C103     1.0000 0.12920  0.72230  0.34010  Biso   1.000  C
  O61      1.0000 0.80010  0.68900  0.37610  Biso   1.000  O
  N5       1.0000 0.76840  0.52600  0.41300  Biso   1.000  N
  C104     1.0000 0.80580  0.58700  0.39960  Biso   1.000  C
  C105     1.0000 0.83750  0.48500  0.41180  Biso   1.000  C
  C106     1.0000 0.81980  0.38700  0.42940  Biso   1.000  C
  C107     1.0000 0.78110  0.43100  0.44160  Biso   1.000  C
  C108     1.0000 0.72560  0.62100  0.40280  Biso   1.000  C
  C109     1.0000 0.13660  0.21900  0.31420  Biso   1.000  C
  O62      1.0000 0.15700  0.31000  0.30060  Biso   1.000  O
  O63      1.0000 0.80810  0.58500  0.33310  Biso   1.000  O
  N6       1.0000 0.80310  0.64100  0.40000  Biso   1.000  N
  C110     1.0000 0.78870  0.56200  0.35940  Biso   1.000  C
  C111     1.0000 0.74390  0.55700  0.35350  Biso   1.000  C
  C112     1.0000 0.73800  0.58100  0.38940  Biso   1.000  C
  C113     1.0000 0.77510  0.63500  0.42190  Biso   1.000  C
  C114     1.0000 0.85460  0.62900  0.42160  Biso   1.000  C
  Zn13     1.0000 0.62732  0.93594  0.35594  Biso   1.000  Zn
  Zn14     1.0000 0.63890  0.17895  0.42629  Biso   1.000  Zn
  Zn15     1.0000 0.40727  0.49573  0.37125  Biso   1.000  Zn
  Zn16     1.0000 0.33342  0.25199  0.34011  Biso   1.000  Zn
  O64      1.0000 0.62520  0.73250  0.35450  Biso   1.000  O
  O65      1.0000 0.70000  0.32250  0.45660  Biso   1.000  O
  O66      1.0000 0.64260  0.28380  0.47240  Biso   1.000  O
  O67      1.0000 0.57950  0.93510  0.37760  Biso   1.000  O
  O68      1.0000 0.58080  0.12280  0.41250  Biso   1.000  O
  O69      1.0000 0.64140  0.25120  0.37640  Biso   1.000  O
  O70      1.0000 0.61910  0.10670  0.32590  Biso   1.000  O
  O71      1.0000 0.82250  0.47460  0.56180  Biso   1.000  O
  O72      1.0000 0.81490  0.55140  0.61680  Biso   1.000  O
  O73      1.0000 0.43960  0.32660  0.38060  Biso   1.000  O
  O74      1.0000 0.38590  0.19030  0.37660  Biso   1.000  O
  O75      1.0000 0.61200  0.50400  0.18670  Biso   1.000  O
  O76      1.0000 0.63770  0.29830  0.20090  Biso   1.000  O
  O77      1.0000 0.67820  0.57940  0.63590  Biso   1.000  O
  O78      1.0000 0.62290  0.51240  0.58860  Biso   1.000  O
  O79      1.0000 0.46110  0.61870  0.38830  Biso   1.000  O
  O80      1.0000 0.40130  0.71420  0.37270  Biso   1.000  O
  C115     1.0000 0.62350  0.72200  0.32690  Biso   1.000  C
  O81      1.0000 0.62010  0.81440  0.30550  Biso   1.000  O
  C116     1.0000 0.62810  0.57930  0.30540  Biso   1.000  C
  C117     1.0000 0.62570  0.55770  0.26580  Biso   1.000  C
  H28      1.0000 0.62330  0.63110  0.24930  Biso   1.000  H
  C118     1.0000 0.62690  0.42770  0.25090  Biso   1.000  C
  C119     1.0000 0.62640  0.31480  0.27530  Biso   1.000  C
  H29      1.0000 0.62500  0.22760  0.26570  Biso   1.000  H
  C120     1.0000 0.62800  0.33860  0.31380  Biso   1.000  C
  C121     1.0000 0.62850  0.46680  0.32820  Biso   1.000  C
  H30      1.0000 0.62910  0.47830  0.35420  Biso   1.000  H
  C122     1.0000 0.67930  0.33240  0.48000  Biso   1.000  C
  C123     1.0000 0.69670  0.40590  0.51750  Biso   1.000  C
  C124     1.0000 0.73670  0.43090  0.53010  Biso   1.000  C
  H31      1.0000 0.75330  0.40930  0.51430  Biso   1.000  H
  C125     1.0000 0.75520  0.48980  0.56730  Biso   1.000  C
  C126     1.0000 0.73010  0.52880  0.58950  Biso   1.000  C
  H32      1.0000 0.74100  0.57280  0.61310  Biso   1.000  H
  C127     1.0000 0.68760  0.50120  0.57610  Biso   1.000  C
  C128     1.0000 0.56340  0.01820  0.39440  Biso   1.000  C
  C129     1.0000 0.67140  0.44000  0.54030  Biso   1.000  C
  H33      1.0000 0.64340  0.42150  0.53150  Biso   1.000  H
  C130     1.0000 0.51910  0.99990  0.39210  Biso   1.000  C
  C131     1.0000 0.50190  0.87010  0.39040  Biso   1.000  C
  H34      1.0000 0.51860  0.79480  0.39210  Biso   1.000  H
  C132     1.0000 0.46060  0.85540  0.38610  Biso   1.000  C
  C133     1.0000 0.43640  0.96540  0.38430  Biso   1.000  C
  H35      1.0000 0.40850  0.95440  0.38180  Biso   1.000  H
  C134     1.0000 0.45250  0.09320  0.38610  Biso   1.000  C
  C135     1.0000 0.49410  0.10870  0.39050  Biso   1.000  C
  H36      1.0000 0.50530  0.19470  0.39240  Biso   1.000  H
  C136     1.0000 0.42340  0.21360  0.38040  Biso   1.000  C
  C137     1.0000 0.62750  0.40820  0.21020  Biso   1.000  C
  C138     1.0000 0.66060  0.53660  0.60300  Biso   1.000  C
  C139     1.0000 0.43900  0.71930  0.38250  Biso   1.000  C
  C140     1.0000 0.80020  0.50850  0.58270  Biso   1.000  C
  C141     1.0000 0.62920  0.22230  0.34010  Biso   1.000  C
  O82      1.0000 0.30010  0.18900  0.37610  Biso   1.000  O
  N7       1.0000 0.26840  0.02600  0.41300  Biso   1.000  N
  C142     1.0000 0.30580  0.08700  0.39960  Biso   1.000  C
  C143     1.0000 0.33750  0.98500  0.41180  Biso   1.000  C
  C144     1.0000 0.31980  0.88700  0.42940  Biso   1.000  C
  C145     1.0000 0.28110  0.93100  0.44160  Biso   1.000  C
  C146     1.0000 0.22560  0.12100  0.40280  Biso   1.000  C
  C147     1.0000 0.63660  0.71900  0.31420  Biso   1.000  C
  O83      1.0000 0.65700  0.81000  0.30060  Biso   1.000  O
  O84      1.0000 0.30810  0.08500  0.33310  Biso   1.000  O
  N8       1.0000 0.30310  0.14100  0.40000  Biso   1.000  N
  C148     1.0000 0.28870  0.06200  0.35940  Biso   1.000  C
  C149     1.0000 0.24390  0.05700  0.35350  Biso   1.000  C
  C150     1.0000 0.23800  0.08100  0.38940  Biso   1.000  C
  C151     1.0000 0.27510  0.13500  0.42190  Biso   1.000  C
  C152     1.0000 0.35460  0.12900  0.42160  Biso   1.000  C
  Zn17     1.0000 0.12732  0.56406  0.85594  Biso   1.000  Zn
  Zn18     1.0000 0.13890  0.32105  0.92629  Biso   1.000  Zn
  Zn19     1.0000 0.90727  0.00427  0.87125  Biso   1.000  Zn
  Zn20     1.0000 0.83342  0.24801  0.84011  Biso   1.000  Zn
  O85      1.0000 0.12520  0.76750  0.85450  Biso   1.000  O
  O86      1.0000 0.20000  0.17750  0.95660  Biso   1.000  O
  O87      1.0000 0.14260  0.21620  0.97240  Biso   1.000  O
  O88      1.0000 0.07950  0.56490  0.87760  Biso   1.000  O
  O89      1.0000 0.08080  0.37720  0.91250  Biso   1.000  O
  O90      1.0000 0.14140  0.24880  0.87640  Biso   1.000  O
  O91      1.0000 0.11910  0.39330  0.82590  Biso   1.000  O
  O92      1.0000 0.32250  0.02540  0.06180  Biso   1.000  O
  O93      1.0000 0.31490  0.94860  0.11680  Biso   1.000  O
  O94      1.0000 0.93960  0.17340  0.88060  Biso   1.000  O
  O95      1.0000 0.88590  0.30970  0.87660  Biso   1.000  O
  O96      1.0000 0.11200  0.99600  0.68670  Biso   1.000  O
  O97      1.0000 0.13770  0.20170  0.70090  Biso   1.000  O
  O98      1.0000 0.17820  0.92060  0.13590  Biso   1.000  O
  O99      1.0000 0.12290  0.98760  0.08860  Biso   1.000  O
  O100     1.0000 0.96110  0.88130  0.88830  Biso   1.000  O
  O101     1.0000 0.90130  0.78580  0.87270  Biso   1.000  O
  C153     1.0000 0.12350  0.77800  0.82690  Biso   1.000  C
  O102     1.0000 0.12010  0.68560  0.80550  Biso   1.000  O
  C154     1.0000 0.12810  0.92070  0.80540  Biso   1.000  C
  C155     1.0000 0.12570  0.94230  0.76580  Biso   1.000  C
  H37      1.0000 0.12330  0.86890  0.74930  Biso   1.000  H
  C156     1.0000 0.12690  0.07230  0.75090  Biso   1.000  C
  C157     1.0000 0.12640  0.18520  0.77530  Biso   1.000  C
  H38      1.0000 0.12500  0.27240  0.76570  Biso   1.000  H
  C158     1.0000 0.12800  0.16140  0.81380  Biso   1.000  C
  C159     1.0000 0.12850  0.03320  0.82820  Biso   1.000  C
  H39      1.0000 0.12910  0.02170  0.85420  Biso   1.000  H
  C160     1.0000 0.17930  0.16760  0.98000  Biso   1.000  C
  C161     1.0000 0.19670  0.09410  0.01750  Biso   1.000  C
  C162     1.0000 0.23670  0.06910  0.03010  Biso   1.000  C
  H40      1.0000 0.25330  0.09070  0.01430  Biso   1.000  H
  C163     1.0000 0.25520  0.01020  0.06730  Biso   1.000  C
  C164     1.0000 0.23010  0.97120  0.08950  Biso   1.000  C
  H41      1.0000 0.24100  0.92720  0.11310  Biso   1.000  H
  C165     1.0000 0.18760  0.99880  0.07610  Biso   1.000  C
  C166     1.0000 0.06340  0.48180  0.89440  Biso   1.000  C
  C167     1.0000 0.17140  0.06000  0.04030  Biso   1.000  C
  H42      1.0000 0.14340  0.07850  0.03150  Biso   1.000  H
  C168     1.0000 0.01910  0.50010  0.89210  Biso   1.000  C
  C169     1.0000 0.00190  0.62990  0.89040  Biso   1.000  C
  H43      1.0000 0.01860  0.70520  0.89210  Biso   1.000  H
  C170     1.0000 0.96060  0.64460  0.88610  Biso   1.000  C
  C171     1.0000 0.93640  0.53460  0.88430  Biso   1.000  C
  H44      1.0000 0.90850  0.54560  0.88180  Biso   1.000  H
  C172     1.0000 0.95250  0.40680  0.88610  Biso   1.000  C
  C173     1.0000 0.99410  0.39130  0.89050  Biso   1.000  C
  H45      1.0000 0.00530  0.30530  0.89240  Biso   1.000  H
  C174     1.0000 0.92340  0.28640  0.88040  Biso   1.000  C
  C175     1.0000 0.12750  0.09180  0.71020  Biso   1.000  C
  C176     1.0000 0.16060  0.96340  0.10300  Biso   1.000  C
  C177     1.0000 0.93900  0.78070  0.88250  Biso   1.000  C
  C178     1.0000 0.30020  0.99150  0.08270  Biso   1.000  C
  C179     1.0000 0.12920  0.27770  0.84010  Biso   1.000  C
  O103     1.0000 0.80010  0.31100  0.87610  Biso   1.000  O
  N9       1.0000 0.76840  0.47400  0.91300  Biso   1.000  N
  C180     1.0000 0.80580  0.41300  0.89960  Biso   1.000  C
  C181     1.0000 0.83750  0.51500  0.91180  Biso   1.000  C
  C182     1.0000 0.81980  0.61300  0.92940  Biso   1.000  C
  C183     1.0000 0.78110  0.56900  0.94160  Biso   1.000  C
  C184     1.0000 0.72560  0.37900  0.90280  Biso   1.000  C
  C185     1.0000 0.13660  0.78100  0.81420  Biso   1.000  C
  O104     1.0000 0.15700  0.69000  0.80060  Biso   1.000  O
  O105     1.0000 0.80810  0.41500  0.83310  Biso   1.000  O
  N10      1.0000 0.80310  0.35900  0.90000  Biso   1.000  N
  C186     1.0000 0.78870  0.43800  0.85940  Biso   1.000  C
  C187     1.0000 0.74390  0.44300  0.85350  Biso   1.000  C
  C188     1.0000 0.73800  0.41900  0.88940  Biso   1.000  C
  C189     1.0000 0.77510  0.36500  0.92190  Biso   1.000  C
  C190     1.0000 0.85460  0.37100  0.92160  Biso   1.000  C
  Zn21     1.0000 0.62732  0.06406  0.85594  Biso   1.000  Zn
  Zn22     1.0000 0.63890  0.82105  0.92629  Biso   1.000  Zn
  Zn23     1.0000 0.40727  0.50427  0.87125  Biso   1.000  Zn
  Zn24     1.0000 0.33342  0.74801  0.84011  Biso   1.000  Zn
  O106     1.0000 0.62520  0.26750  0.85450  Biso   1.000  O
  O107     1.0000 0.70000  0.67750  0.95660  Biso   1.000  O
  O108     1.0000 0.64260  0.71620  0.97240  Biso   1.000  O
  O109     1.0000 0.57950  0.06490  0.87760  Biso   1.000  O
  O110     1.0000 0.58080  0.87720  0.91250  Biso   1.000  O
  O111     1.0000 0.64140  0.74880  0.87640  Biso   1.000  O
  O112     1.0000 0.61910  0.89330  0.82590  Biso   1.000  O
  O113     1.0000 0.82250  0.52540  0.06180  Biso   1.000  O
  O114     1.0000 0.81490  0.44860  0.11680  Biso   1.000  O
  O115     1.0000 0.43960  0.67340  0.88060  Biso   1.000  O
  O116     1.0000 0.38590  0.80970  0.87660  Biso   1.000  O
  O117     1.0000 0.61200  0.49600  0.68670  Biso   1.000  O
  O118     1.0000 0.63770  0.70170  0.70090  Biso   1.000  O
  O119     1.0000 0.67820  0.42060  0.13590  Biso   1.000  O
  O120     1.0000 0.62290  0.48760  0.08860  Biso   1.000  O
  O121     1.0000 0.46110  0.38130  0.88830  Biso   1.000  O
  O122     1.0000 0.40130  0.28580  0.87270  Biso   1.000  O
  C191     1.0000 0.62350  0.27800  0.82690  Biso   1.000  C
  O123     1.0000 0.62010  0.18560  0.80550  Biso   1.000  O
  C192     1.0000 0.62810  0.42070  0.80540  Biso   1.000  C
  C193     1.0000 0.62570  0.44230  0.76580  Biso   1.000  C
  H46      1.0000 0.62330  0.36890  0.74930  Biso   1.000  H
  C194     1.0000 0.62690  0.57230  0.75090  Biso   1.000  C
  C195     1.0000 0.62640  0.68520  0.77530  Biso   1.000  C
  H47      1.0000 0.62500  0.77240  0.76570  Biso   1.000  H
  C196     1.0000 0.62800  0.66140  0.81380  Biso   1.000  C
  C197     1.0000 0.62850  0.53320  0.82820  Biso   1.000  C
  H48      1.0000 0.62910  0.52170  0.85420  Biso   1.000  H
  C198     1.0000 0.67930  0.66760  0.98000  Biso   1.000  C
  C199     1.0000 0.69670  0.59410  0.01750  Biso   1.000  C
  C200     1.0000 0.73670  0.56910  0.03010  Biso   1.000  C
  H49      1.0000 0.75330  0.59070  0.01430  Biso   1.000  H
  C201     1.0000 0.75520  0.51020  0.06730  Biso   1.000  C
  C202     1.0000 0.73010  0.47120  0.08950  Biso   1.000  C
  H50      1.0000 0.74100  0.42720  0.11310  Biso   1.000  H
  C203     1.0000 0.68760  0.49880  0.07610  Biso   1.000  C
  C204     1.0000 0.56340  0.98180  0.89440  Biso   1.000  C
  C205     1.0000 0.67140  0.56000  0.04030  Biso   1.000  C
  H51      1.0000 0.64340  0.57850  0.03150  Biso   1.000  H
  C206     1.0000 0.51910  0.00010  0.89210  Biso   1.000  C
  C207     1.0000 0.50190  0.12990  0.89040  Biso   1.000  C
  H52      1.0000 0.51860  0.20520  0.89210  Biso   1.000  H
  C208     1.0000 0.46060  0.14460  0.88610  Biso   1.000  C
  C209     1.0000 0.43640  0.03460  0.88430  Biso   1.000  C
  H53      1.0000 0.40850  0.04560  0.88180  Biso   1.000  H
  C210     1.0000 0.45250  0.90680  0.88610  Biso   1.000  C
  C211     1.0000 0.49410  0.89130  0.89050  Biso   1.000  C
  H54      1.0000 0.50530  0.80530  0.89240  Biso   1.000  H
  C212     1.0000 0.42340  0.78640  0.88040  Biso   1.000  C
  C213     1.0000 0.62750  0.59180  0.71020  Biso   1.000  C
  C214     1.0000 0.66060  0.46340  0.10300  Biso   1.000  C
  C215     1.0000 0.43900  0.28070  0.88250  Biso   1.000  C
  C216     1.0000 0.80020  0.49150  0.08270  Biso   1.000  C
  C217     1.0000 0.62920  0.77770  0.84010  Biso   1.000  C
  O124     1.0000 0.30010  0.81100  0.87610  Biso   1.000  O
  N11      1.0000 0.26840  0.97400  0.91300  Biso   1.000  N
  C218     1.0000 0.30580  0.91300  0.89960  Biso   1.000  C
  C219     1.0000 0.33750  0.01500  0.91180  Biso   1.000  C
  C220     1.0000 0.31980  0.11300  0.92940  Biso   1.000  C
  C221     1.0000 0.28110  0.06900  0.94160  Biso   1.000  C
  C222     1.0000 0.22560  0.87900  0.90280  Biso   1.000  C
  C223     1.0000 0.63660  0.28100  0.81420  Biso   1.000  C
  O125     1.0000 0.65700  0.19000  0.80060  Biso   1.000  O
  O126     1.0000 0.30810  0.91500  0.83310  Biso   1.000  O
  N12      1.0000 0.30310  0.85900  0.90000  Biso   1.000  N
  C224     1.0000 0.28870  0.93800  0.85940  Biso   1.000  C
  C225     1.0000 0.24390  0.94300  0.85350  Biso   1.000  C
  C226     1.0000 0.23800  0.91900  0.88940  Biso   1.000  C
  C227     1.0000 0.27510  0.86500  0.92190  Biso   1.000  C
  C228     1.0000 0.35460  0.87100  0.92160  Biso   1.000  C
  Zn25     1.0000 0.87268  0.56406  0.64406  Biso   1.000  Zn
  Zn26     1.0000 0.86110  0.32105  0.57371  Biso   1.000  Zn
  Zn27     1.0000 0.09273  0.00427  0.62875  Biso   1.000  Zn
  Zn28     1.0000 0.16658  0.24801  0.65989  Biso   1.000  Zn
  O127     1.0000 0.87480  0.76750  0.64550  Biso   1.000  O
  O128     1.0000 0.80000  0.17750  0.54340  Biso   1.000  O
  O129     1.0000 0.85740  0.21620  0.52760  Biso   1.000  O
  O130     1.0000 0.92050  0.56490  0.62240  Biso   1.000  O
  O131     1.0000 0.91920  0.37720  0.58750  Biso   1.000  O
  O132     1.0000 0.85860  0.24880  0.62360  Biso   1.000  O
  O133     1.0000 0.88090  0.39330  0.67410  Biso   1.000  O
  O134     1.0000 0.67750  0.02540  0.43820  Biso   1.000  O
  O135     1.0000 0.68510  0.94860  0.38320  Biso   1.000  O
  O136     1.0000 0.06040  0.17340  0.61940  Biso   1.000  O
  O137     1.0000 0.11410  0.30970  0.62340  Biso   1.000  O
  O138     1.0000 0.88800  0.99600  0.81330  Biso   1.000  O
  O139     1.0000 0.86230  0.20170  0.79910  Biso   1.000  O
  O140     1.0000 0.82180  0.92060  0.36410  Biso   1.000  O
  O141     1.0000 0.87710  0.98760  0.41140  Biso   1.000  O
  O142     1.0000 0.03890  0.88130  0.61170  Biso   1.000  O
  O143     1.0000 0.09870  0.78580  0.62730  Biso   1.000  O
  C229     1.0000 0.87650  0.77800  0.67310  Biso   1.000  C
  O144     1.0000 0.87990  0.68560  0.69450  Biso   1.000  O
  C230     1.0000 0.87190  0.92070  0.69460  Biso   1.000  C
  C231     1.0000 0.87430  0.94230  0.73420  Biso   1.000  C
  H55      1.0000 0.87670  0.86890  0.75070  Biso   1.000  H
  C232     1.0000 0.87310  0.07230  0.74910  Biso   1.000  C
  C233     1.0000 0.87360  0.18520  0.72470  Biso   1.000  C
  H56      1.0000 0.87500  0.27240  0.73430  Biso   1.000  H
  C234     1.0000 0.87200  0.16140  0.68620  Biso   1.000  C
  C235     1.0000 0.87150  0.03320  0.67180  Biso   1.000  C
  H57      1.0000 0.87090  0.02170  0.64580  Biso   1.000  H
  C236     1.0000 0.82070  0.16760  0.52000  Biso   1.000  C
  C237     1.0000 0.80330  0.09410  0.48250  Biso   1.000  C
  C238     1.0000 0.76330  0.06910  0.46990  Biso   1.000  C
  H58      1.0000 0.74670  0.09070  0.48570  Biso   1.000  H
  C239     1.0000 0.74480  0.01020  0.43270  Biso   1.000  C
  C240     1.0000 0.76990  0.97120  0.41050  Biso   1.000  C
  H59      1.0000 0.75900  0.92720  0.38690  Biso   1.000  H
  C241     1.0000 0.81240  0.99880  0.42390  Biso   1.000  C
  C242     1.0000 0.93660  0.48180  0.60560  Biso   1.000  C
  C243     1.0000 0.82860  0.06000  0.45970  Biso   1.000  C
  H60      1.0000 0.85660  0.07850  0.46850  Biso   1.000  H
  C244     1.0000 0.98090  0.50010  0.60790  Biso   1.000  C
  C245     1.0000 0.99810  0.62990  0.60960  Biso   1.000  C
  H61      1.0000 0.98140  0.70520  0.60790  Biso   1.000  H
  C246     1.0000 0.03940  0.64460  0.61390  Biso   1.000  C
  C247     1.0000 0.06360  0.53460  0.61570  Biso   1.000  C
  H62      1.0000 0.09150  0.54560  0.61820  Biso   1.000  H
  C248     1.0000 0.04750  0.40680  0.61390  Biso   1.000  C
  C249     1.0000 0.00590  0.39130  0.60950  Biso   1.000  C
  H63      1.0000 0.99470  0.30530  0.60760  Biso   1.000  H
  C250     1.0000 0.07660  0.28640  0.61960  Biso   1.000  C
  C251     1.0000 0.87250  0.09180  0.78980  Biso   1.000  C
  C252     1.0000 0.83940  0.96340  0.39700  Biso   1.000  C
  C253     1.0000 0.06100  0.78070  0.61750  Biso   1.000  C
  C254     1.0000 0.69980  0.99150  0.41730  Biso   1.000  C
  C255     1.0000 0.87080  0.27770  0.65990  Biso   1.000  C
  O145     1.0000 0.19990  0.31100  0.62390  Biso   1.000  O
  N13      1.0000 0.23160  0.47400  0.58700  Biso   1.000  N
  C256     1.0000 0.19420  0.41300  0.60040  Biso   1.000  C
  C257     1.0000 0.16250  0.51500  0.58820  Biso   1.000  C
  C258     1.0000 0.18020  0.61300  0.57060  Biso   1.000  C
  C259     1.0000 0.21890  0.56900  0.55840  Biso   1.000  C
  C260     1.0000 0.27440  0.37900  0.59720  Biso   1.000  C
  C261     1.0000 0.86340  0.78100  0.68580  Biso   1.000  C
  O146     1.0000 0.84300  0.69000  0.69940  Biso   1.000  O
  O147     1.0000 0.19190  0.41500  0.66690  Biso   1.000  O
  N14      1.0000 0.19690  0.35900  0.60000  Biso   1.000  N
  C262     1.0000 0.21130  0.43800  0.64060  Biso   1.000  C
  C263     1.0000 0.25610  0.44300  0.64650  Biso   1.000  C
  C264     1.0000 0.26200  0.41900  0.61060  Biso   1.000  C
  C265     1.0000 0.22490  0.36500  0.57810  Biso   1.000  C
  C266     1.0000 0.14540  0.37100  0.57840  Biso   1.000  C
  Zn29     1.0000 0.37268  0.06406  0.64406  Biso   1.000  Zn
  Zn30     1.0000 0.36110  0.82105  0.57371  Biso   1.000  Zn
  Zn31     1.0000 0.59273  0.50427  0.62875  Biso   1.000  Zn
  Zn32     1.0000 0.66658  0.74801  0.65989  Biso   1.000  Zn
  O148     1.0000 0.37480  0.26750  0.64550  Biso   1.000  O
  O149     1.0000 0.30000  0.67750  0.54340  Biso   1.000  O
  O150     1.0000 0.35740  0.71620  0.52760  Biso   1.000  O
  O151     1.0000 0.42050  0.06490  0.62240  Biso   1.000  O
  O152     1.0000 0.41920  0.87720  0.58750  Biso   1.000  O
  O153     1.0000 0.35860  0.74880  0.62360  Biso   1.000  O
  O154     1.0000 0.38090  0.89330  0.67410  Biso   1.000  O
  O155     1.0000 0.17750  0.52540  0.43820  Biso   1.000  O
  O156     1.0000 0.18510  0.44860  0.38320  Biso   1.000  O
  O157     1.0000 0.56040  0.67340  0.61940  Biso   1.000  O
  O158     1.0000 0.61410  0.80970  0.62340  Biso   1.000  O
  O159     1.0000 0.38800  0.49600  0.81330  Biso   1.000  O
  O160     1.0000 0.36230  0.70170  0.79910  Biso   1.000  O
  O161     1.0000 0.32180  0.42060  0.36410  Biso   1.000  O
  O162     1.0000 0.37710  0.48760  0.41140  Biso   1.000  O
  O163     1.0000 0.53890  0.38130  0.61170  Biso   1.000  O
  O164     1.0000 0.59870  0.28580  0.62730  Biso   1.000  O
  C267     1.0000 0.37650  0.27800  0.67310  Biso   1.000  C
  O165     1.0000 0.37990  0.18560  0.69450  Biso   1.000  O
  C268     1.0000 0.37190  0.42070  0.69460  Biso   1.000  C
  C269     1.0000 0.37430  0.44230  0.73420  Biso   1.000  C
  H64      1.0000 0.37670  0.36890  0.75070  Biso   1.000  H
  C270     1.0000 0.37310  0.57230  0.74910  Biso   1.000  C
  C271     1.0000 0.37360  0.68520  0.72470  Biso   1.000  C
  H65      1.0000 0.37500  0.77240  0.73430  Biso   1.000  H
  C272     1.0000 0.37200  0.66140  0.68620  Biso   1.000  C
  C273     1.0000 0.37150  0.53320  0.67180  Biso   1.000  C
  H66      1.0000 0.37090  0.52170  0.64580  Biso   1.000  H
  C274     1.0000 0.32070  0.66760  0.52000  Biso   1.000  C
  C275     1.0000 0.30330  0.59410  0.48250  Biso   1.000  C
  C276     1.0000 0.26330  0.56910  0.46990  Biso   1.000  C
  H67      1.0000 0.24670  0.59070  0.48570  Biso   1.000  H
  C277     1.0000 0.24480  0.51020  0.43270  Biso   1.000  C
  C278     1.0000 0.26990  0.47120  0.41050  Biso   1.000  C
  H68      1.0000 0.25900  0.42720  0.38690  Biso   1.000  H
  C279     1.0000 0.31240  0.49880  0.42390  Biso   1.000  C
  C280     1.0000 0.43660  0.98180  0.60560  Biso   1.000  C
  C281     1.0000 0.32860  0.56000  0.45970  Biso   1.000  C
  H69      1.0000 0.35660  0.57850  0.46850  Biso   1.000  H
  C282     1.0000 0.48090  0.00010  0.60790  Biso   1.000  C
  C283     1.0000 0.49810  0.12990  0.60960  Biso   1.000  C
  H70      1.0000 0.48140  0.20520  0.60790  Biso   1.000  H
  C284     1.0000 0.53940  0.14460  0.61390  Biso   1.000  C
  C285     1.0000 0.56360  0.03460  0.61570  Biso   1.000  C
  H71      1.0000 0.59150  0.04560  0.61820  Biso   1.000  H
  C286     1.0000 0.54750  0.90680  0.61390  Biso   1.000  C
  C287     1.0000 0.50590  0.89130  0.60950  Biso   1.000  C
  H72      1.0000 0.49470  0.80530  0.60760  Biso   1.000  H
  C288     1.0000 0.57660  0.78640  0.61960  Biso   1.000  C
  C289     1.0000 0.37250  0.59180  0.78980  Biso   1.000  C
  C290     1.0000 0.33940  0.46340  0.39700  Biso   1.000  C
  C291     1.0000 0.56100  0.28070  0.61750  Biso   1.000  C
  C292     1.0000 0.19980  0.49150  0.41730  Biso   1.000  C
  C293     1.0000 0.37080  0.77770  0.65990  Biso   1.000  C
  O166     1.0000 0.69990  0.81100  0.62390  Biso   1.000  O
  N15      1.0000 0.73160  0.97400  0.58700  Biso   1.000  N
  C294     1.0000 0.69420  0.91300  0.60040  Biso   1.000  C
  C295     1.0000 0.66250  0.01500  0.58820  Biso   1.000  C
  C296     1.0000 0.68020  0.11300  0.57060  Biso   1.000  C
  C297     1.0000 0.71890  0.06900  0.55840  Biso   1.000  C
  C298     1.0000 0.77440  0.87900  0.59720  Biso   1.000  C
  C299     1.0000 0.36340  0.28100  0.68580  Biso   1.000  C
  O167     1.0000 0.34300  0.19000  0.69940  Biso   1.000  O
  O168     1.0000 0.69190  0.91500  0.66690  Biso   1.000  O
  N16      1.0000 0.69690  0.85900  0.60000  Biso   1.000  N
  C300     1.0000 0.71130  0.93800  0.64060  Biso   1.000  C
  C301     1.0000 0.75610  0.94300  0.64650  Biso   1.000  C
  C302     1.0000 0.76200  0.91900  0.61060  Biso   1.000  C
  C303     1.0000 0.72490  0.86500  0.57810  Biso   1.000  C
  C304     1.0000 0.64540  0.87100  0.57840  Biso   1.000  C
