data_image0
_cell_length_a       19.4476
_cell_length_b       19.4476
_cell_length_c       24.1299
_cell_angle_alpha    90
_cell_angle_beta     90
_cell_angle_gamma    90

_symmetry_space_group_name_H-M    "P 1"
_symmetry_int_tables_number       1

loop_
  _symmetry_equiv_pos_as_xyz
  'x, y, z'

loop_
  _atom_site_label
  _atom_site_occupancy
  _atom_site_fract_x
  _atom_site_fract_y
  _atom_site_fract_z
  _atom_site_thermal_displace_type
  _atom_site_B_iso_or_equiv
  _atom_site_type_symbol
  Cu1      1.0000 0.23190  0.22359  0.29834  Biso   1.000  Cu
  O1       1.0000 0.21130  0.31840  0.31580  Biso   1.000  O
  O2       1.0000 0.94310  0.07010  0.05840  Biso   1.000  O
  O3       1.0000 0.23970  0.36430  0.23580  Biso   1.000  O
  O4       1.0000 0.14230  0.21320  0.26310  Biso   1.000  O
  O5       1.0000 0.17220  0.25960  0.18130  Biso   1.000  O
  C1       1.0000 0.15440  0.43880  0.35120  Biso   1.000  C
  H1       1.0000 0.13880  0.39630  0.36600  Biso   1.000  H
  C2       1.0000 0.13100  0.22810  0.21300  Biso   1.000  C
  C3       1.0000 0.19520  0.43790  0.30570  Biso   1.000  C
  C4       1.0000 0.21940  0.36720  0.28430  Biso   1.000  C
  C5       1.0000 0.06120  0.16490  0.14630  Biso   1.000  C
  H2       1.0000 0.10320  0.14900  0.13080  Biso   1.000  H
  C6       1.0000 0.06330  0.20990  0.18920  Biso   1.000  C
  O6       1.0000 0.07000  0.44020  0.44310  Biso   1.000  O
  H3       1.0000 0.22370  0.54460  0.16380  Biso   1.000  H
  H4       1.0000 0.16900  0.49190  0.18930  Biso   1.000  H
  H5       1.0000 0.23590  0.46350  0.15820  Biso   1.000  H
  Cu2      1.0000 0.73190  0.72359  0.79834  Biso   1.000  Cu
  O7       1.0000 0.71130  0.81840  0.81580  Biso   1.000  O
  O8       1.0000 0.44310  0.57010  0.55840  Biso   1.000  O
  O9       1.0000 0.73970  0.86430  0.73580  Biso   1.000  O
  O10      1.0000 0.64230  0.71320  0.76310  Biso   1.000  O
  O11      1.0000 0.67220  0.75960  0.68130  Biso   1.000  O
  C7       1.0000 0.65440  0.93880  0.85120  Biso   1.000  C
  H6       1.0000 0.63880  0.89630  0.86600  Biso   1.000  H
  C8       1.0000 0.63100  0.72810  0.71300  Biso   1.000  C
  C9       1.0000 0.69520  0.93790  0.80570  Biso   1.000  C
  C10      1.0000 0.71940  0.86720  0.78430  Biso   1.000  C
  C11      1.0000 0.56120  0.66490  0.64630  Biso   1.000  C
  H7       1.0000 0.60320  0.64900  0.63080  Biso   1.000  H
  C12      1.0000 0.56330  0.70990  0.68920  Biso   1.000  C
  O12      1.0000 0.57000  0.94020  0.94310  Biso   1.000  O
  H8       1.0000 0.72370  0.04460  0.66380  Biso   1.000  H
  H9       1.0000 0.66900  0.99190  0.68930  Biso   1.000  H
  H10      1.0000 0.73590  0.96350  0.65820  Biso   1.000  H
  Cu3      1.0000 0.76810  0.77641  0.29834  Biso   1.000  Cu
  O13      1.0000 0.78870  0.68160  0.31580  Biso   1.000  O
  O14      1.0000 0.05690  0.92990  0.05840  Biso   1.000  O
  O15      1.0000 0.76030  0.63570  0.23580  Biso   1.000  O
  O16      1.0000 0.85770  0.78680  0.26310  Biso   1.000  O
  O17      1.0000 0.82780  0.74040  0.18130  Biso   1.000  O
  C13      1.0000 0.84560  0.56120  0.35120  Biso   1.000  C
  H11      1.0000 0.86120  0.60370  0.36600  Biso   1.000  H
  C14      1.0000 0.86900  0.77190  0.21300  Biso   1.000  C
  C15      1.0000 0.80480  0.56210  0.30570  Biso   1.000  C
  C16      1.0000 0.78060  0.63280  0.28430  Biso   1.000  C
  C17      1.0000 0.93880  0.83510  0.14630  Biso   1.000  C
  H12      1.0000 0.89680  0.85100  0.13080  Biso   1.000  H
  C18      1.0000 0.93670  0.79010  0.18920  Biso   1.000  C
  O18      1.0000 0.93000  0.55980  0.44310  Biso   1.000  O
  H13      1.0000 0.77630  0.45540  0.16380  Biso   1.000  H
  H14      1.0000 0.83100  0.50810  0.18930  Biso   1.000  H
  H15      1.0000 0.76410  0.53650  0.15820  Biso   1.000  H
  Cu4      1.0000 0.26810  0.27641  0.79834  Biso   1.000  Cu
  O19      1.0000 0.28870  0.18160  0.81580  Biso   1.000  O
  O20      1.0000 0.55690  0.42990  0.55840  Biso   1.000  O
  O21      1.0000 0.26030  0.13570  0.73580  Biso   1.000  O
  O22      1.0000 0.35770  0.28680  0.76310  Biso   1.000  O
  O23      1.0000 0.32780  0.24040  0.68130  Biso   1.000  O
  C19      1.0000 0.34560  0.06120  0.85120  Biso   1.000  C
  H16      1.0000 0.36120  0.10370  0.86600  Biso   1.000  H
  C20      1.0000 0.36900  0.27190  0.71300  Biso   1.000  C
  C21      1.0000 0.30480  0.06210  0.80570  Biso   1.000  C
  C22      1.0000 0.28060  0.13280  0.78430  Biso   1.000  C
  C23      1.0000 0.43880  0.33510  0.64630  Biso   1.000  C
  H17      1.0000 0.39680  0.35100  0.63080  Biso   1.000  H
  C24      1.0000 0.43670  0.29010  0.68920  Biso   1.000  C
  O24      1.0000 0.43000  0.05980  0.94310  Biso   1.000  O
  H18      1.0000 0.27630  0.95540  0.66380  Biso   1.000  H
  H19      1.0000 0.33100  0.00810  0.68930  Biso   1.000  H
  H20      1.0000 0.26410  0.03650  0.65820  Biso   1.000  H
  Cu5      1.0000 0.76810  0.22359  0.70166  Biso   1.000  Cu
  O25      1.0000 0.78870  0.31840  0.68420  Biso   1.000  O
  O26      1.0000 0.05690  0.07010  0.94160  Biso   1.000  O
  O27      1.0000 0.76030  0.36430  0.76420  Biso   1.000  O
  O28      1.0000 0.85770  0.21320  0.73690  Biso   1.000  O
  O29      1.0000 0.82780  0.25960  0.81870  Biso   1.000  O
  C25      1.0000 0.84560  0.43880  0.64880  Biso   1.000  C
  H21      1.0000 0.86120  0.39630  0.63400  Biso   1.000  H
  C26      1.0000 0.86900  0.22810  0.78700  Biso   1.000  C
  C27      1.0000 0.80480  0.43790  0.69430  Biso   1.000  C
  C28      1.0000 0.78060  0.36720  0.71570  Biso   1.000  C
  C29      1.0000 0.93880  0.16490  0.85370  Biso   1.000  C
  H22      1.0000 0.89680  0.14900  0.86920  Biso   1.000  H
  C30      1.0000 0.93670  0.20990  0.81080  Biso   1.000  C
  O30      1.0000 0.93000  0.44020  0.55690  Biso   1.000  O
  H23      1.0000 0.77630  0.54460  0.83620  Biso   1.000  H
  H24      1.0000 0.83100  0.49190  0.81070  Biso   1.000  H
  H25      1.0000 0.76410  0.46350  0.84180  Biso   1.000  H
  Cu6      1.0000 0.26810  0.72359  0.20166  Biso   1.000  Cu
  O31      1.0000 0.28870  0.81840  0.18420  Biso   1.000  O
  O32      1.0000 0.55690  0.57010  0.44160  Biso   1.000  O
  O33      1.0000 0.26030  0.86430  0.26420  Biso   1.000  O
  O34      1.0000 0.35770  0.71320  0.23690  Biso   1.000  O
  O35      1.0000 0.32780  0.75960  0.31870  Biso   1.000  O
  C31      1.0000 0.34560  0.93880  0.14880  Biso   1.000  C
  H26      1.0000 0.36120  0.89630  0.13400  Biso   1.000  H
  C32      1.0000 0.36900  0.72810  0.28700  Biso   1.000  C
  C33      1.0000 0.30480  0.93790  0.19430  Biso   1.000  C
  C34      1.0000 0.28060  0.86720  0.21570  Biso   1.000  C
  C35      1.0000 0.43880  0.66490  0.35370  Biso   1.000  C
  H27      1.0000 0.39680  0.64900  0.36920  Biso   1.000  H
  C36      1.0000 0.43670  0.70990  0.31080  Biso   1.000  C
  O36      1.0000 0.43000  0.94020  0.05690  Biso   1.000  O
  H28      1.0000 0.27630  0.04460  0.33620  Biso   1.000  H
  H29      1.0000 0.33100  0.99190  0.31070  Biso   1.000  H
  H30      1.0000 0.26410  0.96350  0.34180  Biso   1.000  H
  Cu7      1.0000 0.23190  0.77641  0.70166  Biso   1.000  Cu
  O37      1.0000 0.21130  0.68160  0.68420  Biso   1.000  O
  O38      1.0000 0.94310  0.92990  0.94160  Biso   1.000  O
  O39      1.0000 0.23970  0.63570  0.76420  Biso   1.000  O
  O40      1.0000 0.14230  0.78680  0.73690  Biso   1.000  O
  O41      1.0000 0.17220  0.74040  0.81870  Biso   1.000  O
  C37      1.0000 0.15440  0.56120  0.64880  Biso   1.000  C
  H31      1.0000 0.13880  0.60370  0.63400  Biso   1.000  H
  C38      1.0000 0.13100  0.77190  0.78700  Biso   1.000  C
  C39      1.0000 0.19520  0.56210  0.69430  Biso   1.000  C
  C40      1.0000 0.21940  0.63280  0.71570  Biso   1.000  C
  C41      1.0000 0.06120  0.83510  0.85370  Biso   1.000  C
  H32      1.0000 0.10320  0.85100  0.86920  Biso   1.000  H
  C42      1.0000 0.06330  0.79010  0.81080  Biso   1.000  C
  O42      1.0000 0.07000  0.55980  0.55690  Biso   1.000  O
  H33      1.0000 0.22370  0.45540  0.83620  Biso   1.000  H
  H34      1.0000 0.16900  0.50810  0.81070  Biso   1.000  H
  H35      1.0000 0.23590  0.53650  0.84180  Biso   1.000  H
  Cu8      1.0000 0.73190  0.27641  0.20166  Biso   1.000  Cu
  O43      1.0000 0.71130  0.18160  0.18420  Biso   1.000  O
  O44      1.0000 0.44310  0.42990  0.44160  Biso   1.000  O
  O45      1.0000 0.73970  0.13570  0.26420  Biso   1.000  O
  O46      1.0000 0.64230  0.28680  0.23690  Biso   1.000  O
  O47      1.0000 0.67220  0.24040  0.31870  Biso   1.000  O
  C43      1.0000 0.65440  0.06120  0.14880  Biso   1.000  C
  H36      1.0000 0.63880  0.10370  0.13400  Biso   1.000  H
  C44      1.0000 0.63100  0.27190  0.28700  Biso   1.000  C
  C45      1.0000 0.69520  0.06210  0.19430  Biso   1.000  C
  C46      1.0000 0.71940  0.13280  0.21570  Biso   1.000  C
  C47      1.0000 0.56120  0.33510  0.35370  Biso   1.000  C
  H37      1.0000 0.60320  0.35100  0.36920  Biso   1.000  H
  C48      1.0000 0.56330  0.29010  0.31080  Biso   1.000  C
  O48      1.0000 0.57000  0.05980  0.05690  Biso   1.000  O
  H38      1.0000 0.72370  0.95540  0.33620  Biso   1.000  H
  H39      1.0000 0.66900  0.00810  0.31070  Biso   1.000  H
  H40      1.0000 0.73590  0.03650  0.34180  Biso   1.000  H
  Cu9      1.0000 0.76810  0.77641  0.70166  Biso   1.000  Cu
  O49      1.0000 0.78870  0.68160  0.68420  Biso   1.000  O
  O50      1.0000 0.05690  0.92990  0.94160  Biso   1.000  O
  O51      1.0000 0.76030  0.63570  0.76420  Biso   1.000  O
  O52      1.0000 0.85770  0.78680  0.73690  Biso   1.000  O
  O53      1.0000 0.82780  0.74040  0.81870  Biso   1.000  O
  C49      1.0000 0.84560  0.56120  0.64880  Biso   1.000  C
  H41      1.0000 0.86120  0.60370  0.63400  Biso   1.000  H
  C50      1.0000 0.86900  0.77190  0.78700  Biso   1.000  C
  C51      1.0000 0.80480  0.56210  0.69430  Biso   1.000  C
  C52      1.0000 0.78060  0.63280  0.71570  Biso   1.000  C
  C53      1.0000 0.93880  0.83510  0.85370  Biso   1.000  C
  H42      1.0000 0.89680  0.85100  0.86920  Biso   1.000  H
  C54      1.0000 0.93670  0.79010  0.81080  Biso   1.000  C
  O54      1.0000 0.93000  0.55980  0.55690  Biso   1.000  O
  H43      1.0000 0.77630  0.45540  0.83620  Biso   1.000  H
  H44      1.0000 0.83100  0.50810  0.81070  Biso   1.000  H
  H45      1.0000 0.76410  0.53650  0.84180  Biso   1.000  H
  Cu10     1.0000 0.26810  0.27641  0.20166  Biso   1.000  Cu
  O55      1.0000 0.28870  0.18160  0.18420  Biso   1.000  O
  O56      1.0000 0.55690  0.42990  0.44160  Biso   1.000  O
  O57      1.0000 0.26030  0.13570  0.26420  Biso   1.000  O
  O58      1.0000 0.35770  0.28680  0.23690  Biso   1.000  O
  O59      1.0000 0.32780  0.24040  0.31870  Biso   1.000  O
  C55      1.0000 0.34560  0.06120  0.14880  Biso   1.000  C
  H46      1.0000 0.36120  0.10370  0.13400  Biso   1.000  H
  C56      1.0000 0.36900  0.27190  0.28700  Biso   1.000  C
  C57      1.0000 0.30480  0.06210  0.19430  Biso   1.000  C
  C58      1.0000 0.28060  0.13280  0.21570  Biso   1.000  C
  C59      1.0000 0.43880  0.33510  0.35370  Biso   1.000  C
  H47      1.0000 0.39680  0.35100  0.36920  Biso   1.000  H
  C60      1.0000 0.43670  0.29010  0.31080  Biso   1.000  C
  O60      1.0000 0.43000  0.05980  0.05690  Biso   1.000  O
  H48      1.0000 0.27630  0.95540  0.33620  Biso   1.000  H
  H49      1.0000 0.33100  0.00810  0.31070  Biso   1.000  H
  H50      1.0000 0.26410  0.03650  0.34180  Biso   1.000  H
  Cu11     1.0000 0.23190  0.22359  0.70166  Biso   1.000  Cu
  O61      1.0000 0.21130  0.31840  0.68420  Biso   1.000  O
  O62      1.0000 0.94310  0.07010  0.94160  Biso   1.000  O
  O63      1.0000 0.23970  0.36430  0.76420  Biso   1.000  O
  O64      1.0000 0.14230  0.21320  0.73690  Biso   1.000  O
  O65      1.0000 0.17220  0.25960  0.81870  Biso   1.000  O
  C61      1.0000 0.15440  0.43880  0.64880  Biso   1.000  C
  H51      1.0000 0.13880  0.39630  0.63400  Biso   1.000  H
  C62      1.0000 0.13100  0.22810  0.78700  Biso   1.000  C
  C63      1.0000 0.19520  0.43790  0.69430  Biso   1.000  C
  C64      1.0000 0.21940  0.36720  0.71570  Biso   1.000  C
  C65      1.0000 0.06120  0.16490  0.85370  Biso   1.000  C
  H52      1.0000 0.10320  0.14900  0.86920  Biso   1.000  H
  C66      1.0000 0.06330  0.20990  0.81080  Biso   1.000  C
  O66      1.0000 0.07000  0.44020  0.55690  Biso   1.000  O
  H53      1.0000 0.22370  0.54460  0.83620  Biso   1.000  H
  H54      1.0000 0.16900  0.49190  0.81070  Biso   1.000  H
  H55      1.0000 0.23590  0.46350  0.84180  Biso   1.000  H
  Cu12     1.0000 0.73190  0.72359  0.20166  Biso   1.000  Cu
  O67      1.0000 0.71130  0.81840  0.18420  Biso   1.000  O
  O68      1.0000 0.44310  0.57010  0.44160  Biso   1.000  O
  O69      1.0000 0.73970  0.86430  0.26420  Biso   1.000  O
  O70      1.0000 0.64230  0.71320  0.23690  Biso   1.000  O
  O71      1.0000 0.67220  0.75960  0.31870  Biso   1.000  O
  C67      1.0000 0.65440  0.93880  0.14880  Biso   1.000  C
  H56      1.0000 0.63880  0.89630  0.13400  Biso   1.000  H
  C68      1.0000 0.63100  0.72810  0.28700  Biso   1.000  C
  C69      1.0000 0.69520  0.93790  0.19430  Biso   1.000  C
  C70      1.0000 0.71940  0.86720  0.21570  Biso   1.000  C
  C71      1.0000 0.56120  0.66490  0.35370  Biso   1.000  C
  H57      1.0000 0.60320  0.64900  0.36920  Biso   1.000  H
  C72      1.0000 0.56330  0.70990  0.31080  Biso   1.000  C
  O72      1.0000 0.57000  0.94020  0.05690  Biso   1.000  O
  H58      1.0000 0.72370  0.04460  0.33620  Biso   1.000  H
  H59      1.0000 0.66900  0.99190  0.31070  Biso   1.000  H
  H60      1.0000 0.73590  0.96350  0.34180  Biso   1.000  H
  Cu13     1.0000 0.23190  0.77641  0.29834  Biso   1.000  Cu
  O73      1.0000 0.21130  0.68160  0.31580  Biso   1.000  O
  O74      1.0000 0.94310  0.92990  0.05840  Biso   1.000  O
  O75      1.0000 0.23970  0.63570  0.23580  Biso   1.000  O
  O76      1.0000 0.14230  0.78680  0.26310  Biso   1.000  O
  O77      1.0000 0.17220  0.74040  0.18130  Biso   1.000  O
  C73      1.0000 0.15440  0.56120  0.35120  Biso   1.000  C
  H61      1.0000 0.13880  0.60370  0.36600  Biso   1.000  H
  C74      1.0000 0.13100  0.77190  0.21300  Biso   1.000  C
  C75      1.0000 0.19520  0.56210  0.30570  Biso   1.000  C
  C76      1.0000 0.21940  0.63280  0.28430  Biso   1.000  C
  C77      1.0000 0.06120  0.83510  0.14630  Biso   1.000  C
  H62      1.0000 0.10320  0.85100  0.13080  Biso   1.000  H
  C78      1.0000 0.06330  0.79010  0.18920  Biso   1.000  C
  O78      1.0000 0.07000  0.55980  0.44310  Biso   1.000  O
  H63      1.0000 0.22370  0.45540  0.16380  Biso   1.000  H
  H64      1.0000 0.16900  0.50810  0.18930  Biso   1.000  H
  H65      1.0000 0.23590  0.53650  0.15820  Biso   1.000  H
  Cu14     1.0000 0.73190  0.27641  0.79834  Biso   1.000  Cu
  O79      1.0000 0.71130  0.18160  0.81580  Biso   1.000  O
  O80      1.0000 0.44310  0.42990  0.55840  Biso   1.000  O
  O81      1.0000 0.73970  0.13570  0.73580  Biso   1.000  O
  O82      1.0000 0.64230  0.28680  0.76310  Biso   1.000  O
  O83      1.0000 0.67220  0.24040  0.68130  Biso   1.000  O
  C79      1.0000 0.65440  0.06120  0.85120  Biso   1.000  C
  H66      1.0000 0.63880  0.10370  0.86600  Biso   1.000  H
  C80      1.0000 0.63100  0.27190  0.71300  Biso   1.000  C
  C81      1.0000 0.69520  0.06210  0.80570  Biso   1.000  C
  C82      1.0000 0.71940  0.13280  0.78430  Biso   1.000  C
  C83      1.0000 0.56120  0.33510  0.64630  Biso   1.000  C
  H67      1.0000 0.60320  0.35100  0.63080  Biso   1.000  H
  C84      1.0000 0.56330  0.29010  0.68920  Biso   1.000  C
  O84      1.0000 0.57000  0.05980  0.94310  Biso   1.000  O
  H68      1.0000 0.72370  0.95540  0.66380  Biso   1.000  H
  H69      1.0000 0.66900  0.00810  0.68930  Biso   1.000  H
  H70      1.0000 0.73590  0.03650  0.65820  Biso   1.000  H
  Cu15     1.0000 0.76810  0.22359  0.29834  Biso   1.000  Cu
  O85      1.0000 0.78870  0.31840  0.31580  Biso   1.000  O
  O86      1.0000 0.05690  0.07010  0.05840  Biso   1.000  O
  O87      1.0000 0.76030  0.36430  0.23580  Biso   1.000  O
  O88      1.0000 0.85770  0.21320  0.26310  Biso   1.000  O
  O89      1.0000 0.82780  0.25960  0.18130  Biso   1.000  O
  C85      1.0000 0.84560  0.43880  0.35120  Biso   1.000  C
  H71      1.0000 0.86120  0.39630  0.36600  Biso   1.000  H
  C86      1.0000 0.86900  0.22810  0.21300  Biso   1.000  C
  C87      1.0000 0.80480  0.43790  0.30570  Biso   1.000  C
  C88      1.0000 0.78060  0.36720  0.28430  Biso   1.000  C
  C89      1.0000 0.93880  0.16490  0.14630  Biso   1.000  C
  H72      1.0000 0.89680  0.14900  0.13080  Biso   1.000  H
  C90      1.0000 0.93670  0.20990  0.18920  Biso   1.000  C
  O90      1.0000 0.93000  0.44020  0.44310  Biso   1.000  O
  H73      1.0000 0.77630  0.54460  0.16380  Biso   1.000  H
  H74      1.0000 0.83100  0.49190  0.18930  Biso   1.000  H
  H75      1.0000 0.76410  0.46350  0.15820  Biso   1.000  H
  Cu16     1.0000 0.26810  0.72359  0.79834  Biso   1.000  Cu
  O91      1.0000 0.28870  0.81840  0.81580  Biso   1.000  O
  O92      1.0000 0.55690  0.57010  0.55840  Biso   1.000  O
  O93      1.0000 0.26030  0.86430  0.73580  Biso   1.000  O
  O94      1.0000 0.35770  0.71320  0.76310  Biso   1.000  O
  O95      1.0000 0.32780  0.75960  0.68130  Biso   1.000  O
  C91      1.0000 0.34560  0.93880  0.85120  Biso   1.000  C
  H76      1.0000 0.36120  0.89630  0.86600  Biso   1.000  H
  C92      1.0000 0.36900  0.72810  0.71300  Biso   1.000  C
  C93      1.0000 0.30480  0.93790  0.80570  Biso   1.000  C
  C94      1.0000 0.28060  0.86720  0.78430  Biso   1.000  C
  C95      1.0000 0.43880  0.66490  0.64630  Biso   1.000  C
  H77      1.0000 0.39680  0.64900  0.63080  Biso   1.000  H
  C96      1.0000 0.43670  0.70990  0.68920  Biso   1.000  C
  O96      1.0000 0.43000  0.94020  0.94310  Biso   1.000  O
  H78      1.0000 0.27630  0.04460  0.66380  Biso   1.000  H
  H79      1.0000 0.33100  0.99190  0.68930  Biso   1.000  H
  H80      1.0000 0.26410  0.96350  0.65820  Biso   1.000  H
  Cu17     1.0000 0.93251  0.00000  0.00000  Biso   1.000  Cu
  Cu18     1.0000 0.43251  0.50000  0.50000  Biso   1.000  Cu
  Cu19     1.0000 0.06749  0.00000  0.00000  Biso   1.000  Cu
  Cu20     1.0000 0.56749  0.50000  0.50000  Biso   1.000  Cu
  C97      1.0000 0.00000  0.08980  0.07580  Biso   1.000  C
  O97      1.0000 0.00000  0.28290  0.25210  Biso   1.000  O
  C98      1.0000 0.00000  0.14160  0.12440  Biso   1.000  C
  C99      1.0000 0.00000  0.23550  0.21110  Biso   1.000  C
  C100     1.0000 0.50000  0.58980  0.57580  Biso   1.000  C
  O98      1.0000 0.50000  0.78290  0.75210  Biso   1.000  O
  C101     1.0000 0.50000  0.64160  0.62440  Biso   1.000  C
  C102     1.0000 0.50000  0.73550  0.71110  Biso   1.000  C
  C103     1.0000 0.00000  0.91020  0.07580  Biso   1.000  C
  O99      1.0000 0.00000  0.71710  0.25210  Biso   1.000  O
  C104     1.0000 0.00000  0.85840  0.12440  Biso   1.000  C
  C105     1.0000 0.00000  0.76450  0.21110  Biso   1.000  C
  C106     1.0000 0.50000  0.41020  0.57580  Biso   1.000  C
  O100     1.0000 0.50000  0.21710  0.75210  Biso   1.000  O
  C107     1.0000 0.50000  0.35840  0.62440  Biso   1.000  C
  C108     1.0000 0.50000  0.26450  0.71110  Biso   1.000  C
  C109     1.0000 0.00000  0.08980  0.92420  Biso   1.000  C
  O101     1.0000 0.00000  0.28290  0.74790  Biso   1.000  O
  C110     1.0000 0.00000  0.14160  0.87560  Biso   1.000  C
  C111     1.0000 0.00000  0.23550  0.78890  Biso   1.000  C
  C112     1.0000 0.50000  0.58980  0.42420  Biso   1.000  C
  O102     1.0000 0.50000  0.78290  0.24790  Biso   1.000  O
  C113     1.0000 0.50000  0.64160  0.37560  Biso   1.000  C
  C114     1.0000 0.50000  0.73550  0.28890  Biso   1.000  C
  C115     1.0000 0.00000  0.91020  0.92420  Biso   1.000  C
  O103     1.0000 0.00000  0.71710  0.74790  Biso   1.000  O
  C116     1.0000 0.00000  0.85840  0.87560  Biso   1.000  C
  C117     1.0000 0.00000  0.76450  0.78890  Biso   1.000  C
  C118     1.0000 0.50000  0.41020  0.42420  Biso   1.000  C
  O104     1.0000 0.50000  0.21710  0.24790  Biso   1.000  O
  C119     1.0000 0.50000  0.35840  0.37560  Biso   1.000  C
  C120     1.0000 0.50000  0.26450  0.28890  Biso   1.000  C
  O105     1.0000 0.25650  0.50000  0.23590  Biso   1.000  O
  C121     1.0000 0.21990  0.50000  0.28080  Biso   1.000  C
  C122     1.0000 0.08790  0.50000  0.42430  Biso   1.000  C
  C123     1.0000 0.13460  0.50000  0.37710  Biso   1.000  C
  C124     1.0000 0.21800  0.50000  0.18200  Biso   1.000  C
  O106     1.0000 0.75650  0.00000  0.73590  Biso   1.000  O
  C125     1.0000 0.71990  0.00000  0.78080  Biso   1.000  C
  C126     1.0000 0.58790  0.00000  0.92430  Biso   1.000  C
  C127     1.0000 0.63460  0.00000  0.87710  Biso   1.000  C
  C128     1.0000 0.71800  0.00000  0.68200  Biso   1.000  C
  O107     1.0000 0.74350  0.50000  0.23590  Biso   1.000  O
  C129     1.0000 0.78010  0.50000  0.28080  Biso   1.000  C
  C130     1.0000 0.91210  0.50000  0.42430  Biso   1.000  C
  C131     1.0000 0.86540  0.50000  0.37710  Biso   1.000  C
  C132     1.0000 0.78200  0.50000  0.18200  Biso   1.000  C
  O108     1.0000 0.24350  0.00000  0.73590  Biso   1.000  O
  C133     1.0000 0.28010  0.00000  0.78080  Biso   1.000  C
  C134     1.0000 0.41210  0.00000  0.92430  Biso   1.000  C
  C135     1.0000 0.36540  0.00000  0.87710  Biso   1.000  C
  C136     1.0000 0.28200  0.00000  0.68200  Biso   1.000  C
  O109     1.0000 0.74350  0.50000  0.76410  Biso   1.000  O
  C137     1.0000 0.78010  0.50000  0.71920  Biso   1.000  C
  C138     1.0000 0.91210  0.50000  0.57570  Biso   1.000  C
  C139     1.0000 0.86540  0.50000  0.62290  Biso   1.000  C
  C140     1.0000 0.78200  0.50000  0.81800  Biso   1.000  C
  O110     1.0000 0.24350  0.00000  0.26410  Biso   1.000  O
  C141     1.0000 0.28010  0.00000  0.21920  Biso   1.000  C
  C142     1.0000 0.41210  0.00000  0.07570  Biso   1.000  C
  C143     1.0000 0.36540  0.00000  0.12290  Biso   1.000  C
  C144     1.0000 0.28200  0.00000  0.31800  Biso   1.000  C
  O111     1.0000 0.25650  0.50000  0.76410  Biso   1.000  O
  C145     1.0000 0.21990  0.50000  0.71920  Biso   1.000  C
  C146     1.0000 0.08790  0.50000  0.57570  Biso   1.000  C
  C147     1.0000 0.13460  0.50000  0.62290  Biso   1.000  C
  C148     1.0000 0.21800  0.50000  0.81800  Biso   1.000  C
  O112     1.0000 0.75650  0.00000  0.26410  Biso   1.000  O
  C149     1.0000 0.71990  0.00000  0.21920  Biso   1.000  C
  C150     1.0000 0.58790  0.00000  0.07570  Biso   1.000  C
  C151     1.0000 0.63460  0.00000  0.12290  Biso   1.000  C
  C152     1.0000 0.71800  0.00000  0.31800  Biso   1.000  C
  Cu21     1.0000 0.00000  0.43195  0.50000  Biso   1.000  Cu
  Cu22     1.0000 0.50000  0.93195  0.00000  Biso   1.000  Cu
  Cu23     1.0000 0.00000  0.56805  0.50000  Biso   1.000  Cu
  Cu24     1.0000 0.50000  0.06805  0.00000  Biso   1.000  Cu
