data_image0
_cell_length_a       26.633
_cell_length_b       26.633
_cell_length_c       5.1305
_cell_angle_alpha    90
_cell_angle_beta     90
_cell_angle_gamma    90

_symmetry_space_group_name_H-M    "P 1"
_symmetry_int_tables_number       1

loop_
  _symmetry_equiv_pos_as_xyz
  'x, y, z'

loop_
  _atom_site_label
  _atom_site_occupancy
  _atom_site_fract_x
  _atom_site_fract_y
  _atom_site_fract_z
  _atom_site_thermal_displace_type
  _atom_site_B_iso_or_equiv
  _atom_site_type_symbol
  Zn1      1.0000 0.27287  0.21413  0.91490  Biso   1.000  Zn
  O1       1.0000 0.22110  0.25330  0.08800  Biso   1.000  O
  H1       1.0000 0.20040  0.26430  0.97560  Biso   1.000  H
  N1       1.0000 0.25410  0.14250  0.90100  Biso   1.000  N
  C1       1.0000 0.26800  0.10410  0.04200  Biso   1.000  C
  H2       1.0000 0.29330  0.10660  0.16610  Biso   1.000  H
  N2       1.0000 0.24330  0.06040  0.99690  Biso   1.000  N
  C2       1.0000 0.21400  0.12180  0.73870  Biso   1.000  C
  O2       1.0000 0.27630  0.83280  0.37000  Biso   1.000  O
  C3       1.0000 0.18440  0.14350  0.54850  Biso   1.000  C
  H3       1.0000 0.18820  0.17720  0.50540  Biso   1.000  H
  O3       1.0000 0.32090  0.86940  0.66500  Biso   1.000  O
  C4       1.0000 0.14890  0.11420  0.42340  Biso   1.000  C
  C5       1.0000 0.11950  0.13650  0.23380  Biso   1.000  C
  H4       1.0000 0.12430  0.17030  0.19500  Biso   1.000  H
  C6       1.0000 0.08280  0.10940  0.09900  Biso   1.000  C
  H5       1.0000 0.06300  0.12430  0.97130  Biso   1.000  H
  C7       1.0000 0.07740  0.05880  0.16590  Biso   1.000  C
  H6       1.0000 0.05330  0.03960  0.08030  Biso   1.000  H
  C8       1.0000 0.10700  0.03650  0.35700  Biso   1.000  C
  H7       1.0000 0.10230  0.00270  0.39720  Biso   1.000  H
  C9       1.0000 0.14350  0.06370  0.48990  Biso   1.000  C
  C10      1.0000 0.17290  0.04110  0.68150  Biso   1.000  C
  H8       1.0000 0.16900  0.00740  0.72550  Biso   1.000  H
  C11      1.0000 0.20850  0.07130  0.80350  Biso   1.000  C
  C12      1.0000 0.25810  0.01260  0.10300  Biso   1.000  C
  C13      1.0000 0.28680  0.92300  0.32100  Biso   1.000  C
  C14      1.0000 0.27860  0.01100  0.35100  Biso   1.000  C
  H9       1.0000 0.28250  0.04090  0.44310  Biso   1.000  H
  C15      1.0000 0.29320  0.96670  0.46400  Biso   1.000  C
  H10      1.0000 0.30690  0.96600  0.63120  Biso   1.000  H
  C16      1.0000 0.26670  0.92250  0.07400  Biso   1.000  C
  H11      1.0000 0.26290  0.89270  0.98260  Biso   1.000  H
  C17      1.0000 0.25250  0.96790  0.96800  Biso   1.000  C
  H12      1.0000 0.23870  0.96850  0.80140  Biso   1.000  H
  C18      1.0000 0.29910  0.87190  0.43600  Biso   1.000  C
  O4       1.0000 0.34830  0.86990  0.46700  Biso   1.000  O
  C19      1.0000 0.30810  0.00440  0.16400  Biso   1.000  C
  H13      1.0000 0.33160  0.02950  0.12970  Biso   1.000  H
  C20      1.0000 0.32400  0.95910  0.27500  Biso   1.000  C
  H14      1.0000 0.35750  0.95330  0.31570  Biso   1.000  H
  C21      1.0000 0.23560  0.92770  0.26600  Biso   1.000  C
  H15      1.0000 0.21200  0.90270  0.29750  Biso   1.000  H
  C22      1.0000 0.22400  0.97440  0.15600  Biso   1.000  C
  H16      1.0000 0.19050  0.98040  0.11550  Biso   1.000  H
  Zn2      1.0000 0.77287  0.71413  0.41490  Biso   1.000  Zn
  O5       1.0000 0.72110  0.75330  0.58800  Biso   1.000  O
  H17      1.0000 0.70040  0.76430  0.47560  Biso   1.000  H
  N3       1.0000 0.75410  0.64250  0.40100  Biso   1.000  N
  C23      1.0000 0.76800  0.60410  0.54200  Biso   1.000  C
  H18      1.0000 0.79330  0.60660  0.66610  Biso   1.000  H
  N4       1.0000 0.74330  0.56040  0.49690  Biso   1.000  N
  C24      1.0000 0.71400  0.62180  0.23870  Biso   1.000  C
  O6       1.0000 0.77630  0.33280  0.87000  Biso   1.000  O
  C25      1.0000 0.68440  0.64350  0.04850  Biso   1.000  C
  H19      1.0000 0.68820  0.67720  0.00540  Biso   1.000  H
  O7       1.0000 0.82090  0.36940  0.16500  Biso   1.000  O
  C26      1.0000 0.64890  0.61420  0.92340  Biso   1.000  C
  C27      1.0000 0.61950  0.63650  0.73380  Biso   1.000  C
  H20      1.0000 0.62430  0.67030  0.69500  Biso   1.000  H
  C28      1.0000 0.58280  0.60940  0.59900  Biso   1.000  C
  H21      1.0000 0.56300  0.62430  0.47130  Biso   1.000  H
  C29      1.0000 0.57740  0.55880  0.66590  Biso   1.000  C
  H22      1.0000 0.55330  0.53960  0.58030  Biso   1.000  H
  C30      1.0000 0.60700  0.53650  0.85700  Biso   1.000  C
  H23      1.0000 0.60230  0.50270  0.89720  Biso   1.000  H
  C31      1.0000 0.64350  0.56370  0.98990  Biso   1.000  C
  C32      1.0000 0.67290  0.54110  0.18150  Biso   1.000  C
  H24      1.0000 0.66900  0.50740  0.22550  Biso   1.000  H
  C33      1.0000 0.70850  0.57130  0.30350  Biso   1.000  C
  C34      1.0000 0.75810  0.51260  0.60300  Biso   1.000  C
  C35      1.0000 0.78680  0.42300  0.82100  Biso   1.000  C
  C36      1.0000 0.77860  0.51100  0.85100  Biso   1.000  C
  H25      1.0000 0.78250  0.54090  0.94310  Biso   1.000  H
  C37      1.0000 0.79320  0.46670  0.96400  Biso   1.000  C
  H26      1.0000 0.80690  0.46600  0.13120  Biso   1.000  H
  C38      1.0000 0.76670  0.42250  0.57400  Biso   1.000  C
  H27      1.0000 0.76290  0.39270  0.48260  Biso   1.000  H
  C39      1.0000 0.75250  0.46790  0.46800  Biso   1.000  C
  H28      1.0000 0.73870  0.46850  0.30140  Biso   1.000  H
  C40      1.0000 0.79910  0.37190  0.93600  Biso   1.000  C
  O8       1.0000 0.84830  0.36990  0.96700  Biso   1.000  O
  C41      1.0000 0.80810  0.50440  0.66400  Biso   1.000  C
  H29      1.0000 0.83160  0.52950  0.62970  Biso   1.000  H
  C42      1.0000 0.82400  0.45910  0.77500  Biso   1.000  C
  H30      1.0000 0.85750  0.45330  0.81570  Biso   1.000  H
  C43      1.0000 0.73560  0.42770  0.76600  Biso   1.000  C
  H31      1.0000 0.71200  0.40270  0.79750  Biso   1.000  H
  C44      1.0000 0.72400  0.47440  0.65600  Biso   1.000  C
  H32      1.0000 0.69050  0.48040  0.61550  Biso   1.000  H
  Zn3      1.0000 0.72713  0.78587  0.91490  Biso   1.000  Zn
  O9       1.0000 0.77890  0.74670  0.08800  Biso   1.000  O
  H33      1.0000 0.79960  0.73570  0.97560  Biso   1.000  H
  N5       1.0000 0.74590  0.85750  0.90100  Biso   1.000  N
  C45      1.0000 0.73200  0.89590  0.04200  Biso   1.000  C
  H34      1.0000 0.70670  0.89340  0.16610  Biso   1.000  H
  N6       1.0000 0.75670  0.93960  0.99690  Biso   1.000  N
  C46      1.0000 0.78600  0.87820  0.73870  Biso   1.000  C
  O10      1.0000 0.72370  0.16720  0.37000  Biso   1.000  O
  C47      1.0000 0.81560  0.85650  0.54850  Biso   1.000  C
  H35      1.0000 0.81180  0.82280  0.50540  Biso   1.000  H
  O11      1.0000 0.67910  0.13060  0.66500  Biso   1.000  O
  C48      1.0000 0.85110  0.88580  0.42340  Biso   1.000  C
  C49      1.0000 0.88050  0.86350  0.23380  Biso   1.000  C
  H36      1.0000 0.87570  0.82970  0.19500  Biso   1.000  H
  C50      1.0000 0.91720  0.89060  0.09900  Biso   1.000  C
  H37      1.0000 0.93700  0.87570  0.97130  Biso   1.000  H
  C51      1.0000 0.92260  0.94120  0.16590  Biso   1.000  C
  H38      1.0000 0.94670  0.96040  0.08030  Biso   1.000  H
  C52      1.0000 0.89300  0.96350  0.35700  Biso   1.000  C
  H39      1.0000 0.89770  0.99730  0.39720  Biso   1.000  H
  C53      1.0000 0.85650  0.93630  0.48990  Biso   1.000  C
  C54      1.0000 0.82710  0.95890  0.68150  Biso   1.000  C
  H40      1.0000 0.83100  0.99260  0.72550  Biso   1.000  H
  C55      1.0000 0.79150  0.92870  0.80350  Biso   1.000  C
  C56      1.0000 0.74190  0.98740  0.10300  Biso   1.000  C
  C57      1.0000 0.71320  0.07700  0.32100  Biso   1.000  C
  C58      1.0000 0.72140  0.98900  0.35100  Biso   1.000  C
  H41      1.0000 0.71750  0.95910  0.44310  Biso   1.000  H
  C59      1.0000 0.70680  0.03330  0.46400  Biso   1.000  C
  H42      1.0000 0.69310  0.03400  0.63120  Biso   1.000  H
  C60      1.0000 0.73330  0.07750  0.07400  Biso   1.000  C
  H43      1.0000 0.73710  0.10730  0.98260  Biso   1.000  H
  C61      1.0000 0.74750  0.03210  0.96800  Biso   1.000  C
  H44      1.0000 0.76130  0.03150  0.80140  Biso   1.000  H
  C62      1.0000 0.70090  0.12810  0.43600  Biso   1.000  C
  O12      1.0000 0.65170  0.13010  0.46700  Biso   1.000  O
  C63      1.0000 0.69190  0.99560  0.16400  Biso   1.000  C
  H45      1.0000 0.66840  0.97050  0.12970  Biso   1.000  H
  C64      1.0000 0.67600  0.04090  0.27500  Biso   1.000  C
  H46      1.0000 0.64250  0.04670  0.31570  Biso   1.000  H
  C65      1.0000 0.76440  0.07230  0.26600  Biso   1.000  C
  H47      1.0000 0.78800  0.09730  0.29750  Biso   1.000  H
  C66      1.0000 0.77600  0.02560  0.15600  Biso   1.000  C
  H48      1.0000 0.80950  0.01960  0.11550  Biso   1.000  H
  Zn4      1.0000 0.22713  0.28587  0.41490  Biso   1.000  Zn
  O13      1.0000 0.27890  0.24670  0.58800  Biso   1.000  O
  H49      1.0000 0.29960  0.23570  0.47560  Biso   1.000  H
  N7       1.0000 0.24590  0.35750  0.40100  Biso   1.000  N
  C67      1.0000 0.23200  0.39590  0.54200  Biso   1.000  C
  H50      1.0000 0.20670  0.39340  0.66610  Biso   1.000  H
  N8       1.0000 0.25670  0.43960  0.49690  Biso   1.000  N
  C68      1.0000 0.28600  0.37820  0.23870  Biso   1.000  C
  O14      1.0000 0.22370  0.66720  0.87000  Biso   1.000  O
  C69      1.0000 0.31560  0.35650  0.04850  Biso   1.000  C
  H51      1.0000 0.31180  0.32280  0.00540  Biso   1.000  H
  O15      1.0000 0.17910  0.63060  0.16500  Biso   1.000  O
  C70      1.0000 0.35110  0.38580  0.92340  Biso   1.000  C
  C71      1.0000 0.38050  0.36350  0.73380  Biso   1.000  C
  H52      1.0000 0.37570  0.32970  0.69500  Biso   1.000  H
  C72      1.0000 0.41720  0.39060  0.59900  Biso   1.000  C
  H53      1.0000 0.43700  0.37570  0.47130  Biso   1.000  H
  C73      1.0000 0.42260  0.44120  0.66590  Biso   1.000  C
  H54      1.0000 0.44670  0.46040  0.58030  Biso   1.000  H
  C74      1.0000 0.39300  0.46350  0.85700  Biso   1.000  C
  H55      1.0000 0.39770  0.49730  0.89720  Biso   1.000  H
  C75      1.0000 0.35650  0.43630  0.98990  Biso   1.000  C
  C76      1.0000 0.32710  0.45890  0.18150  Biso   1.000  C
  H56      1.0000 0.33100  0.49260  0.22550  Biso   1.000  H
  C77      1.0000 0.29150  0.42870  0.30350  Biso   1.000  C
  C78      1.0000 0.24190  0.48740  0.60300  Biso   1.000  C
  C79      1.0000 0.21320  0.57700  0.82100  Biso   1.000  C
  C80      1.0000 0.22140  0.48900  0.85100  Biso   1.000  C
  H57      1.0000 0.21750  0.45910  0.94310  Biso   1.000  H
  C81      1.0000 0.20680  0.53330  0.96400  Biso   1.000  C
  H58      1.0000 0.19310  0.53400  0.13120  Biso   1.000  H
  C82      1.0000 0.23330  0.57750  0.57400  Biso   1.000  C
  H59      1.0000 0.23710  0.60730  0.48260  Biso   1.000  H
  C83      1.0000 0.24750  0.53210  0.46800  Biso   1.000  C
  H60      1.0000 0.26130  0.53150  0.30140  Biso   1.000  H
  C84      1.0000 0.20090  0.62810  0.93600  Biso   1.000  C
  O16      1.0000 0.15170  0.63010  0.96700  Biso   1.000  O
  C85      1.0000 0.19190  0.49560  0.66400  Biso   1.000  C
  H61      1.0000 0.16840  0.47050  0.62970  Biso   1.000  H
  C86      1.0000 0.17600  0.54090  0.77500  Biso   1.000  C
  H62      1.0000 0.14250  0.54670  0.81570  Biso   1.000  H
  C87      1.0000 0.26440  0.57230  0.76600  Biso   1.000  C
  H63      1.0000 0.28800  0.59730  0.79750  Biso   1.000  H
  C88      1.0000 0.27600  0.52560  0.65600  Biso   1.000  C
  H64      1.0000 0.30950  0.51960  0.61550  Biso   1.000  H
  Zn5      1.0000 0.21413  0.72713  0.08510  Biso   1.000  Zn
  O17      1.0000 0.25330  0.77890  0.91200  Biso   1.000  O
  H65      1.0000 0.26430  0.79960  0.02440  Biso   1.000  H
  N9       1.0000 0.14250  0.74590  0.09900  Biso   1.000  N
  C89      1.0000 0.10410  0.73200  0.95800  Biso   1.000  C
  H66      1.0000 0.10660  0.70670  0.83390  Biso   1.000  H
  N10      1.0000 0.06040  0.75670  0.00310  Biso   1.000  N
  C90      1.0000 0.12180  0.78600  0.26130  Biso   1.000  C
  O18      1.0000 0.83280  0.72370  0.63000  Biso   1.000  O
  C91      1.0000 0.14350  0.81560  0.45150  Biso   1.000  C
  H67      1.0000 0.17720  0.81180  0.49460  Biso   1.000  H
  O19      1.0000 0.86940  0.67910  0.33500  Biso   1.000  O
  C92      1.0000 0.11420  0.85110  0.57660  Biso   1.000  C
  C93      1.0000 0.13650  0.88050  0.76620  Biso   1.000  C
  H68      1.0000 0.17030  0.87570  0.80500  Biso   1.000  H
  C94      1.0000 0.10940  0.91720  0.90100  Biso   1.000  C
  H69      1.0000 0.12430  0.93700  0.02870  Biso   1.000  H
  C95      1.0000 0.05880  0.92260  0.83410  Biso   1.000  C
  H70      1.0000 0.03960  0.94670  0.91970  Biso   1.000  H
  C96      1.0000 0.03650  0.89300  0.64300  Biso   1.000  C
  H71      1.0000 0.00270  0.89770  0.60280  Biso   1.000  H
  C97      1.0000 0.06370  0.85650  0.51010  Biso   1.000  C
  C98      1.0000 0.04110  0.82710  0.31850  Biso   1.000  C
  H72      1.0000 0.00740  0.83100  0.27450  Biso   1.000  H
  C99      1.0000 0.07130  0.79150  0.19650  Biso   1.000  C
  C100     1.0000 0.01260  0.74190  0.89700  Biso   1.000  C
  C101     1.0000 0.92300  0.71320  0.67900  Biso   1.000  C
  C102     1.0000 0.01100  0.72140  0.64900  Biso   1.000  C
  H73      1.0000 0.04090  0.71750  0.55690  Biso   1.000  H
  C103     1.0000 0.96670  0.70680  0.53600  Biso   1.000  C
  H74      1.0000 0.96600  0.69310  0.36880  Biso   1.000  H
  C104     1.0000 0.92250  0.73330  0.92600  Biso   1.000  C
  H75      1.0000 0.89270  0.73710  0.01740  Biso   1.000  H
  C105     1.0000 0.96790  0.74750  0.03200  Biso   1.000  C
  H76      1.0000 0.96850  0.76130  0.19860  Biso   1.000  H
  C106     1.0000 0.87190  0.70090  0.56400  Biso   1.000  C
  O20      1.0000 0.86990  0.65170  0.53300  Biso   1.000  O
  C107     1.0000 0.00440  0.69190  0.83600  Biso   1.000  C
  H77      1.0000 0.02950  0.66840  0.87030  Biso   1.000  H
  C108     1.0000 0.95910  0.67600  0.72500  Biso   1.000  C
  H78      1.0000 0.95330  0.64250  0.68430  Biso   1.000  H
  C109     1.0000 0.92770  0.76440  0.73400  Biso   1.000  C
  H79      1.0000 0.90270  0.78800  0.70250  Biso   1.000  H
  C110     1.0000 0.97440  0.77600  0.84400  Biso   1.000  C
  H80      1.0000 0.98040  0.80950  0.88450  Biso   1.000  H
  Zn6      1.0000 0.71413  0.22713  0.58510  Biso   1.000  Zn
  O21      1.0000 0.75330  0.27890  0.41200  Biso   1.000  O
  H81      1.0000 0.76430  0.29960  0.52440  Biso   1.000  H
  N11      1.0000 0.64250  0.24590  0.59900  Biso   1.000  N
  C111     1.0000 0.60410  0.23200  0.45800  Biso   1.000  C
  H82      1.0000 0.60660  0.20670  0.33390  Biso   1.000  H
  N12      1.0000 0.56040  0.25670  0.50310  Biso   1.000  N
  C112     1.0000 0.62180  0.28600  0.76130  Biso   1.000  C
  O22      1.0000 0.33280  0.22370  0.13000  Biso   1.000  O
  C113     1.0000 0.64350  0.31560  0.95150  Biso   1.000  C
  H83      1.0000 0.67720  0.31180  0.99460  Biso   1.000  H
  O23      1.0000 0.36940  0.17910  0.83500  Biso   1.000  O
  C114     1.0000 0.61420  0.35110  0.07660  Biso   1.000  C
  C115     1.0000 0.63650  0.38050  0.26620  Biso   1.000  C
  H84      1.0000 0.67030  0.37570  0.30500  Biso   1.000  H
  C116     1.0000 0.60940  0.41720  0.40100  Biso   1.000  C
  H85      1.0000 0.62430  0.43700  0.52870  Biso   1.000  H
  C117     1.0000 0.55880  0.42260  0.33410  Biso   1.000  C
  H86      1.0000 0.53960  0.44670  0.41970  Biso   1.000  H
  C118     1.0000 0.53650  0.39300  0.14300  Biso   1.000  C
  H87      1.0000 0.50270  0.39770  0.10280  Biso   1.000  H
  C119     1.0000 0.56370  0.35650  0.01010  Biso   1.000  C
  C120     1.0000 0.54110  0.32710  0.81850  Biso   1.000  C
  H88      1.0000 0.50740  0.33100  0.77450  Biso   1.000  H
  C121     1.0000 0.57130  0.29150  0.69650  Biso   1.000  C
  C122     1.0000 0.51260  0.24190  0.39700  Biso   1.000  C
  C123     1.0000 0.42300  0.21320  0.17900  Biso   1.000  C
  C124     1.0000 0.51100  0.22140  0.14900  Biso   1.000  C
  H89      1.0000 0.54090  0.21750  0.05690  Biso   1.000  H
  C125     1.0000 0.46670  0.20680  0.03600  Biso   1.000  C
  H90      1.0000 0.46600  0.19310  0.86880  Biso   1.000  H
  C126     1.0000 0.42250  0.23330  0.42600  Biso   1.000  C
  H91      1.0000 0.39270  0.23710  0.51740  Biso   1.000  H
  C127     1.0000 0.46790  0.24750  0.53200  Biso   1.000  C
  H92      1.0000 0.46850  0.26130  0.69860  Biso   1.000  H
  C128     1.0000 0.37190  0.20090  0.06400  Biso   1.000  C
  O24      1.0000 0.36990  0.15170  0.03300  Biso   1.000  O
  C129     1.0000 0.50440  0.19190  0.33600  Biso   1.000  C
  H93      1.0000 0.52950  0.16840  0.37030  Biso   1.000  H
  C130     1.0000 0.45910  0.17600  0.22500  Biso   1.000  C
  H94      1.0000 0.45330  0.14250  0.18430  Biso   1.000  H
  C131     1.0000 0.42770  0.26440  0.23400  Biso   1.000  C
  H95      1.0000 0.40270  0.28800  0.20250  Biso   1.000  H
  C132     1.0000 0.47440  0.27600  0.34400  Biso   1.000  C
  H96      1.0000 0.48040  0.30950  0.38450  Biso   1.000  H
  Zn7      1.0000 0.78587  0.27287  0.08510  Biso   1.000  Zn
  O25      1.0000 0.74670  0.22110  0.91200  Biso   1.000  O
  H97      1.0000 0.73570  0.20040  0.02440  Biso   1.000  H
  N13      1.0000 0.85750  0.25410  0.09900  Biso   1.000  N
  C133     1.0000 0.89590  0.26800  0.95800  Biso   1.000  C
  H98      1.0000 0.89340  0.29330  0.83390  Biso   1.000  H
  N14      1.0000 0.93960  0.24330  0.00310  Biso   1.000  N
  C134     1.0000 0.87820  0.21400  0.26130  Biso   1.000  C
  O26      1.0000 0.16720  0.27630  0.63000  Biso   1.000  O
  C135     1.0000 0.85650  0.18440  0.45150  Biso   1.000  C
  H99      1.0000 0.82280  0.18820  0.49460  Biso   1.000  H
  O27      1.0000 0.13060  0.32090  0.33500  Biso   1.000  O
  C136     1.0000 0.88580  0.14890  0.57660  Biso   1.000  C
  C137     1.0000 0.86350  0.11950  0.76620  Biso   1.000  C
  H100     1.0000 0.82970  0.12430  0.80500  Biso   1.000  H
  C138     1.0000 0.89060  0.08280  0.90100  Biso   1.000  C
  H101     1.0000 0.87570  0.06300  0.02870  Biso   1.000  H
  C139     1.0000 0.94120  0.07740  0.83410  Biso   1.000  C
  H102     1.0000 0.96040  0.05330  0.91970  Biso   1.000  H
  C140     1.0000 0.96350  0.10700  0.64300  Biso   1.000  C
  H103     1.0000 0.99730  0.10230  0.60280  Biso   1.000  H
  C141     1.0000 0.93630  0.14350  0.51010  Biso   1.000  C
  C142     1.0000 0.95890  0.17290  0.31850  Biso   1.000  C
  H104     1.0000 0.99260  0.16900  0.27450  Biso   1.000  H
  C143     1.0000 0.92870  0.20850  0.19650  Biso   1.000  C
  C144     1.0000 0.98740  0.25810  0.89700  Biso   1.000  C
  C145     1.0000 0.07700  0.28680  0.67900  Biso   1.000  C
  C146     1.0000 0.98900  0.27860  0.64900  Biso   1.000  C
  H105     1.0000 0.95910  0.28250  0.55690  Biso   1.000  H
  C147     1.0000 0.03330  0.29320  0.53600  Biso   1.000  C
  H106     1.0000 0.03400  0.30690  0.36880  Biso   1.000  H
  C148     1.0000 0.07750  0.26670  0.92600  Biso   1.000  C
  H107     1.0000 0.10730  0.26290  0.01740  Biso   1.000  H
  C149     1.0000 0.03210  0.25250  0.03200  Biso   1.000  C
  H108     1.0000 0.03150  0.23870  0.19860  Biso   1.000  H
  C150     1.0000 0.12810  0.29910  0.56400  Biso   1.000  C
  O28      1.0000 0.13010  0.34830  0.53300  Biso   1.000  O
  C151     1.0000 0.99560  0.30810  0.83600  Biso   1.000  C
  H109     1.0000 0.97050  0.33160  0.87030  Biso   1.000  H
  C152     1.0000 0.04090  0.32400  0.72500  Biso   1.000  C
  H110     1.0000 0.04670  0.35750  0.68430  Biso   1.000  H
  C153     1.0000 0.07230  0.23560  0.73400  Biso   1.000  C
  H111     1.0000 0.09730  0.21200  0.70250  Biso   1.000  H
  C154     1.0000 0.02560  0.22400  0.84400  Biso   1.000  C
  H112     1.0000 0.01960  0.19050  0.88450  Biso   1.000  H
  Zn8      1.0000 0.28587  0.77287  0.58510  Biso   1.000  Zn
  O29      1.0000 0.24670  0.72110  0.41200  Biso   1.000  O
  H113     1.0000 0.23570  0.70040  0.52440  Biso   1.000  H
  N15      1.0000 0.35750  0.75410  0.59900  Biso   1.000  N
  C155     1.0000 0.39590  0.76800  0.45800  Biso   1.000  C
  H114     1.0000 0.39340  0.79330  0.33390  Biso   1.000  H
  N16      1.0000 0.43960  0.74330  0.50310  Biso   1.000  N
  C156     1.0000 0.37820  0.71400  0.76130  Biso   1.000  C
  O30      1.0000 0.66720  0.77630  0.13000  Biso   1.000  O
  C157     1.0000 0.35650  0.68440  0.95150  Biso   1.000  C
  H115     1.0000 0.32280  0.68820  0.99460  Biso   1.000  H
  O31      1.0000 0.63060  0.82090  0.83500  Biso   1.000  O
  C158     1.0000 0.38580  0.64890  0.07660  Biso   1.000  C
  C159     1.0000 0.36350  0.61950  0.26620  Biso   1.000  C
  H116     1.0000 0.32970  0.62430  0.30500  Biso   1.000  H
  C160     1.0000 0.39060  0.58280  0.40100  Biso   1.000  C
  H117     1.0000 0.37570  0.56300  0.52870  Biso   1.000  H
  C161     1.0000 0.44120  0.57740  0.33410  Biso   1.000  C
  H118     1.0000 0.46040  0.55330  0.41970  Biso   1.000  H
  C162     1.0000 0.46350  0.60700  0.14300  Biso   1.000  C
  H119     1.0000 0.49730  0.60230  0.10280  Biso   1.000  H
  C163     1.0000 0.43630  0.64350  0.01010  Biso   1.000  C
  C164     1.0000 0.45890  0.67290  0.81850  Biso   1.000  C
  H120     1.0000 0.49260  0.66900  0.77450  Biso   1.000  H
  C165     1.0000 0.42870  0.70850  0.69650  Biso   1.000  C
  C166     1.0000 0.48740  0.75810  0.39700  Biso   1.000  C
  C167     1.0000 0.57700  0.78680  0.17900  Biso   1.000  C
  C168     1.0000 0.48900  0.77860  0.14900  Biso   1.000  C
  H121     1.0000 0.45910  0.78250  0.05690  Biso   1.000  H
  C169     1.0000 0.53330  0.79320  0.03600  Biso   1.000  C
  H122     1.0000 0.53400  0.80690  0.86880  Biso   1.000  H
  C170     1.0000 0.57750  0.76670  0.42600  Biso   1.000  C
  H123     1.0000 0.60730  0.76290  0.51740  Biso   1.000  H
  C171     1.0000 0.53210  0.75250  0.53200  Biso   1.000  C
  H124     1.0000 0.53150  0.73870  0.69860  Biso   1.000  H
  C172     1.0000 0.62810  0.79910  0.06400  Biso   1.000  C
  O32      1.0000 0.63010  0.84830  0.03300  Biso   1.000  O
  C173     1.0000 0.49560  0.80810  0.33600  Biso   1.000  C
  H125     1.0000 0.47050  0.83160  0.37030  Biso   1.000  H
  C174     1.0000 0.54090  0.82400  0.22500  Biso   1.000  C
  H126     1.0000 0.54670  0.85750  0.18430  Biso   1.000  H
  C175     1.0000 0.57230  0.73560  0.23400  Biso   1.000  C
  H127     1.0000 0.59730  0.71200  0.20250  Biso   1.000  H
  C176     1.0000 0.52560  0.72400  0.34400  Biso   1.000  C
  H128     1.0000 0.51960  0.69050  0.38450  Biso   1.000  H
