data_image0
_cell_length_a       26.423
_cell_length_b       26.423
_cell_length_c       5.0845
_cell_angle_alpha    90
_cell_angle_beta     90
_cell_angle_gamma    90

_symmetry_space_group_name_H-M    "P 1"
_symmetry_int_tables_number       1

loop_
  _symmetry_equiv_pos_as_xyz
  'x, y, z'

loop_
  _atom_site_label
  _atom_site_occupancy
  _atom_site_fract_x
  _atom_site_fract_y
  _atom_site_fract_z
  _atom_site_thermal_displace_type
  _atom_site_B_iso_or_equiv
  _atom_site_type_symbol
  Zn1      1.0000 0.27328  0.21436  0.89840  Biso   1.000  Zn
  O1       1.0000 0.22020  0.25210  0.07070  Biso   1.000  O
  H1       1.0000 0.19930  0.26320  0.95770  Biso   1.000  H
  N1       1.0000 0.25320  0.14210  0.88100  Biso   1.000  N
  C1       1.0000 0.26980  0.10610  0.03400  Biso   1.000  C
  H2       1.0000 0.29570  0.10980  0.15630  Biso   1.000  H
  N2       1.0000 0.24400  0.06250  0.98960  Biso   1.000  N
  C2       1.0000 0.21480  0.12090  0.73330  Biso   1.000  C
  O2       1.0000 0.27640  0.83410  0.38800  Biso   1.000  O
  C3       1.0000 0.18480  0.14290  0.54240  Biso   1.000  C
  H3       1.0000 0.18910  0.17680  0.49730  Biso   1.000  H
  O3       1.0000 0.31630  0.87500  0.69600  Biso   1.000  O
  C4       1.0000 0.14830  0.11380  0.41970  Biso   1.000  C
  C5       1.0000 0.11800  0.13480  0.22700  Biso   1.000  C
  H4       1.0000 0.12270  0.16860  0.18170  Biso   1.000  H
  C6       1.0000 0.08070  0.10730  0.09800  Biso   1.000  C
  H5       1.0000 0.06070  0.12250  0.97030  Biso   1.000  H
  C7       1.0000 0.07370  0.05670  0.16400  Biso   1.000  C
  H6       1.0000 0.04900  0.03750  0.07930  Biso   1.000  H
  C8       1.0000 0.10400  0.03540  0.35600  Biso   1.000  C
  H7       1.0000 0.09940  0.00160  0.40100  Biso   1.000  H
  C9       1.0000 0.14120  0.06320  0.48470  Biso   1.000  C
  C10      1.0000 0.17080  0.04090  0.67670  Biso   1.000  C
  H8       1.0000 0.16680  0.00700  0.72030  Biso   1.000  H
  C11      1.0000 0.20650  0.07070  0.80200  Biso   1.000  C
  C12      1.0000 0.25760  0.01400  0.10600  Biso   1.000  C
  C13      1.0000 0.28370  0.92360  0.33300  Biso   1.000  C
  C14      1.0000 0.27910  0.01280  0.35400  Biso   1.000  C
  H9       1.0000 0.28460  0.04300  0.44340  Biso   1.000  H
  C15      1.0000 0.29250  0.96780  0.47200  Biso   1.000  C
  H10      1.0000 0.30690  0.96710  0.63880  Biso   1.000  H
  C16      1.0000 0.26230  0.92320  0.08600  Biso   1.000  C
  H11      1.0000 0.25650  0.89300  0.99670  Biso   1.000  H
  C17      1.0000 0.24960  0.96900  0.97500  Biso   1.000  C
  H12      1.0000 0.23530  0.96970  0.80800  Biso   1.000  H
  C18      1.0000 0.29760  0.87340  0.45700  Biso   1.000  C
  O4       1.0000 0.34270  0.86840  0.53400  Biso   1.000  O
  C19      1.0000 0.30710  0.00560  0.17600  Biso   1.000  C
  H13      1.0000 0.33120  0.03060  0.14600  Biso   1.000  H
  C20      1.0000 0.32170  0.95970  0.29100  Biso   1.000  C
  H14      1.0000 0.35520  0.95360  0.33870  Biso   1.000  H
  C21      1.0000 0.23250  0.92900  0.26500  Biso   1.000  C
  H15      1.0000 0.20820  0.90410  0.29250  Biso   1.000  H
  C22      1.0000 0.22200  0.97620  0.15300  Biso   1.000  C
  H16      1.0000 0.18870  0.98290  0.10560  Biso   1.000  H
  Zn2      1.0000 0.77328  0.71436  0.39840  Biso   1.000  Zn
  O5       1.0000 0.72020  0.75210  0.57070  Biso   1.000  O
  H17      1.0000 0.69930  0.76320  0.45770  Biso   1.000  H
  N3       1.0000 0.75320  0.64210  0.38100  Biso   1.000  N
  C23      1.0000 0.76980  0.60610  0.53400  Biso   1.000  C
  H18      1.0000 0.79570  0.60980  0.65630  Biso   1.000  H
  N4       1.0000 0.74400  0.56250  0.48960  Biso   1.000  N
  C24      1.0000 0.71480  0.62090  0.23330  Biso   1.000  C
  O6       1.0000 0.77640  0.33410  0.88800  Biso   1.000  O
  C25      1.0000 0.68480  0.64290  0.04240  Biso   1.000  C
  H19      1.0000 0.68910  0.67680  0.99730  Biso   1.000  H
  O7       1.0000 0.81630  0.37500  0.19600  Biso   1.000  O
  C26      1.0000 0.64830  0.61380  0.91970  Biso   1.000  C
  C27      1.0000 0.61800  0.63480  0.72700  Biso   1.000  C
  H20      1.0000 0.62270  0.66860  0.68170  Biso   1.000  H
  C28      1.0000 0.58070  0.60730  0.59800  Biso   1.000  C
  H21      1.0000 0.56070  0.62250  0.47030  Biso   1.000  H
  C29      1.0000 0.57370  0.55670  0.66400  Biso   1.000  C
  H22      1.0000 0.54900  0.53750  0.57930  Biso   1.000  H
  C30      1.0000 0.60400  0.53540  0.85600  Biso   1.000  C
  H23      1.0000 0.59940  0.50160  0.90100  Biso   1.000  H
  C31      1.0000 0.64120  0.56320  0.98470  Biso   1.000  C
  C32      1.0000 0.67080  0.54090  0.17670  Biso   1.000  C
  H24      1.0000 0.66680  0.50700  0.22030  Biso   1.000  H
  C33      1.0000 0.70650  0.57070  0.30200  Biso   1.000  C
  C34      1.0000 0.75760  0.51400  0.60600  Biso   1.000  C
  C35      1.0000 0.78370  0.42360  0.83300  Biso   1.000  C
  C36      1.0000 0.77910  0.51280  0.85400  Biso   1.000  C
  H25      1.0000 0.78460  0.54300  0.94340  Biso   1.000  H
  C37      1.0000 0.79250  0.46780  0.97200  Biso   1.000  C
  H26      1.0000 0.80690  0.46710  0.13880  Biso   1.000  H
  C38      1.0000 0.76230  0.42320  0.58600  Biso   1.000  C
  H27      1.0000 0.75650  0.39300  0.49670  Biso   1.000  H
  C39      1.0000 0.74960  0.46900  0.47500  Biso   1.000  C
  H28      1.0000 0.73530  0.46970  0.30800  Biso   1.000  H
  C40      1.0000 0.79760  0.37340  0.95700  Biso   1.000  C
  O8       1.0000 0.84270  0.36840  0.03400  Biso   1.000  O
  C41      1.0000 0.80710  0.50560  0.67600  Biso   1.000  C
  H29      1.0000 0.83120  0.53060  0.64600  Biso   1.000  H
  C42      1.0000 0.82170  0.45970  0.79100  Biso   1.000  C
  H30      1.0000 0.85520  0.45360  0.83870  Biso   1.000  H
  C43      1.0000 0.73250  0.42900  0.76500  Biso   1.000  C
  H31      1.0000 0.70820  0.40410  0.79250  Biso   1.000  H
  C44      1.0000 0.72200  0.47620  0.65300  Biso   1.000  C
  H32      1.0000 0.68870  0.48290  0.60560  Biso   1.000  H
  Zn3      1.0000 0.72672  0.78564  0.89840  Biso   1.000  Zn
  O9       1.0000 0.77980  0.74790  0.07070  Biso   1.000  O
  H33      1.0000 0.80070  0.73680  0.95770  Biso   1.000  H
  N5       1.0000 0.74680  0.85790  0.88100  Biso   1.000  N
  C45      1.0000 0.73020  0.89390  0.03400  Biso   1.000  C
  H34      1.0000 0.70430  0.89020  0.15630  Biso   1.000  H
  N6       1.0000 0.75600  0.93750  0.98960  Biso   1.000  N
  C46      1.0000 0.78520  0.87910  0.73330  Biso   1.000  C
  O10      1.0000 0.72360  0.16590  0.38800  Biso   1.000  O
  C47      1.0000 0.81520  0.85710  0.54240  Biso   1.000  C
  H35      1.0000 0.81090  0.82320  0.49730  Biso   1.000  H
  O11      1.0000 0.68370  0.12500  0.69600  Biso   1.000  O
  C48      1.0000 0.85170  0.88620  0.41970  Biso   1.000  C
  C49      1.0000 0.88200  0.86520  0.22700  Biso   1.000  C
  H36      1.0000 0.87730  0.83140  0.18170  Biso   1.000  H
  C50      1.0000 0.91930  0.89270  0.09800  Biso   1.000  C
  H37      1.0000 0.93930  0.87750  0.97030  Biso   1.000  H
  C51      1.0000 0.92630  0.94330  0.16400  Biso   1.000  C
  H38      1.0000 0.95100  0.96250  0.07930  Biso   1.000  H
  C52      1.0000 0.89600  0.96460  0.35600  Biso   1.000  C
  H39      1.0000 0.90060  0.99840  0.40100  Biso   1.000  H
  C53      1.0000 0.85880  0.93680  0.48470  Biso   1.000  C
  C54      1.0000 0.82920  0.95910  0.67670  Biso   1.000  C
  H40      1.0000 0.83320  0.99300  0.72030  Biso   1.000  H
  C55      1.0000 0.79350  0.92930  0.80200  Biso   1.000  C
  C56      1.0000 0.74240  0.98600  0.10600  Biso   1.000  C
  C57      1.0000 0.71630  0.07640  0.33300  Biso   1.000  C
  C58      1.0000 0.72090  0.98720  0.35400  Biso   1.000  C
  H41      1.0000 0.71540  0.95700  0.44340  Biso   1.000  H
  C59      1.0000 0.70750  0.03220  0.47200  Biso   1.000  C
  H42      1.0000 0.69310  0.03290  0.63880  Biso   1.000  H
  C60      1.0000 0.73770  0.07680  0.08600  Biso   1.000  C
  H43      1.0000 0.74350  0.10700  0.99670  Biso   1.000  H
  C61      1.0000 0.75040  0.03100  0.97500  Biso   1.000  C
  H44      1.0000 0.76470  0.03030  0.80800  Biso   1.000  H
  C62      1.0000 0.70240  0.12660  0.45700  Biso   1.000  C
  O12      1.0000 0.65730  0.13160  0.53400  Biso   1.000  O
  C63      1.0000 0.69290  0.99440  0.17600  Biso   1.000  C
  H45      1.0000 0.66880  0.96940  0.14600  Biso   1.000  H
  C64      1.0000 0.67830  0.04030  0.29100  Biso   1.000  C
  H46      1.0000 0.64480  0.04640  0.33870  Biso   1.000  H
  C65      1.0000 0.76750  0.07100  0.26500  Biso   1.000  C
  H47      1.0000 0.79180  0.09590  0.29250  Biso   1.000  H
  C66      1.0000 0.77800  0.02380  0.15300  Biso   1.000  C
  H48      1.0000 0.81130  0.01710  0.10560  Biso   1.000  H
  Zn4      1.0000 0.22672  0.28564  0.39840  Biso   1.000  Zn
  O13      1.0000 0.27980  0.24790  0.57070  Biso   1.000  O
  H49      1.0000 0.30070  0.23680  0.45770  Biso   1.000  H
  N7       1.0000 0.24680  0.35790  0.38100  Biso   1.000  N
  C67      1.0000 0.23020  0.39390  0.53400  Biso   1.000  C
  H50      1.0000 0.20430  0.39020  0.65630  Biso   1.000  H
  N8       1.0000 0.25600  0.43750  0.48960  Biso   1.000  N
  C68      1.0000 0.28520  0.37910  0.23330  Biso   1.000  C
  O14      1.0000 0.22360  0.66590  0.88800  Biso   1.000  O
  C69      1.0000 0.31520  0.35710  0.04240  Biso   1.000  C
  H51      1.0000 0.31090  0.32320  0.99730  Biso   1.000  H
  O15      1.0000 0.18370  0.62500  0.19600  Biso   1.000  O
  C70      1.0000 0.35170  0.38620  0.91970  Biso   1.000  C
  C71      1.0000 0.38200  0.36520  0.72700  Biso   1.000  C
  H52      1.0000 0.37730  0.33140  0.68170  Biso   1.000  H
  C72      1.0000 0.41930  0.39270  0.59800  Biso   1.000  C
  H53      1.0000 0.43930  0.37750  0.47030  Biso   1.000  H
  C73      1.0000 0.42630  0.44330  0.66400  Biso   1.000  C
  H54      1.0000 0.45100  0.46250  0.57930  Biso   1.000  H
  C74      1.0000 0.39600  0.46460  0.85600  Biso   1.000  C
  H55      1.0000 0.40060  0.49840  0.90100  Biso   1.000  H
  C75      1.0000 0.35880  0.43680  0.98470  Biso   1.000  C
  C76      1.0000 0.32920  0.45910  0.17670  Biso   1.000  C
  H56      1.0000 0.33320  0.49300  0.22030  Biso   1.000  H
  C77      1.0000 0.29350  0.42930  0.30200  Biso   1.000  C
  C78      1.0000 0.24240  0.48600  0.60600  Biso   1.000  C
  C79      1.0000 0.21630  0.57640  0.83300  Biso   1.000  C
  C80      1.0000 0.22090  0.48720  0.85400  Biso   1.000  C
  H57      1.0000 0.21540  0.45700  0.94340  Biso   1.000  H
  C81      1.0000 0.20750  0.53220  0.97200  Biso   1.000  C
  H58      1.0000 0.19310  0.53290  0.13880  Biso   1.000  H
  C82      1.0000 0.23770  0.57680  0.58600  Biso   1.000  C
  H59      1.0000 0.24350  0.60700  0.49670  Biso   1.000  H
  C83      1.0000 0.25040  0.53100  0.47500  Biso   1.000  C
  H60      1.0000 0.26470  0.53030  0.30800  Biso   1.000  H
  C84      1.0000 0.20240  0.62660  0.95700  Biso   1.000  C
  O16      1.0000 0.15730  0.63160  0.03400  Biso   1.000  O
  C85      1.0000 0.19290  0.49440  0.67600  Biso   1.000  C
  H61      1.0000 0.16880  0.46940  0.64600  Biso   1.000  H
  C86      1.0000 0.17830  0.54030  0.79100  Biso   1.000  C
  H62      1.0000 0.14480  0.54640  0.83870  Biso   1.000  H
  C87      1.0000 0.26750  0.57100  0.76500  Biso   1.000  C
  H63      1.0000 0.29180  0.59590  0.79250  Biso   1.000  H
  C88      1.0000 0.27800  0.52380  0.65300  Biso   1.000  C
  H64      1.0000 0.31130  0.51710  0.60560  Biso   1.000  H
  Zn5      1.0000 0.21436  0.72672  0.10160  Biso   1.000  Zn
  O17      1.0000 0.25210  0.77980  0.92930  Biso   1.000  O
  H65      1.0000 0.26320  0.80070  0.04230  Biso   1.000  H
  N9       1.0000 0.14210  0.74680  0.11900  Biso   1.000  N
  C89      1.0000 0.10610  0.73020  0.96600  Biso   1.000  C
  H66      1.0000 0.10980  0.70430  0.84370  Biso   1.000  H
  N10      1.0000 0.06250  0.75600  0.01040  Biso   1.000  N
  C90      1.0000 0.12090  0.78520  0.26670  Biso   1.000  C
  O18      1.0000 0.83410  0.72360  0.61200  Biso   1.000  O
  C91      1.0000 0.14290  0.81520  0.45760  Biso   1.000  C
  H67      1.0000 0.17680  0.81090  0.50270  Biso   1.000  H
  O19      1.0000 0.87500  0.68370  0.30400  Biso   1.000  O
  C92      1.0000 0.11380  0.85170  0.58030  Biso   1.000  C
  C93      1.0000 0.13480  0.88200  0.77300  Biso   1.000  C
  H68      1.0000 0.16860  0.87730  0.81830  Biso   1.000  H
  C94      1.0000 0.10730  0.91930  0.90200  Biso   1.000  C
  H69      1.0000 0.12250  0.93930  0.02970  Biso   1.000  H
  C95      1.0000 0.05670  0.92630  0.83600  Biso   1.000  C
  H70      1.0000 0.03750  0.95100  0.92070  Biso   1.000  H
  C96      1.0000 0.03540  0.89600  0.64400  Biso   1.000  C
  H71      1.0000 0.00160  0.90060  0.59900  Biso   1.000  H
  C97      1.0000 0.06320  0.85880  0.51530  Biso   1.000  C
  C98      1.0000 0.04090  0.82920  0.32330  Biso   1.000  C
  H72      1.0000 0.00700  0.83320  0.27970  Biso   1.000  H
  C99      1.0000 0.07070  0.79350  0.19800  Biso   1.000  C
  C100     1.0000 0.01400  0.74240  0.89400  Biso   1.000  C
  C101     1.0000 0.92360  0.71630  0.66700  Biso   1.000  C
  C102     1.0000 0.01280  0.72090  0.64600  Biso   1.000  C
  H73      1.0000 0.04300  0.71540  0.55660  Biso   1.000  H
  C103     1.0000 0.96780  0.70750  0.52800  Biso   1.000  C
  H74      1.0000 0.96710  0.69310  0.36120  Biso   1.000  H
  C104     1.0000 0.92320  0.73770  0.91400  Biso   1.000  C
  H75      1.0000 0.89300  0.74350  0.00330  Biso   1.000  H
  C105     1.0000 0.96900  0.75040  0.02500  Biso   1.000  C
  H76      1.0000 0.96970  0.76470  0.19200  Biso   1.000  H
  C106     1.0000 0.87340  0.70240  0.54300  Biso   1.000  C
  O20      1.0000 0.86840  0.65730  0.46600  Biso   1.000  O
  C107     1.0000 0.00560  0.69290  0.82400  Biso   1.000  C
  H77      1.0000 0.03060  0.66880  0.85400  Biso   1.000  H
  C108     1.0000 0.95970  0.67830  0.70900  Biso   1.000  C
  H78      1.0000 0.95360  0.64480  0.66130  Biso   1.000  H
  C109     1.0000 0.92900  0.76750  0.73500  Biso   1.000  C
  H79      1.0000 0.90410  0.79180  0.70750  Biso   1.000  H
  C110     1.0000 0.97620  0.77800  0.84700  Biso   1.000  C
  H80      1.0000 0.98290  0.81130  0.89440  Biso   1.000  H
  Zn6      1.0000 0.71436  0.22672  0.60160  Biso   1.000  Zn
  O21      1.0000 0.75210  0.27980  0.42930  Biso   1.000  O
  H81      1.0000 0.76320  0.30070  0.54230  Biso   1.000  H
  N11      1.0000 0.64210  0.24680  0.61900  Biso   1.000  N
  C111     1.0000 0.60610  0.23020  0.46600  Biso   1.000  C
  H82      1.0000 0.60980  0.20430  0.34370  Biso   1.000  H
  N12      1.0000 0.56250  0.25600  0.51040  Biso   1.000  N
  C112     1.0000 0.62090  0.28520  0.76670  Biso   1.000  C
  O22      1.0000 0.33410  0.22360  0.11200  Biso   1.000  O
  C113     1.0000 0.64290  0.31520  0.95760  Biso   1.000  C
  H83      1.0000 0.67680  0.31090  0.00270  Biso   1.000  H
  O23      1.0000 0.37500  0.18370  0.80400  Biso   1.000  O
  C114     1.0000 0.61380  0.35170  0.08030  Biso   1.000  C
  C115     1.0000 0.63480  0.38200  0.27300  Biso   1.000  C
  H84      1.0000 0.66860  0.37730  0.31830  Biso   1.000  H
  C116     1.0000 0.60730  0.41930  0.40200  Biso   1.000  C
  H85      1.0000 0.62250  0.43930  0.52970  Biso   1.000  H
  C117     1.0000 0.55670  0.42630  0.33600  Biso   1.000  C
  H86      1.0000 0.53750  0.45100  0.42070  Biso   1.000  H
  C118     1.0000 0.53540  0.39600  0.14400  Biso   1.000  C
  H87      1.0000 0.50160  0.40060  0.09900  Biso   1.000  H
  C119     1.0000 0.56320  0.35880  0.01530  Biso   1.000  C
  C120     1.0000 0.54090  0.32920  0.82330  Biso   1.000  C
  H88      1.0000 0.50700  0.33320  0.77970  Biso   1.000  H
  C121     1.0000 0.57070  0.29350  0.69800  Biso   1.000  C
  C122     1.0000 0.51400  0.24240  0.39400  Biso   1.000  C
  C123     1.0000 0.42360  0.21630  0.16700  Biso   1.000  C
  C124     1.0000 0.51280  0.22090  0.14600  Biso   1.000  C
  H89      1.0000 0.54300  0.21540  0.05660  Biso   1.000  H
  C125     1.0000 0.46780  0.20750  0.02800  Biso   1.000  C
  H90      1.0000 0.46710  0.19310  0.86120  Biso   1.000  H
  C126     1.0000 0.42320  0.23770  0.41400  Biso   1.000  C
  H91      1.0000 0.39300  0.24350  0.50330  Biso   1.000  H
  C127     1.0000 0.46900  0.25040  0.52500  Biso   1.000  C
  H92      1.0000 0.46970  0.26470  0.69200  Biso   1.000  H
  C128     1.0000 0.37340  0.20240  0.04300  Biso   1.000  C
  O24      1.0000 0.36840  0.15730  0.96600  Biso   1.000  O
  C129     1.0000 0.50560  0.19290  0.32400  Biso   1.000  C
  H93      1.0000 0.53060  0.16880  0.35400  Biso   1.000  H
  C130     1.0000 0.45970  0.17830  0.20900  Biso   1.000  C
  H94      1.0000 0.45360  0.14480  0.16130  Biso   1.000  H
  C131     1.0000 0.42900  0.26750  0.23500  Biso   1.000  C
  H95      1.0000 0.40410  0.29180  0.20750  Biso   1.000  H
  C132     1.0000 0.47620  0.27800  0.34700  Biso   1.000  C
  H96      1.0000 0.48290  0.31130  0.39440  Biso   1.000  H
  Zn7      1.0000 0.78564  0.27328  0.10160  Biso   1.000  Zn
  O25      1.0000 0.74790  0.22020  0.92930  Biso   1.000  O
  H97      1.0000 0.73680  0.19930  0.04230  Biso   1.000  H
  N13      1.0000 0.85790  0.25320  0.11900  Biso   1.000  N
  C133     1.0000 0.89390  0.26980  0.96600  Biso   1.000  C
  H98      1.0000 0.89020  0.29570  0.84370  Biso   1.000  H
  N14      1.0000 0.93750  0.24400  0.01040  Biso   1.000  N
  C134     1.0000 0.87910  0.21480  0.26670  Biso   1.000  C
  O26      1.0000 0.16590  0.27640  0.61200  Biso   1.000  O
  C135     1.0000 0.85710  0.18480  0.45760  Biso   1.000  C
  H99      1.0000 0.82320  0.18910  0.50270  Biso   1.000  H
  O27      1.0000 0.12500  0.31630  0.30400  Biso   1.000  O
  C136     1.0000 0.88620  0.14830  0.58030  Biso   1.000  C
  C137     1.0000 0.86520  0.11800  0.77300  Biso   1.000  C
  H100     1.0000 0.83140  0.12270  0.81830  Biso   1.000  H
  C138     1.0000 0.89270  0.08070  0.90200  Biso   1.000  C
  H101     1.0000 0.87750  0.06070  0.02970  Biso   1.000  H
  C139     1.0000 0.94330  0.07370  0.83600  Biso   1.000  C
  H102     1.0000 0.96250  0.04900  0.92070  Biso   1.000  H
  C140     1.0000 0.96460  0.10400  0.64400  Biso   1.000  C
  H103     1.0000 0.99840  0.09940  0.59900  Biso   1.000  H
  C141     1.0000 0.93680  0.14120  0.51530  Biso   1.000  C
  C142     1.0000 0.95910  0.17080  0.32330  Biso   1.000  C
  H104     1.0000 0.99300  0.16680  0.27970  Biso   1.000  H
  C143     1.0000 0.92930  0.20650  0.19800  Biso   1.000  C
  C144     1.0000 0.98600  0.25760  0.89400  Biso   1.000  C
  C145     1.0000 0.07640  0.28370  0.66700  Biso   1.000  C
  C146     1.0000 0.98720  0.27910  0.64600  Biso   1.000  C
  H105     1.0000 0.95700  0.28460  0.55660  Biso   1.000  H
  C147     1.0000 0.03220  0.29250  0.52800  Biso   1.000  C
  H106     1.0000 0.03290  0.30690  0.36120  Biso   1.000  H
  C148     1.0000 0.07680  0.26230  0.91400  Biso   1.000  C
  H107     1.0000 0.10700  0.25650  0.00330  Biso   1.000  H
  C149     1.0000 0.03100  0.24960  0.02500  Biso   1.000  C
  H108     1.0000 0.03030  0.23530  0.19200  Biso   1.000  H
  C150     1.0000 0.12660  0.29760  0.54300  Biso   1.000  C
  O28      1.0000 0.13160  0.34270  0.46600  Biso   1.000  O
  C151     1.0000 0.99440  0.30710  0.82400  Biso   1.000  C
  H109     1.0000 0.96940  0.33120  0.85400  Biso   1.000  H
  C152     1.0000 0.04030  0.32170  0.70900  Biso   1.000  C
  H110     1.0000 0.04640  0.35520  0.66130  Biso   1.000  H
  C153     1.0000 0.07100  0.23250  0.73500  Biso   1.000  C
  H111     1.0000 0.09590  0.20820  0.70750  Biso   1.000  H
  C154     1.0000 0.02380  0.22200  0.84700  Biso   1.000  C
  H112     1.0000 0.01710  0.18870  0.89440  Biso   1.000  H
  Zn8      1.0000 0.28564  0.77328  0.60160  Biso   1.000  Zn
  O29      1.0000 0.24790  0.72020  0.42930  Biso   1.000  O
  H113     1.0000 0.23680  0.69930  0.54230  Biso   1.000  H
  N15      1.0000 0.35790  0.75320  0.61900  Biso   1.000  N
  C155     1.0000 0.39390  0.76980  0.46600  Biso   1.000  C
  H114     1.0000 0.39020  0.79570  0.34370  Biso   1.000  H
  N16      1.0000 0.43750  0.74400  0.51040  Biso   1.000  N
  C156     1.0000 0.37910  0.71480  0.76670  Biso   1.000  C
  O30      1.0000 0.66590  0.77640  0.11200  Biso   1.000  O
  C157     1.0000 0.35710  0.68480  0.95760  Biso   1.000  C
  H115     1.0000 0.32320  0.68910  0.00270  Biso   1.000  H
  O31      1.0000 0.62500  0.81630  0.80400  Biso   1.000  O
  C158     1.0000 0.38620  0.64830  0.08030  Biso   1.000  C
  C159     1.0000 0.36520  0.61800  0.27300  Biso   1.000  C
  H116     1.0000 0.33140  0.62270  0.31830  Biso   1.000  H
  C160     1.0000 0.39270  0.58070  0.40200  Biso   1.000  C
  H117     1.0000 0.37750  0.56070  0.52970  Biso   1.000  H
  C161     1.0000 0.44330  0.57370  0.33600  Biso   1.000  C
  H118     1.0000 0.46250  0.54900  0.42070  Biso   1.000  H
  C162     1.0000 0.46460  0.60400  0.14400  Biso   1.000  C
  H119     1.0000 0.49840  0.59940  0.09900  Biso   1.000  H
  C163     1.0000 0.43680  0.64120  0.01530  Biso   1.000  C
  C164     1.0000 0.45910  0.67080  0.82330  Biso   1.000  C
  H120     1.0000 0.49300  0.66680  0.77970  Biso   1.000  H
  C165     1.0000 0.42930  0.70650  0.69800  Biso   1.000  C
  C166     1.0000 0.48600  0.75760  0.39400  Biso   1.000  C
  C167     1.0000 0.57640  0.78370  0.16700  Biso   1.000  C
  C168     1.0000 0.48720  0.77910  0.14600  Biso   1.000  C
  H121     1.0000 0.45700  0.78460  0.05660  Biso   1.000  H
  C169     1.0000 0.53220  0.79250  0.02800  Biso   1.000  C
  H122     1.0000 0.53290  0.80690  0.86120  Biso   1.000  H
  C170     1.0000 0.57680  0.76230  0.41400  Biso   1.000  C
  H123     1.0000 0.60700  0.75650  0.50330  Biso   1.000  H
  C171     1.0000 0.53100  0.74960  0.52500  Biso   1.000  C
  H124     1.0000 0.53030  0.73530  0.69200  Biso   1.000  H
  C172     1.0000 0.62660  0.79760  0.04300  Biso   1.000  C
  O32      1.0000 0.63160  0.84270  0.96600  Biso   1.000  O
  C173     1.0000 0.49440  0.80710  0.32400  Biso   1.000  C
  H125     1.0000 0.46940  0.83120  0.35400  Biso   1.000  H
  C174     1.0000 0.54030  0.82170  0.20900  Biso   1.000  C
  H126     1.0000 0.54640  0.85520  0.16130  Biso   1.000  H
  C175     1.0000 0.57100  0.73250  0.23500  Biso   1.000  C
  H127     1.0000 0.59590  0.70820  0.20750  Biso   1.000  H
  C176     1.0000 0.52380  0.72200  0.34700  Biso   1.000  C
  H128     1.0000 0.51710  0.68870  0.39440  Biso   1.000  H
