data_image0
_cell_length_a       26.5634
_cell_length_b       26.5634
_cell_length_c       5.1954
_cell_angle_alpha    90
_cell_angle_beta     90
_cell_angle_gamma    90

_symmetry_space_group_name_H-M    "P 1"
_symmetry_int_tables_number       1

loop_
  _symmetry_equiv_pos_as_xyz
  'x, y, z'

loop_
  _atom_site_label
  _atom_site_occupancy
  _atom_site_fract_x
  _atom_site_fract_y
  _atom_site_fract_z
  _atom_site_thermal_displace_type
  _atom_site_B_iso_or_equiv
  _atom_site_type_symbol
  Zn1      1.0000 0.27245  0.21432  0.92230  Biso   1.000  Zn
  O1       1.0000 0.22280  0.25380  0.09450  Biso   1.000  O
  H1       1.0000 0.20200  0.26480  0.98230  Biso   1.000  H
  N1       1.0000 0.25420  0.14310  0.90700  Biso   1.000  N
  C1       1.0000 0.26810  0.10420  0.04260  Biso   1.000  C
  H2       1.0000 0.29340  0.10650  0.16570  Biso   1.000  H
  N2       1.0000 0.24370  0.06020  0.99560  Biso   1.000  N
  C2       1.0000 0.21390  0.12050  0.74570  Biso   1.000  C
  O2       1.0000 0.27850  0.83260  0.36500  Biso   1.000  O
  C3       1.0000 0.18450  0.14370  0.56110  Biso   1.000  C
  H3       1.0000 0.18860  0.17770  0.52390  Biso   1.000  H
  O3       1.0000 0.32030  0.87370  0.66500  Biso   1.000  O
  C4       1.0000 0.14870  0.11510  0.43240  Biso   1.000  C
  C5       1.0000 0.11850  0.13610  0.24450  Biso   1.000  C
  H4       1.0000 0.12240  0.17000  0.20420  Biso   1.000  H
  C6       1.0000 0.08230  0.10810  0.11380  Biso   1.000  C
  H5       1.0000 0.06230  0.12290  0.98830  Biso   1.000  H
  C7       1.0000 0.07690  0.05740  0.17460  Biso   1.000  C
  H6       1.0000 0.05300  0.03790  0.08990  Biso   1.000  H
  C8       1.0000 0.10730  0.03610  0.36220  Biso   1.000  C
  H7       1.0000 0.10350  0.00220  0.40160  Biso   1.000  H
  C9       1.0000 0.14330  0.06420  0.49320  Biso   1.000  C
  C10      1.0000 0.17240  0.04040  0.68040  Biso   1.000  C
  H8       1.0000 0.16820  0.00650  0.71900  Biso   1.000  H
  C11      1.0000 0.20790  0.06980  0.80700  Biso   1.000  C
  C12      1.0000 0.25800  0.01230  0.10300  Biso   1.000  C
  C13      1.0000 0.28570  0.92230  0.31700  Biso   1.000  C
  C14      1.0000 0.30760  0.00430  0.16400  Biso   1.000  C
  H9       1.0000 0.33120  0.02940  0.13220  Biso   1.000  H
  C15      1.0000 0.32300  0.95860  0.27300  Biso   1.000  C
  H10      1.0000 0.35660  0.95270  0.31470  Biso   1.000  H
  C16      1.0000 0.23430  0.92760  0.25800  Biso   1.000  C
  H11      1.0000 0.21050  0.90260  0.28720  Biso   1.000  H
  C17      1.0000 0.22310  0.97460  0.15100  Biso   1.000  C
  H12      1.0000 0.18970  0.98100  0.10890  Biso   1.000  H
  C18      1.0000 0.29870  0.87270  0.44300  Biso   1.000  C
  O4       1.0000 0.34800  0.86800  0.50200  Biso   1.000  O
  C19      1.0000 0.27690  0.01040  0.35000  Biso   1.000  C
  H13      1.0000 0.28020  0.04010  0.44350  Biso   1.000  H
  C20      1.0000 0.29110  0.96560  0.46200  Biso   1.000  C
  H14      1.0000 0.30380  0.96450  0.62880  Biso   1.000  H
  C21      1.0000 0.26690  0.92230  0.07000  Biso   1.000  C
  H15      1.0000 0.26350  0.89260  0.97730  Biso   1.000  H
  C22      1.0000 0.25340  0.96790  0.96500  Biso   1.000  C
  H16      1.0000 0.24090  0.96890  0.79830  Biso   1.000  H
  Zn2      1.0000 0.77245  0.71432  0.42230  Biso   1.000  Zn
  O5       1.0000 0.72280  0.75380  0.59450  Biso   1.000  O
  H17      1.0000 0.70200  0.76480  0.48230  Biso   1.000  H
  N3       1.0000 0.75420  0.64310  0.40700  Biso   1.000  N
  C23      1.0000 0.76810  0.60420  0.54260  Biso   1.000  C
  H18      1.0000 0.79340  0.60650  0.66570  Biso   1.000  H
  N4       1.0000 0.74370  0.56020  0.49560  Biso   1.000  N
  C24      1.0000 0.71390  0.62050  0.24570  Biso   1.000  C
  O6       1.0000 0.77850  0.33260  0.86500  Biso   1.000  O
  C25      1.0000 0.68450  0.64370  0.06110  Biso   1.000  C
  H19      1.0000 0.68860  0.67770  0.02390  Biso   1.000  H
  O7       1.0000 0.82030  0.37370  0.16500  Biso   1.000  O
  C26      1.0000 0.64870  0.61510  0.93240  Biso   1.000  C
  C27      1.0000 0.61850  0.63610  0.74450  Biso   1.000  C
  H20      1.0000 0.62240  0.67000  0.70420  Biso   1.000  H
  C28      1.0000 0.58230  0.60810  0.61380  Biso   1.000  C
  H21      1.0000 0.56230  0.62290  0.48830  Biso   1.000  H
  C29      1.0000 0.57690  0.55740  0.67460  Biso   1.000  C
  H22      1.0000 0.55300  0.53790  0.58990  Biso   1.000  H
  C30      1.0000 0.60730  0.53610  0.86220  Biso   1.000  C
  H23      1.0000 0.60350  0.50220  0.90160  Biso   1.000  H
  C31      1.0000 0.64330  0.56420  0.99320  Biso   1.000  C
  C32      1.0000 0.67240  0.54040  0.18040  Biso   1.000  C
  H24      1.0000 0.66820  0.50650  0.21900  Biso   1.000  H
  C33      1.0000 0.70790  0.56980  0.30700  Biso   1.000  C
  C34      1.0000 0.75800  0.51230  0.60300  Biso   1.000  C
  C35      1.0000 0.78570  0.42230  0.81700  Biso   1.000  C
  C36      1.0000 0.80760  0.50430  0.66400  Biso   1.000  C
  H25      1.0000 0.83120  0.52940  0.63220  Biso   1.000  H
  C37      1.0000 0.82300  0.45860  0.77300  Biso   1.000  C
  H26      1.0000 0.85660  0.45270  0.81470  Biso   1.000  H
  C38      1.0000 0.73430  0.42760  0.75800  Biso   1.000  C
  H27      1.0000 0.71050  0.40260  0.78720  Biso   1.000  H
  C39      1.0000 0.72310  0.47460  0.65100  Biso   1.000  C
  H28      1.0000 0.68970  0.48100  0.60890  Biso   1.000  H
  C40      1.0000 0.79870  0.37270  0.94300  Biso   1.000  C
  O8       1.0000 0.84800  0.36800  0.00200  Biso   1.000  O
  C41      1.0000 0.77690  0.51040  0.85000  Biso   1.000  C
  H29      1.0000 0.78020  0.54010  0.94350  Biso   1.000  H
  C42      1.0000 0.79110  0.46560  0.96200  Biso   1.000  C
  H30      1.0000 0.80380  0.46450  0.12880  Biso   1.000  H
  C43      1.0000 0.76690  0.42230  0.57000  Biso   1.000  C
  H31      1.0000 0.76350  0.39260  0.47730  Biso   1.000  H
  C44      1.0000 0.75340  0.46790  0.46500  Biso   1.000  C
  H32      1.0000 0.74090  0.46890  0.29830  Biso   1.000  H
  Zn3      1.0000 0.72755  0.78568  0.92230  Biso   1.000  Zn
  O9       1.0000 0.77720  0.74620  0.09450  Biso   1.000  O
  H33      1.0000 0.79800  0.73520  0.98230  Biso   1.000  H
  N5       1.0000 0.74580  0.85690  0.90700  Biso   1.000  N
  C45      1.0000 0.73190  0.89580  0.04260  Biso   1.000  C
  H34      1.0000 0.70660  0.89350  0.16570  Biso   1.000  H
  N6       1.0000 0.75630  0.93980  0.99560  Biso   1.000  N
  C46      1.0000 0.78610  0.87950  0.74570  Biso   1.000  C
  O10      1.0000 0.72150  0.16740  0.36500  Biso   1.000  O
  C47      1.0000 0.81550  0.85630  0.56110  Biso   1.000  C
  H35      1.0000 0.81140  0.82230  0.52390  Biso   1.000  H
  O11      1.0000 0.67970  0.12630  0.66500  Biso   1.000  O
  C48      1.0000 0.85130  0.88490  0.43240  Biso   1.000  C
  C49      1.0000 0.88150  0.86390  0.24450  Biso   1.000  C
  H36      1.0000 0.87760  0.83000  0.20420  Biso   1.000  H
  C50      1.0000 0.91770  0.89190  0.11380  Biso   1.000  C
  H37      1.0000 0.93770  0.87710  0.98830  Biso   1.000  H
  C51      1.0000 0.92310  0.94260  0.17460  Biso   1.000  C
  H38      1.0000 0.94700  0.96210  0.08990  Biso   1.000  H
  C52      1.0000 0.89270  0.96390  0.36220  Biso   1.000  C
  H39      1.0000 0.89650  0.99780  0.40160  Biso   1.000  H
  C53      1.0000 0.85670  0.93580  0.49320  Biso   1.000  C
  C54      1.0000 0.82760  0.95960  0.68040  Biso   1.000  C
  H40      1.0000 0.83180  0.99350  0.71900  Biso   1.000  H
  C55      1.0000 0.79210  0.93020  0.80700  Biso   1.000  C
  C56      1.0000 0.74200  0.98770  0.10300  Biso   1.000  C
  C57      1.0000 0.71430  0.07770  0.31700  Biso   1.000  C
  C58      1.0000 0.69240  0.99570  0.16400  Biso   1.000  C
  H41      1.0000 0.66880  0.97060  0.13220  Biso   1.000  H
  C59      1.0000 0.67700  0.04140  0.27300  Biso   1.000  C
  H42      1.0000 0.64340  0.04730  0.31470  Biso   1.000  H
  C60      1.0000 0.76570  0.07240  0.25800  Biso   1.000  C
  H43      1.0000 0.78950  0.09740  0.28720  Biso   1.000  H
  C61      1.0000 0.77690  0.02540  0.15100  Biso   1.000  C
  H44      1.0000 0.81030  0.01900  0.10890  Biso   1.000  H
  C62      1.0000 0.70130  0.12730  0.44300  Biso   1.000  C
  O12      1.0000 0.65200  0.13200  0.50200  Biso   1.000  O
  C63      1.0000 0.72310  0.98960  0.35000  Biso   1.000  C
  H45      1.0000 0.71980  0.95990  0.44350  Biso   1.000  H
  C64      1.0000 0.70890  0.03440  0.46200  Biso   1.000  C
  H46      1.0000 0.69620  0.03550  0.62880  Biso   1.000  H
  C65      1.0000 0.73310  0.07770  0.07000  Biso   1.000  C
  H47      1.0000 0.73650  0.10740  0.97730  Biso   1.000  H
  C66      1.0000 0.74660  0.03210  0.96500  Biso   1.000  C
  H48      1.0000 0.75910  0.03110  0.79830  Biso   1.000  H
  Zn4      1.0000 0.22755  0.28568  0.42230  Biso   1.000  Zn
  O13      1.0000 0.27720  0.24620  0.59450  Biso   1.000  O
  H49      1.0000 0.29800  0.23520  0.48230  Biso   1.000  H
  N7       1.0000 0.24580  0.35690  0.40700  Biso   1.000  N
  C67      1.0000 0.23190  0.39580  0.54260  Biso   1.000  C
  H50      1.0000 0.20660  0.39350  0.66570  Biso   1.000  H
  N8       1.0000 0.25630  0.43980  0.49560  Biso   1.000  N
  C68      1.0000 0.28610  0.37950  0.24570  Biso   1.000  C
  O14      1.0000 0.22150  0.66740  0.86500  Biso   1.000  O
  C69      1.0000 0.31550  0.35630  0.06110  Biso   1.000  C
  H51      1.0000 0.31140  0.32230  0.02390  Biso   1.000  H
  O15      1.0000 0.17970  0.62630  0.16500  Biso   1.000  O
  C70      1.0000 0.35130  0.38490  0.93240  Biso   1.000  C
  C71      1.0000 0.38150  0.36390  0.74450  Biso   1.000  C
  H52      1.0000 0.37760  0.33000  0.70420  Biso   1.000  H
  C72      1.0000 0.41770  0.39190  0.61380  Biso   1.000  C
  H53      1.0000 0.43770  0.37710  0.48830  Biso   1.000  H
  C73      1.0000 0.42310  0.44260  0.67460  Biso   1.000  C
  H54      1.0000 0.44700  0.46210  0.58990  Biso   1.000  H
  C74      1.0000 0.39270  0.46390  0.86220  Biso   1.000  C
  H55      1.0000 0.39650  0.49780  0.90160  Biso   1.000  H
  C75      1.0000 0.35670  0.43580  0.99320  Biso   1.000  C
  C76      1.0000 0.32760  0.45960  0.18040  Biso   1.000  C
  H56      1.0000 0.33180  0.49350  0.21900  Biso   1.000  H
  C77      1.0000 0.29210  0.43020  0.30700  Biso   1.000  C
  C78      1.0000 0.24200  0.48770  0.60300  Biso   1.000  C
  C79      1.0000 0.21430  0.57770  0.81700  Biso   1.000  C
  C80      1.0000 0.19240  0.49570  0.66400  Biso   1.000  C
  H57      1.0000 0.16880  0.47060  0.63220  Biso   1.000  H
  C81      1.0000 0.17700  0.54140  0.77300  Biso   1.000  C
  H58      1.0000 0.14340  0.54730  0.81470  Biso   1.000  H
  C82      1.0000 0.26570  0.57240  0.75800  Biso   1.000  C
  H59      1.0000 0.28950  0.59740  0.78720  Biso   1.000  H
  C83      1.0000 0.27690  0.52540  0.65100  Biso   1.000  C
  H60      1.0000 0.31030  0.51900  0.60890  Biso   1.000  H
  C84      1.0000 0.20130  0.62730  0.94300  Biso   1.000  C
  O16      1.0000 0.15200  0.63200  0.00200  Biso   1.000  O
  C85      1.0000 0.22310  0.48960  0.85000  Biso   1.000  C
  H61      1.0000 0.21980  0.45990  0.94350  Biso   1.000  H
  C86      1.0000 0.20890  0.53440  0.96200  Biso   1.000  C
  H62      1.0000 0.19620  0.53550  0.12880  Biso   1.000  H
  C87      1.0000 0.23310  0.57770  0.57000  Biso   1.000  C
  H63      1.0000 0.23650  0.60740  0.47730  Biso   1.000  H
  C88      1.0000 0.24660  0.53210  0.46500  Biso   1.000  C
  H64      1.0000 0.25910  0.53110  0.29830  Biso   1.000  H
  Zn5      1.0000 0.21432  0.72755  0.07770  Biso   1.000  Zn
  O17      1.0000 0.25380  0.77720  0.90550  Biso   1.000  O
  H65      1.0000 0.26480  0.79800  0.01770  Biso   1.000  H
  N9       1.0000 0.14310  0.74580  0.09300  Biso   1.000  N
  C89      1.0000 0.10420  0.73190  0.95740  Biso   1.000  C
  H66      1.0000 0.10650  0.70660  0.83430  Biso   1.000  H
  N10      1.0000 0.06020  0.75630  0.00440  Biso   1.000  N
  C90      1.0000 0.12050  0.78610  0.25430  Biso   1.000  C
  O18      1.0000 0.83260  0.72150  0.63500  Biso   1.000  O
  C91      1.0000 0.14370  0.81550  0.43890  Biso   1.000  C
  H67      1.0000 0.17770  0.81140  0.47610  Biso   1.000  H
  O19      1.0000 0.87370  0.67970  0.33500  Biso   1.000  O
  C92      1.0000 0.11510  0.85130  0.56760  Biso   1.000  C
  C93      1.0000 0.13610  0.88150  0.75550  Biso   1.000  C
  H68      1.0000 0.17000  0.87760  0.79580  Biso   1.000  H
  C94      1.0000 0.10810  0.91770  0.88620  Biso   1.000  C
  H69      1.0000 0.12290  0.93770  0.01170  Biso   1.000  H
  C95      1.0000 0.05740  0.92310  0.82540  Biso   1.000  C
  H70      1.0000 0.03790  0.94700  0.91010  Biso   1.000  H
  C96      1.0000 0.03610  0.89270  0.63780  Biso   1.000  C
  H71      1.0000 0.00220  0.89650  0.59840  Biso   1.000  H
  C97      1.0000 0.06420  0.85670  0.50680  Biso   1.000  C
  C98      1.0000 0.04040  0.82760  0.31960  Biso   1.000  C
  H72      1.0000 0.00650  0.83180  0.28100  Biso   1.000  H
  C99      1.0000 0.06980  0.79210  0.19300  Biso   1.000  C
  C100     1.0000 0.01230  0.74200  0.89700  Biso   1.000  C
  C101     1.0000 0.92230  0.71430  0.68300  Biso   1.000  C
  C102     1.0000 0.00430  0.69240  0.83600  Biso   1.000  C
  H73      1.0000 0.02940  0.66880  0.86780  Biso   1.000  H
  C103     1.0000 0.95860  0.67700  0.72700  Biso   1.000  C
  H74      1.0000 0.95270  0.64340  0.68530  Biso   1.000  H
  C104     1.0000 0.92760  0.76570  0.74200  Biso   1.000  C
  H75      1.0000 0.90260  0.78950  0.71280  Biso   1.000  H
  C105     1.0000 0.97460  0.77690  0.84900  Biso   1.000  C
  H76      1.0000 0.98100  0.81030  0.89110  Biso   1.000  H
  C106     1.0000 0.87270  0.70130  0.55700  Biso   1.000  C
  O20      1.0000 0.86800  0.65200  0.49800  Biso   1.000  O
  C107     1.0000 0.01040  0.72310  0.65000  Biso   1.000  C
  H77      1.0000 0.04010  0.71980  0.55650  Biso   1.000  H
  C108     1.0000 0.96560  0.70890  0.53800  Biso   1.000  C
  H78      1.0000 0.96450  0.69620  0.37120  Biso   1.000  H
  C109     1.0000 0.92230  0.73310  0.93000  Biso   1.000  C
  H79      1.0000 0.89260  0.73650  0.02270  Biso   1.000  H
  C110     1.0000 0.96790  0.74660  0.03500  Biso   1.000  C
  H80      1.0000 0.96890  0.75910  0.20170  Biso   1.000  H
  Zn6      1.0000 0.71432  0.22755  0.57770  Biso   1.000  Zn
  O21      1.0000 0.75380  0.27720  0.40550  Biso   1.000  O
  H81      1.0000 0.76480  0.29800  0.51770  Biso   1.000  H
  N11      1.0000 0.64310  0.24580  0.59300  Biso   1.000  N
  C111     1.0000 0.60420  0.23190  0.45740  Biso   1.000  C
  H82      1.0000 0.60650  0.20660  0.33430  Biso   1.000  H
  N12      1.0000 0.56020  0.25630  0.50440  Biso   1.000  N
  C112     1.0000 0.62050  0.28610  0.75430  Biso   1.000  C
  O22      1.0000 0.33260  0.22150  0.13500  Biso   1.000  O
  C113     1.0000 0.64370  0.31550  0.93890  Biso   1.000  C
  H83      1.0000 0.67770  0.31140  0.97610  Biso   1.000  H
  O23      1.0000 0.37370  0.17970  0.83500  Biso   1.000  O
  C114     1.0000 0.61510  0.35130  0.06760  Biso   1.000  C
  C115     1.0000 0.63610  0.38150  0.25550  Biso   1.000  C
  H84      1.0000 0.67000  0.37760  0.29580  Biso   1.000  H
  C116     1.0000 0.60810  0.41770  0.38620  Biso   1.000  C
  H85      1.0000 0.62290  0.43770  0.51170  Biso   1.000  H
  C117     1.0000 0.55740  0.42310  0.32540  Biso   1.000  C
  H86      1.0000 0.53790  0.44700  0.41010  Biso   1.000  H
  C118     1.0000 0.53610  0.39270  0.13780  Biso   1.000  C
  H87      1.0000 0.50220  0.39650  0.09840  Biso   1.000  H
  C119     1.0000 0.56420  0.35670  0.00680  Biso   1.000  C
  C120     1.0000 0.54040  0.32760  0.81960  Biso   1.000  C
  H88      1.0000 0.50650  0.33180  0.78100  Biso   1.000  H
  C121     1.0000 0.56980  0.29210  0.69300  Biso   1.000  C
  C122     1.0000 0.51230  0.24200  0.39700  Biso   1.000  C
  C123     1.0000 0.42230  0.21430  0.18300  Biso   1.000  C
  C124     1.0000 0.50430  0.19240  0.33600  Biso   1.000  C
  H89      1.0000 0.52940  0.16880  0.36780  Biso   1.000  H
  C125     1.0000 0.45860  0.17700  0.22700  Biso   1.000  C
  H90      1.0000 0.45270  0.14340  0.18530  Biso   1.000  H
  C126     1.0000 0.42760  0.26570  0.24200  Biso   1.000  C
  H91      1.0000 0.40260  0.28950  0.21280  Biso   1.000  H
  C127     1.0000 0.47460  0.27690  0.34900  Biso   1.000  C
  H92      1.0000 0.48100  0.31030  0.39110  Biso   1.000  H
  C128     1.0000 0.37270  0.20130  0.05700  Biso   1.000  C
  O24      1.0000 0.36800  0.15200  0.99800  Biso   1.000  O
  C129     1.0000 0.51040  0.22310  0.15000  Biso   1.000  C
  H93      1.0000 0.54010  0.21980  0.05650  Biso   1.000  H
  C130     1.0000 0.46560  0.20890  0.03800  Biso   1.000  C
  H94      1.0000 0.46450  0.19620  0.87120  Biso   1.000  H
  C131     1.0000 0.42230  0.23310  0.43000  Biso   1.000  C
  H95      1.0000 0.39260  0.23650  0.52270  Biso   1.000  H
  C132     1.0000 0.46790  0.24660  0.53500  Biso   1.000  C
  H96      1.0000 0.46890  0.25910  0.70170  Biso   1.000  H
  Zn7      1.0000 0.78568  0.27245  0.07770  Biso   1.000  Zn
  O25      1.0000 0.74620  0.22280  0.90550  Biso   1.000  O
  H97      1.0000 0.73520  0.20200  0.01770  Biso   1.000  H
  N13      1.0000 0.85690  0.25420  0.09300  Biso   1.000  N
  C133     1.0000 0.89580  0.26810  0.95740  Biso   1.000  C
  H98      1.0000 0.89350  0.29340  0.83430  Biso   1.000  H
  N14      1.0000 0.93980  0.24370  0.00440  Biso   1.000  N
  C134     1.0000 0.87950  0.21390  0.25430  Biso   1.000  C
  O26      1.0000 0.16740  0.27850  0.63500  Biso   1.000  O
  C135     1.0000 0.85630  0.18450  0.43890  Biso   1.000  C
  H99      1.0000 0.82230  0.18860  0.47610  Biso   1.000  H
  O27      1.0000 0.12630  0.32030  0.33500  Biso   1.000  O
  C136     1.0000 0.88490  0.14870  0.56760  Biso   1.000  C
  C137     1.0000 0.86390  0.11850  0.75550  Biso   1.000  C
  H100     1.0000 0.83000  0.12240  0.79580  Biso   1.000  H
  C138     1.0000 0.89190  0.08230  0.88620  Biso   1.000  C
  H101     1.0000 0.87710  0.06230  0.01170  Biso   1.000  H
  C139     1.0000 0.94260  0.07690  0.82540  Biso   1.000  C
  H102     1.0000 0.96210  0.05300  0.91010  Biso   1.000  H
  C140     1.0000 0.96390  0.10730  0.63780  Biso   1.000  C
  H103     1.0000 0.99780  0.10350  0.59840  Biso   1.000  H
  C141     1.0000 0.93580  0.14330  0.50680  Biso   1.000  C
  C142     1.0000 0.95960  0.17240  0.31960  Biso   1.000  C
  H104     1.0000 0.99350  0.16820  0.28100  Biso   1.000  H
  C143     1.0000 0.93020  0.20790  0.19300  Biso   1.000  C
  C144     1.0000 0.98770  0.25800  0.89700  Biso   1.000  C
  C145     1.0000 0.07770  0.28570  0.68300  Biso   1.000  C
  C146     1.0000 0.99570  0.30760  0.83600  Biso   1.000  C
  H105     1.0000 0.97060  0.33120  0.86780  Biso   1.000  H
  C147     1.0000 0.04140  0.32300  0.72700  Biso   1.000  C
  H106     1.0000 0.04730  0.35660  0.68530  Biso   1.000  H
  C148     1.0000 0.07240  0.23430  0.74200  Biso   1.000  C
  H107     1.0000 0.09740  0.21050  0.71280  Biso   1.000  H
  C149     1.0000 0.02540  0.22310  0.84900  Biso   1.000  C
  H108     1.0000 0.01900  0.18970  0.89110  Biso   1.000  H
  C150     1.0000 0.12730  0.29870  0.55700  Biso   1.000  C
  O28      1.0000 0.13200  0.34800  0.49800  Biso   1.000  O
  C151     1.0000 0.98960  0.27690  0.65000  Biso   1.000  C
  H109     1.0000 0.95990  0.28020  0.55650  Biso   1.000  H
  C152     1.0000 0.03440  0.29110  0.53800  Biso   1.000  C
  H110     1.0000 0.03550  0.30380  0.37120  Biso   1.000  H
  C153     1.0000 0.07770  0.26690  0.93000  Biso   1.000  C
  H111     1.0000 0.10740  0.26350  0.02270  Biso   1.000  H
  C154     1.0000 0.03210  0.25340  0.03500  Biso   1.000  C
  H112     1.0000 0.03110  0.24090  0.20170  Biso   1.000  H
  Zn8      1.0000 0.28568  0.77245  0.57770  Biso   1.000  Zn
  O29      1.0000 0.24620  0.72280  0.40550  Biso   1.000  O
  H113     1.0000 0.23520  0.70200  0.51770  Biso   1.000  H
  N15      1.0000 0.35690  0.75420  0.59300  Biso   1.000  N
  C155     1.0000 0.39580  0.76810  0.45740  Biso   1.000  C
  H114     1.0000 0.39350  0.79340  0.33430  Biso   1.000  H
  N16      1.0000 0.43980  0.74370  0.50440  Biso   1.000  N
  C156     1.0000 0.37950  0.71390  0.75430  Biso   1.000  C
  O30      1.0000 0.66740  0.77850  0.13500  Biso   1.000  O
  C157     1.0000 0.35630  0.68450  0.93890  Biso   1.000  C
  H115     1.0000 0.32230  0.68860  0.97610  Biso   1.000  H
  O31      1.0000 0.62630  0.82030  0.83500  Biso   1.000  O
  C158     1.0000 0.38490  0.64870  0.06760  Biso   1.000  C
  C159     1.0000 0.36390  0.61850  0.25550  Biso   1.000  C
  H116     1.0000 0.33000  0.62240  0.29580  Biso   1.000  H
  C160     1.0000 0.39190  0.58230  0.38620  Biso   1.000  C
  H117     1.0000 0.37710  0.56230  0.51170  Biso   1.000  H
  C161     1.0000 0.44260  0.57690  0.32540  Biso   1.000  C
  H118     1.0000 0.46210  0.55300  0.41010  Biso   1.000  H
  C162     1.0000 0.46390  0.60730  0.13780  Biso   1.000  C
  H119     1.0000 0.49780  0.60350  0.09840  Biso   1.000  H
  C163     1.0000 0.43580  0.64330  0.00680  Biso   1.000  C
  C164     1.0000 0.45960  0.67240  0.81960  Biso   1.000  C
  H120     1.0000 0.49350  0.66820  0.78100  Biso   1.000  H
  C165     1.0000 0.43020  0.70790  0.69300  Biso   1.000  C
  C166     1.0000 0.48770  0.75800  0.39700  Biso   1.000  C
  C167     1.0000 0.57770  0.78570  0.18300  Biso   1.000  C
  C168     1.0000 0.49570  0.80760  0.33600  Biso   1.000  C
  H121     1.0000 0.47060  0.83120  0.36780  Biso   1.000  H
  C169     1.0000 0.54140  0.82300  0.22700  Biso   1.000  C
  H122     1.0000 0.54730  0.85660  0.18530  Biso   1.000  H
  C170     1.0000 0.57240  0.73430  0.24200  Biso   1.000  C
  H123     1.0000 0.59740  0.71050  0.21280  Biso   1.000  H
  C171     1.0000 0.52540  0.72310  0.34900  Biso   1.000  C
  H124     1.0000 0.51900  0.68970  0.39110  Biso   1.000  H
  C172     1.0000 0.62730  0.79870  0.05700  Biso   1.000  C
  O32      1.0000 0.63200  0.84800  0.99800  Biso   1.000  O
  C173     1.0000 0.48960  0.77690  0.15000  Biso   1.000  C
  H125     1.0000 0.45990  0.78020  0.05650  Biso   1.000  H
  C174     1.0000 0.53440  0.79110  0.03800  Biso   1.000  C
  H126     1.0000 0.53550  0.80380  0.87120  Biso   1.000  H
  C175     1.0000 0.57770  0.76690  0.43000  Biso   1.000  C
  H127     1.0000 0.60740  0.76350  0.52270  Biso   1.000  H
  C176     1.0000 0.53210  0.75340  0.53500  Biso   1.000  C
  H128     1.0000 0.53110  0.74090  0.70170  Biso   1.000  H
