data_image0
_cell_length_a       27.253
_cell_length_b       27.253
_cell_length_c       4.1475
_cell_angle_alpha    90
_cell_angle_beta     90
_cell_angle_gamma    90

_symmetry_space_group_name_H-M    "P 1"
_symmetry_int_tables_number       1

loop_
  _symmetry_equiv_pos_as_xyz
  'x, y, z'

loop_
  _atom_site_label
  _atom_site_occupancy
  _atom_site_fract_x
  _atom_site_fract_y
  _atom_site_fract_z
  _atom_site_thermal_displace_type
  _atom_site_B_iso_or_equiv
  _atom_site_type_symbol
  Zn1      1.0000 0.28048  0.21397  0.86510  Biso   1.000  Zn
  O1       1.0000 0.21490  0.24310  0.98500  Biso   1.000  O
  H1       1.0000 0.19370  0.25430  0.87120  Biso   1.000  H
  N1       1.0000 0.24870  0.14570  0.80500  Biso   1.000  N
  C1       1.0000 0.27030  0.11260  0.98300  Biso   1.000  C
  H2       1.0000 0.29890  0.11890  0.09790  Biso   1.000  H
  N2       1.0000 0.24760  0.06820  0.98800  Biso   1.000  N
  C2       1.0000 0.21310  0.12430  0.69600  Biso   1.000  C
  O2       1.0000 0.27280  0.84500  0.42800  Biso   1.000  O
  C3       1.0000 0.17980  0.14650  0.49200  Biso   1.000  C
  H3       1.0000 0.18390  0.17910  0.43170  Biso   1.000  H
  O3       1.0000 0.31220  0.86980  0.78500  Biso   1.000  O
  C4       1.0000 0.14060  0.12000  0.37800  Biso   1.000  C
  C5       1.0000 0.10830  0.14400  0.17500  Biso   1.000  C
  H4       1.0000 0.11440  0.17670  0.12460  Biso   1.000  H
  C6       1.0000 0.06760  0.12180  0.04300  Biso   1.000  C
  H5       1.0000 0.04600  0.13770  0.90450  Biso   1.000  H
  C7       1.0000 0.06210  0.07340  0.13600  Biso   1.000  C
  H6       1.0000 0.03520  0.05610  0.05840  Biso   1.000  H
  C8       1.0000 0.09430  0.04950  0.33800  Biso   1.000  C
  H7       1.0000 0.08830  0.01680  0.38760  Biso   1.000  H
  C9       1.0000 0.13500  0.07180  0.47000  Biso   1.000  C
  C10      1.0000 0.16790  0.04960  0.67300  Biso   1.000  C
  H8       1.0000 0.16360  0.01690  0.73260  Biso   1.000  H
  C11      1.0000 0.20730  0.07590  0.78800  Biso   1.000  C
  C12      1.0000 0.26220  0.02010  0.13500  Biso   1.000  C
  C13      1.0000 0.28080  0.92740  0.33300  Biso   1.000  C
  C14      1.0000 0.30980  0.00350  0.14000  Biso   1.000  C
  H9       1.0000 0.33500  0.02430  0.07620  Biso   1.000  H
  C15      1.0000 0.32080  0.95600  0.24000  Biso   1.000  C
  H10      1.0000 0.35280  0.94420  0.24500  Biso   1.000  H
  C16      1.0000 0.23140  0.94050  0.33600  Biso   1.000  C
  H11      1.0000 0.20600  0.91970  0.39950  Biso   1.000  H
  C17      1.0000 0.22490  0.98860  0.23200  Biso   1.000  C
  H12      1.0000 0.19300  0.00070  0.22740  Biso   1.000  H
  C18      1.0000 0.29700  0.88060  0.49600  Biso   1.000  C
  O4       1.0000 0.34130  0.87580  0.60900  Biso   1.000  O
  C19      1.0000 0.29210  0.01190  0.39900  Biso   1.000  C
  H13      1.0000 0.30580  0.03840  0.50720  Biso   1.000  H
  C20      1.0000 0.30190  0.96500  0.50300  Biso   1.000  C
  H14      1.0000 0.32190  0.95900  0.68090  Biso   1.000  H
  C21      1.0000 0.25080  0.93360  0.07100  Biso   1.000  C
  H15      1.0000 0.23700  0.90700  0.96400  Biso   1.000  H
  C22      1.0000 0.24200  0.98110  0.97500  Biso   1.000  C
  H16      1.0000 0.22190  0.98680  0.79780  Biso   1.000  H
  Zn2      1.0000 0.78048  0.71397  0.36510  Biso   1.000  Zn
  O5       1.0000 0.71490  0.74310  0.48500  Biso   1.000  O
  H17      1.0000 0.69370  0.75430  0.37120  Biso   1.000  H
  N3       1.0000 0.74870  0.64570  0.30500  Biso   1.000  N
  C23      1.0000 0.77030  0.61260  0.48300  Biso   1.000  C
  H18      1.0000 0.79890  0.61890  0.59790  Biso   1.000  H
  N4       1.0000 0.74760  0.56820  0.48800  Biso   1.000  N
  C24      1.0000 0.71310  0.62430  0.19600  Biso   1.000  C
  O6       1.0000 0.77280  0.34500  0.92800  Biso   1.000  O
  C25      1.0000 0.67980  0.64650  0.99200  Biso   1.000  C
  H19      1.0000 0.68390  0.67910  0.93170  Biso   1.000  H
  O7       1.0000 0.81220  0.36980  0.28500  Biso   1.000  O
  C26      1.0000 0.64060  0.62000  0.87800  Biso   1.000  C
  C27      1.0000 0.60830  0.64400  0.67500  Biso   1.000  C
  H20      1.0000 0.61440  0.67670  0.62460  Biso   1.000  H
  C28      1.0000 0.56760  0.62180  0.54300  Biso   1.000  C
  H21      1.0000 0.54600  0.63770  0.40450  Biso   1.000  H
  C29      1.0000 0.56210  0.57340  0.63600  Biso   1.000  C
  H22      1.0000 0.53520  0.55610  0.55840  Biso   1.000  H
  C30      1.0000 0.59430  0.54950  0.83800  Biso   1.000  C
  H23      1.0000 0.58830  0.51680  0.88760  Biso   1.000  H
  C31      1.0000 0.63500  0.57180  0.97000  Biso   1.000  C
  C32      1.0000 0.66790  0.54960  0.17300  Biso   1.000  C
  H24      1.0000 0.66360  0.51690  0.23260  Biso   1.000  H
  C33      1.0000 0.70730  0.57590  0.28800  Biso   1.000  C
  C34      1.0000 0.76220  0.52010  0.63500  Biso   1.000  C
  C35      1.0000 0.78080  0.42740  0.83300  Biso   1.000  C
  C36      1.0000 0.80980  0.50350  0.64000  Biso   1.000  C
  H25      1.0000 0.83500  0.52430  0.57620  Biso   1.000  H
  C37      1.0000 0.82080  0.45600  0.74000  Biso   1.000  C
  H26      1.0000 0.85280  0.44420  0.74500  Biso   1.000  H
  C38      1.0000 0.73140  0.44050  0.83600  Biso   1.000  C
  H27      1.0000 0.70600  0.41970  0.89950  Biso   1.000  H
  C39      1.0000 0.72490  0.48860  0.73200  Biso   1.000  C
  H28      1.0000 0.69300  0.50070  0.72740  Biso   1.000  H
  C40      1.0000 0.79700  0.38060  0.99600  Biso   1.000  C
  O8       1.0000 0.84130  0.37580  0.10900  Biso   1.000  O
  C41      1.0000 0.79210  0.51190  0.89900  Biso   1.000  C
  H29      1.0000 0.80580  0.53840  0.00720  Biso   1.000  H
  C42      1.0000 0.80190  0.46500  0.00300  Biso   1.000  C
  H30      1.0000 0.82190  0.45900  0.18090  Biso   1.000  H
  C43      1.0000 0.75080  0.43360  0.57100  Biso   1.000  C
  H31      1.0000 0.73700  0.40700  0.46400  Biso   1.000  H
  C44      1.0000 0.74200  0.48110  0.47500  Biso   1.000  C
  H32      1.0000 0.72190  0.48680  0.29780  Biso   1.000  H
  Zn3      1.0000 0.71952  0.78603  0.86510  Biso   1.000  Zn
  O9       1.0000 0.78510  0.75690  0.98500  Biso   1.000  O
  H33      1.0000 0.80630  0.74570  0.87120  Biso   1.000  H
  N5       1.0000 0.75130  0.85430  0.80500  Biso   1.000  N
  C45      1.0000 0.72970  0.88740  0.98300  Biso   1.000  C
  H34      1.0000 0.70110  0.88110  0.09790  Biso   1.000  H
  N6       1.0000 0.75240  0.93180  0.98800  Biso   1.000  N
  C46      1.0000 0.78690  0.87570  0.69600  Biso   1.000  C
  O10      1.0000 0.72720  0.15500  0.42800  Biso   1.000  O
  C47      1.0000 0.82020  0.85350  0.49200  Biso   1.000  C
  H35      1.0000 0.81610  0.82090  0.43170  Biso   1.000  H
  O11      1.0000 0.68780  0.13020  0.78500  Biso   1.000  O
  C48      1.0000 0.85940  0.88000  0.37800  Biso   1.000  C
  C49      1.0000 0.89170  0.85600  0.17500  Biso   1.000  C
  H36      1.0000 0.88560  0.82330  0.12460  Biso   1.000  H
  C50      1.0000 0.93240  0.87820  0.04300  Biso   1.000  C
  H37      1.0000 0.95400  0.86230  0.90450  Biso   1.000  H
  C51      1.0000 0.93790  0.92660  0.13600  Biso   1.000  C
  H38      1.0000 0.96480  0.94390  0.05840  Biso   1.000  H
  C52      1.0000 0.90570  0.95050  0.33800  Biso   1.000  C
  H39      1.0000 0.91170  0.98320  0.38760  Biso   1.000  H
  C53      1.0000 0.86500  0.92820  0.47000  Biso   1.000  C
  C54      1.0000 0.83210  0.95040  0.67300  Biso   1.000  C
  H40      1.0000 0.83640  0.98310  0.73260  Biso   1.000  H
  C55      1.0000 0.79270  0.92410  0.78800  Biso   1.000  C
  C56      1.0000 0.73780  0.97990  0.13500  Biso   1.000  C
  C57      1.0000 0.71920  0.07260  0.33300  Biso   1.000  C
  C58      1.0000 0.69020  0.99650  0.14000  Biso   1.000  C
  H41      1.0000 0.66500  0.97570  0.07620  Biso   1.000  H
  C59      1.0000 0.67920  0.04400  0.24000  Biso   1.000  C
  H42      1.0000 0.64720  0.05580  0.24500  Biso   1.000  H
  C60      1.0000 0.76860  0.05950  0.33600  Biso   1.000  C
  H43      1.0000 0.79400  0.08030  0.39950  Biso   1.000  H
  C61      1.0000 0.77510  0.01140  0.23200  Biso   1.000  C
  H44      1.0000 0.80700  0.99930  0.22740  Biso   1.000  H
  C62      1.0000 0.70300  0.11940  0.49600  Biso   1.000  C
  O12      1.0000 0.65870  0.12420  0.60900  Biso   1.000  O
  C63      1.0000 0.70790  0.98810  0.39900  Biso   1.000  C
  H45      1.0000 0.69420  0.96160  0.50720  Biso   1.000  H
  C64      1.0000 0.69810  0.03500  0.50300  Biso   1.000  C
  H46      1.0000 0.67810  0.04100  0.68090  Biso   1.000  H
  C65      1.0000 0.74920  0.06640  0.07100  Biso   1.000  C
  H47      1.0000 0.76300  0.09300  0.96400  Biso   1.000  H
  C66      1.0000 0.75800  0.01890  0.97500  Biso   1.000  C
  H48      1.0000 0.77810  0.01320  0.79780  Biso   1.000  H
  Zn4      1.0000 0.21952  0.28603  0.36510  Biso   1.000  Zn
  O13      1.0000 0.28510  0.25690  0.48500  Biso   1.000  O
  H49      1.0000 0.30630  0.24570  0.37120  Biso   1.000  H
  N7       1.0000 0.25130  0.35430  0.30500  Biso   1.000  N
  C67      1.0000 0.22970  0.38740  0.48300  Biso   1.000  C
  H50      1.0000 0.20110  0.38110  0.59790  Biso   1.000  H
  N8       1.0000 0.25240  0.43180  0.48800  Biso   1.000  N
  C68      1.0000 0.28690  0.37570  0.19600  Biso   1.000  C
  O14      1.0000 0.22720  0.65500  0.92800  Biso   1.000  O
  C69      1.0000 0.32020  0.35350  0.99200  Biso   1.000  C
  H51      1.0000 0.31610  0.32090  0.93170  Biso   1.000  H
  O15      1.0000 0.18780  0.63020  0.28500  Biso   1.000  O
  C70      1.0000 0.35940  0.38000  0.87800  Biso   1.000  C
  C71      1.0000 0.39170  0.35600  0.67500  Biso   1.000  C
  H52      1.0000 0.38560  0.32330  0.62460  Biso   1.000  H
  C72      1.0000 0.43240  0.37820  0.54300  Biso   1.000  C
  H53      1.0000 0.45400  0.36230  0.40450  Biso   1.000  H
  C73      1.0000 0.43790  0.42660  0.63600  Biso   1.000  C
  H54      1.0000 0.46480  0.44390  0.55840  Biso   1.000  H
  C74      1.0000 0.40570  0.45050  0.83800  Biso   1.000  C
  H55      1.0000 0.41170  0.48320  0.88760  Biso   1.000  H
  C75      1.0000 0.36500  0.42820  0.97000  Biso   1.000  C
  C76      1.0000 0.33210  0.45040  0.17300  Biso   1.000  C
  H56      1.0000 0.33640  0.48310  0.23260  Biso   1.000  H
  C77      1.0000 0.29270  0.42410  0.28800  Biso   1.000  C
  C78      1.0000 0.23780  0.47990  0.63500  Biso   1.000  C
  C79      1.0000 0.21920  0.57260  0.83300  Biso   1.000  C
  C80      1.0000 0.19020  0.49650  0.64000  Biso   1.000  C
  H57      1.0000 0.16500  0.47570  0.57620  Biso   1.000  H
  C81      1.0000 0.17920  0.54400  0.74000  Biso   1.000  C
  H58      1.0000 0.14720  0.55580  0.74500  Biso   1.000  H
  C82      1.0000 0.26860  0.55950  0.83600  Biso   1.000  C
  H59      1.0000 0.29400  0.58030  0.89950  Biso   1.000  H
  C83      1.0000 0.27510  0.51140  0.73200  Biso   1.000  C
  H60      1.0000 0.30700  0.49930  0.72740  Biso   1.000  H
  C84      1.0000 0.20300  0.61940  0.99600  Biso   1.000  C
  O16      1.0000 0.15870  0.62420  0.10900  Biso   1.000  O
  C85      1.0000 0.20790  0.48810  0.89900  Biso   1.000  C
  H61      1.0000 0.19420  0.46160  0.00720  Biso   1.000  H
  C86      1.0000 0.19810  0.53500  0.00300  Biso   1.000  C
  H62      1.0000 0.17810  0.54100  0.18090  Biso   1.000  H
  C87      1.0000 0.24920  0.56640  0.57100  Biso   1.000  C
  H63      1.0000 0.26300  0.59300  0.46400  Biso   1.000  H
  C88      1.0000 0.25800  0.51890  0.47500  Biso   1.000  C
  H64      1.0000 0.27810  0.51320  0.29780  Biso   1.000  H
  Zn5      1.0000 0.21397  0.71952  0.13490  Biso   1.000  Zn
  O17      1.0000 0.24310  0.78510  0.01500  Biso   1.000  O
  H65      1.0000 0.25430  0.80630  0.12880  Biso   1.000  H
  N9       1.0000 0.14570  0.75130  0.19500  Biso   1.000  N
  C89      1.0000 0.11260  0.72970  0.01700  Biso   1.000  C
  H66      1.0000 0.11890  0.70110  0.90210  Biso   1.000  H
  N10      1.0000 0.06820  0.75240  0.01200  Biso   1.000  N
  C90      1.0000 0.12430  0.78690  0.30400  Biso   1.000  C
  O18      1.0000 0.84500  0.72720  0.57200  Biso   1.000  O
  C91      1.0000 0.14650  0.82020  0.50800  Biso   1.000  C
  H67      1.0000 0.17910  0.81610  0.56830  Biso   1.000  H
  O19      1.0000 0.86980  0.68780  0.21500  Biso   1.000  O
  C92      1.0000 0.12000  0.85940  0.62200  Biso   1.000  C
  C93      1.0000 0.14400  0.89170  0.82500  Biso   1.000  C
  H68      1.0000 0.17670  0.88560  0.87540  Biso   1.000  H
  C94      1.0000 0.12180  0.93240  0.95700  Biso   1.000  C
  H69      1.0000 0.13770  0.95400  0.09550  Biso   1.000  H
  C95      1.0000 0.07340  0.93790  0.86400  Biso   1.000  C
  H70      1.0000 0.05610  0.96480  0.94160  Biso   1.000  H
  C96      1.0000 0.04950  0.90570  0.66200  Biso   1.000  C
  H71      1.0000 0.01680  0.91170  0.61240  Biso   1.000  H
  C97      1.0000 0.07180  0.86500  0.53000  Biso   1.000  C
  C98      1.0000 0.04960  0.83210  0.32700  Biso   1.000  C
  H72      1.0000 0.01690  0.83640  0.26740  Biso   1.000  H
  C99      1.0000 0.07590  0.79270  0.21200  Biso   1.000  C
  C100     1.0000 0.02010  0.73780  0.86500  Biso   1.000  C
  C101     1.0000 0.92740  0.71920  0.66700  Biso   1.000  C
  C102     1.0000 0.00350  0.69020  0.86000  Biso   1.000  C
  H73      1.0000 0.02430  0.66500  0.92380  Biso   1.000  H
  C103     1.0000 0.95600  0.67920  0.76000  Biso   1.000  C
  H74      1.0000 0.94420  0.64720  0.75500  Biso   1.000  H
  C104     1.0000 0.94050  0.76860  0.66400  Biso   1.000  C
  H75      1.0000 0.91970  0.79400  0.60050  Biso   1.000  H
  C105     1.0000 0.98860  0.77510  0.76800  Biso   1.000  C
  H76      1.0000 0.00070  0.80700  0.77260  Biso   1.000  H
  C106     1.0000 0.88060  0.70300  0.50400  Biso   1.000  C
  O20      1.0000 0.87580  0.65870  0.39100  Biso   1.000  O
  C107     1.0000 0.01190  0.70790  0.60100  Biso   1.000  C
  H77      1.0000 0.03840  0.69420  0.49280  Biso   1.000  H
  C108     1.0000 0.96500  0.69810  0.49700  Biso   1.000  C
  H78      1.0000 0.95900  0.67810  0.31910  Biso   1.000  H
  C109     1.0000 0.93360  0.74920  0.92900  Biso   1.000  C
  H79      1.0000 0.90700  0.76300  0.03600  Biso   1.000  H
  C110     1.0000 0.98110  0.75800  0.02500  Biso   1.000  C
  H80      1.0000 0.98680  0.77810  0.20220  Biso   1.000  H
  Zn6      1.0000 0.71397  0.21952  0.63490  Biso   1.000  Zn
  O21      1.0000 0.74310  0.28510  0.51500  Biso   1.000  O
  H81      1.0000 0.75430  0.30630  0.62880  Biso   1.000  H
  N11      1.0000 0.64570  0.25130  0.69500  Biso   1.000  N
  C111     1.0000 0.61260  0.22970  0.51700  Biso   1.000  C
  H82      1.0000 0.61890  0.20110  0.40210  Biso   1.000  H
  N12      1.0000 0.56820  0.25240  0.51200  Biso   1.000  N
  C112     1.0000 0.62430  0.28690  0.80400  Biso   1.000  C
  O22      1.0000 0.34500  0.22720  0.07200  Biso   1.000  O
  C113     1.0000 0.64650  0.32020  0.00800  Biso   1.000  C
  H83      1.0000 0.67910  0.31610  0.06830  Biso   1.000  H
  O23      1.0000 0.36980  0.18780  0.71500  Biso   1.000  O
  C114     1.0000 0.62000  0.35940  0.12200  Biso   1.000  C
  C115     1.0000 0.64400  0.39170  0.32500  Biso   1.000  C
  H84      1.0000 0.67670  0.38560  0.37540  Biso   1.000  H
  C116     1.0000 0.62180  0.43240  0.45700  Biso   1.000  C
  H85      1.0000 0.63770  0.45400  0.59550  Biso   1.000  H
  C117     1.0000 0.57340  0.43790  0.36400  Biso   1.000  C
  H86      1.0000 0.55610  0.46480  0.44160  Biso   1.000  H
  C118     1.0000 0.54950  0.40570  0.16200  Biso   1.000  C
  H87      1.0000 0.51680  0.41170  0.11240  Biso   1.000  H
  C119     1.0000 0.57180  0.36500  0.03000  Biso   1.000  C
  C120     1.0000 0.54960  0.33210  0.82700  Biso   1.000  C
  H88      1.0000 0.51690  0.33640  0.76740  Biso   1.000  H
  C121     1.0000 0.57590  0.29270  0.71200  Biso   1.000  C
  C122     1.0000 0.52010  0.23780  0.36500  Biso   1.000  C
  C123     1.0000 0.42740  0.21920  0.16700  Biso   1.000  C
  C124     1.0000 0.50350  0.19020  0.36000  Biso   1.000  C
  H89      1.0000 0.52430  0.16500  0.42380  Biso   1.000  H
  C125     1.0000 0.45600  0.17920  0.26000  Biso   1.000  C
  H90      1.0000 0.44420  0.14720  0.25500  Biso   1.000  H
  C126     1.0000 0.44050  0.26860  0.16400  Biso   1.000  C
  H91      1.0000 0.41970  0.29400  0.10050  Biso   1.000  H
  C127     1.0000 0.48860  0.27510  0.26800  Biso   1.000  C
  H92      1.0000 0.50070  0.30700  0.27260  Biso   1.000  H
  C128     1.0000 0.38060  0.20300  0.00400  Biso   1.000  C
  O24      1.0000 0.37580  0.15870  0.89100  Biso   1.000  O
  C129     1.0000 0.51190  0.20790  0.10100  Biso   1.000  C
  H93      1.0000 0.53840  0.19420  0.99280  Biso   1.000  H
  C130     1.0000 0.46500  0.19810  0.99700  Biso   1.000  C
  H94      1.0000 0.45900  0.17810  0.81910  Biso   1.000  H
  C131     1.0000 0.43360  0.24920  0.42900  Biso   1.000  C
  H95      1.0000 0.40700  0.26300  0.53600  Biso   1.000  H
  C132     1.0000 0.48110  0.25800  0.52500  Biso   1.000  C
  H96      1.0000 0.48680  0.27810  0.70220  Biso   1.000  H
  Zn7      1.0000 0.78603  0.28048  0.13490  Biso   1.000  Zn
  O25      1.0000 0.75690  0.21490  0.01500  Biso   1.000  O
  H97      1.0000 0.74570  0.19370  0.12880  Biso   1.000  H
  N13      1.0000 0.85430  0.24870  0.19500  Biso   1.000  N
  C133     1.0000 0.88740  0.27030  0.01700  Biso   1.000  C
  H98      1.0000 0.88110  0.29890  0.90210  Biso   1.000  H
  N14      1.0000 0.93180  0.24760  0.01200  Biso   1.000  N
  C134     1.0000 0.87570  0.21310  0.30400  Biso   1.000  C
  O26      1.0000 0.15500  0.27280  0.57200  Biso   1.000  O
  C135     1.0000 0.85350  0.17980  0.50800  Biso   1.000  C
  H99      1.0000 0.82090  0.18390  0.56830  Biso   1.000  H
  O27      1.0000 0.13020  0.31220  0.21500  Biso   1.000  O
  C136     1.0000 0.88000  0.14060  0.62200  Biso   1.000  C
  C137     1.0000 0.85600  0.10830  0.82500  Biso   1.000  C
  H100     1.0000 0.82330  0.11440  0.87540  Biso   1.000  H
  C138     1.0000 0.87820  0.06760  0.95700  Biso   1.000  C
  H101     1.0000 0.86230  0.04600  0.09550  Biso   1.000  H
  C139     1.0000 0.92660  0.06210  0.86400  Biso   1.000  C
  H102     1.0000 0.94390  0.03520  0.94160  Biso   1.000  H
  C140     1.0000 0.95050  0.09430  0.66200  Biso   1.000  C
  H103     1.0000 0.98320  0.08830  0.61240  Biso   1.000  H
  C141     1.0000 0.92820  0.13500  0.53000  Biso   1.000  C
  C142     1.0000 0.95040  0.16790  0.32700  Biso   1.000  C
  H104     1.0000 0.98310  0.16360  0.26740  Biso   1.000  H
  C143     1.0000 0.92410  0.20730  0.21200  Biso   1.000  C
  C144     1.0000 0.97990  0.26220  0.86500  Biso   1.000  C
  C145     1.0000 0.07260  0.28080  0.66700  Biso   1.000  C
  C146     1.0000 0.99650  0.30980  0.86000  Biso   1.000  C
  H105     1.0000 0.97570  0.33500  0.92380  Biso   1.000  H
  C147     1.0000 0.04400  0.32080  0.76000  Biso   1.000  C
  H106     1.0000 0.05580  0.35280  0.75500  Biso   1.000  H
  C148     1.0000 0.05950  0.23140  0.66400  Biso   1.000  C
  H107     1.0000 0.08030  0.20600  0.60050  Biso   1.000  H
  C149     1.0000 0.01140  0.22490  0.76800  Biso   1.000  C
  H108     1.0000 0.99930  0.19300  0.77260  Biso   1.000  H
  C150     1.0000 0.11940  0.29700  0.50400  Biso   1.000  C
  O28      1.0000 0.12420  0.34130  0.39100  Biso   1.000  O
  C151     1.0000 0.98810  0.29210  0.60100  Biso   1.000  C
  H109     1.0000 0.96160  0.30580  0.49280  Biso   1.000  H
  C152     1.0000 0.03500  0.30190  0.49700  Biso   1.000  C
  H110     1.0000 0.04100  0.32190  0.31910  Biso   1.000  H
  C153     1.0000 0.06640  0.25080  0.92900  Biso   1.000  C
  H111     1.0000 0.09300  0.23700  0.03600  Biso   1.000  H
  C154     1.0000 0.01890  0.24200  0.02500  Biso   1.000  C
  H112     1.0000 0.01320  0.22190  0.20220  Biso   1.000  H
  Zn8      1.0000 0.28603  0.78048  0.63490  Biso   1.000  Zn
  O29      1.0000 0.25690  0.71490  0.51500  Biso   1.000  O
  H113     1.0000 0.24570  0.69370  0.62880  Biso   1.000  H
  N15      1.0000 0.35430  0.74870  0.69500  Biso   1.000  N
  C155     1.0000 0.38740  0.77030  0.51700  Biso   1.000  C
  H114     1.0000 0.38110  0.79890  0.40210  Biso   1.000  H
  N16      1.0000 0.43180  0.74760  0.51200  Biso   1.000  N
  C156     1.0000 0.37570  0.71310  0.80400  Biso   1.000  C
  O30      1.0000 0.65500  0.77280  0.07200  Biso   1.000  O
  C157     1.0000 0.35350  0.67980  0.00800  Biso   1.000  C
  H115     1.0000 0.32090  0.68390  0.06830  Biso   1.000  H
  O31      1.0000 0.63020  0.81220  0.71500  Biso   1.000  O
  C158     1.0000 0.38000  0.64060  0.12200  Biso   1.000  C
  C159     1.0000 0.35600  0.60830  0.32500  Biso   1.000  C
  H116     1.0000 0.32330  0.61440  0.37540  Biso   1.000  H
  C160     1.0000 0.37820  0.56760  0.45700  Biso   1.000  C
  H117     1.0000 0.36230  0.54600  0.59550  Biso   1.000  H
  C161     1.0000 0.42660  0.56210  0.36400  Biso   1.000  C
  H118     1.0000 0.44390  0.53520  0.44160  Biso   1.000  H
  C162     1.0000 0.45050  0.59430  0.16200  Biso   1.000  C
  H119     1.0000 0.48320  0.58830  0.11240  Biso   1.000  H
  C163     1.0000 0.42820  0.63500  0.03000  Biso   1.000  C
  C164     1.0000 0.45040  0.66790  0.82700  Biso   1.000  C
  H120     1.0000 0.48310  0.66360  0.76740  Biso   1.000  H
  C165     1.0000 0.42410  0.70730  0.71200  Biso   1.000  C
  C166     1.0000 0.47990  0.76220  0.36500  Biso   1.000  C
  C167     1.0000 0.57260  0.78080  0.16700  Biso   1.000  C
  C168     1.0000 0.49650  0.80980  0.36000  Biso   1.000  C
  H121     1.0000 0.47570  0.83500  0.42380  Biso   1.000  H
  C169     1.0000 0.54400  0.82080  0.26000  Biso   1.000  C
  H122     1.0000 0.55580  0.85280  0.25500  Biso   1.000  H
  C170     1.0000 0.55950  0.73140  0.16400  Biso   1.000  C
  H123     1.0000 0.58030  0.70600  0.10050  Biso   1.000  H
  C171     1.0000 0.51140  0.72490  0.26800  Biso   1.000  C
  H124     1.0000 0.49930  0.69300  0.27260  Biso   1.000  H
  C172     1.0000 0.61940  0.79700  0.00400  Biso   1.000  C
  O32      1.0000 0.62420  0.84130  0.89100  Biso   1.000  O
  C173     1.0000 0.48810  0.79210  0.10100  Biso   1.000  C
  H125     1.0000 0.46160  0.80580  0.99280  Biso   1.000  H
  C174     1.0000 0.53500  0.80190  0.99700  Biso   1.000  C
  H126     1.0000 0.54100  0.82190  0.81910  Biso   1.000  H
  C175     1.0000 0.56640  0.75080  0.42900  Biso   1.000  C
  H127     1.0000 0.59300  0.73700  0.53600  Biso   1.000  H
  C176     1.0000 0.51890  0.74200  0.52500  Biso   1.000  C
  H128     1.0000 0.51320  0.72190  0.70220  Biso   1.000  H
