data_image0
_cell_length_a       26.5471
_cell_length_b       26.5471
_cell_length_c       5.1352
_cell_angle_alpha    90
_cell_angle_beta     90
_cell_angle_gamma    90

_symmetry_space_group_name_H-M    "P 1"
_symmetry_int_tables_number       1

loop_
  _symmetry_equiv_pos_as_xyz
  'x, y, z'

loop_
  _atom_site_label
  _atom_site_occupancy
  _atom_site_fract_x
  _atom_site_fract_y
  _atom_site_fract_z
  _atom_site_thermal_displace_type
  _atom_site_B_iso_or_equiv
  _atom_site_type_symbol
  Zn1      1.0000 0.27280  0.21416  0.91481  Biso   1.000  Zn
  O1       1.0000 0.22110  0.25270  0.08540  Biso   1.000  O
  H1       1.0000 0.20030  0.26370  0.97310  Biso   1.000  H
  N1       1.0000 0.25140  0.14140  0.89700  Biso   1.000  N
  C1       1.0000 0.26780  0.10469  0.04340  Biso   1.000  C
  H2       1.0000 0.29320  0.10840  0.16670  Biso   1.000  H
  N2       1.0000 0.24370  0.06050  0.99590  Biso   1.000  N
  C2       1.0000 0.21311  0.12120  0.74160  Biso   1.000  C
  O2       1.0000 0.27710  0.83330  0.37180  Biso   1.000  O
  C3       1.0000 0.18360  0.14430  0.55500  Biso   1.000  C
  H3       1.0000 0.18760  0.17830  0.51590  Biso   1.000  H
  O3       1.0000 0.31550  0.87120  0.68400  Biso   1.000  O
  C4       1.0000 0.14760  0.11520  0.42690  Biso   1.000  C
  C5       1.0000 0.11740  0.13590  0.23540  Biso   1.000  C
  H4       1.0000 0.12140  0.16970  0.19230  Biso   1.000  H
  C6       1.0000 0.08110  0.10760  0.10530  Biso   1.000  C
  H5       1.0000 0.06080  0.12210  0.97820  Biso   1.000  H
  C7       1.0000 0.07580  0.05660  0.17060  Biso   1.000  C
  H6       1.0000 0.05190  0.03710  0.08490  Biso   1.000  H
  C8       1.0000 0.10570  0.03490  0.36090  Biso   1.000  C
  H7       1.0000 0.10150  0.00100  0.40240  Biso   1.000  H
  C9       1.0000 0.14240  0.06350  0.49210  Biso   1.000  C
  C10      1.0000 0.17190  0.04030  0.68250  Biso   1.000  C
  H8       1.0000 0.16770  0.00650  0.72510  Biso   1.000  H
  C11      1.0000 0.20780  0.07000  0.80490  Biso   1.000  C
  C12      1.0000 0.25748  0.01320  0.10390  Biso   1.000  C
  C13      1.0000 0.28490  0.92180  0.32220  Biso   1.000  C
  C14      1.0000 0.27750  0.01080  0.35200  Biso   1.000  C
  H9       1.0000 0.28170  0.04050  0.44530  Biso   1.000  H
  C15      1.0000 0.29140  0.96590  0.46620  Biso   1.000  C
  H10      1.0000 0.30460  0.96500  0.63370  Biso   1.000  H
  C16      1.0000 0.26470  0.92220  0.07490  Biso   1.000  C
  H11      1.0000 0.26000  0.89240  0.98270  Biso   1.000  H
  C17      1.0000 0.25150  0.96790  0.96790  Biso   1.000  C
  H12      1.0000 0.23830  0.96870  0.80030  Biso   1.000  H
  C18      1.0000 0.29820  0.87210  0.44800  Biso   1.000  C
  O4       1.0000 0.34500  0.87000  0.53200  Biso   1.000  O
  C19      1.0000 0.30720  0.00480  0.16350  Biso   1.000  C
  H13      1.0000 0.33100  0.02970  0.13090  Biso   1.000  H
  C20      1.0000 0.32230  0.95850  0.27400  Biso   1.000  C
  H14      1.0000 0.35590  0.95230  0.31380  Biso   1.000  H
  C21      1.0000 0.23370  0.92830  0.26100  Biso   1.000  C
  H15      1.0000 0.20960  0.90350  0.28910  Biso   1.000  H
  C22      1.0000 0.22240  0.97570  0.15500  Biso   1.000  C
  H16      1.0000 0.18890  0.98250  0.11480  Biso   1.000  H
  Zn2      1.0000 0.77280  0.71416  0.41481  Biso   1.000  Zn
  O5       1.0000 0.72110  0.75270  0.58540  Biso   1.000  O
  H17      1.0000 0.70030  0.76370  0.47310  Biso   1.000  H
  N3       1.0000 0.75140  0.64140  0.39700  Biso   1.000  N
  C23      1.0000 0.76780  0.60469  0.54340  Biso   1.000  C
  H18      1.0000 0.79320  0.60840  0.66670  Biso   1.000  H
  N4       1.0000 0.74370  0.56050  0.49590  Biso   1.000  N
  C24      1.0000 0.71311  0.62120  0.24160  Biso   1.000  C
  O6       1.0000 0.77710  0.33330  0.87180  Biso   1.000  O
  C25      1.0000 0.68360  0.64430  0.05500  Biso   1.000  C
  H19      1.0000 0.68760  0.67830  0.01590  Biso   1.000  H
  O7       1.0000 0.81550  0.37120  0.18400  Biso   1.000  O
  C26      1.0000 0.64760  0.61520  0.92690  Biso   1.000  C
  C27      1.0000 0.61740  0.63590  0.73540  Biso   1.000  C
  H20      1.0000 0.62140  0.66970  0.69230  Biso   1.000  H
  C28      1.0000 0.58110  0.60760  0.60530  Biso   1.000  C
  H21      1.0000 0.56080  0.62210  0.47820  Biso   1.000  H
  C29      1.0000 0.57580  0.55660  0.67060  Biso   1.000  C
  H22      1.0000 0.55190  0.53710  0.58490  Biso   1.000  H
  C30      1.0000 0.60570  0.53490  0.86090  Biso   1.000  C
  H23      1.0000 0.60150  0.50100  0.90240  Biso   1.000  H
  C31      1.0000 0.64240  0.56350  0.99210  Biso   1.000  C
  C32      1.0000 0.67190  0.54030  0.18250  Biso   1.000  C
  H24      1.0000 0.66770  0.50650  0.22510  Biso   1.000  H
  C33      1.0000 0.70780  0.57000  0.30490  Biso   1.000  C
  C34      1.0000 0.75748  0.51320  0.60390  Biso   1.000  C
  C35      1.0000 0.78490  0.42180  0.82220  Biso   1.000  C
  C36      1.0000 0.77750  0.51080  0.85200  Biso   1.000  C
  H25      1.0000 0.78170  0.54050  0.94530  Biso   1.000  H
  C37      1.0000 0.79140  0.46590  0.96620  Biso   1.000  C
  H26      1.0000 0.80460  0.46500  0.13370  Biso   1.000  H
  C38      1.0000 0.76470  0.42220  0.57490  Biso   1.000  C
  H27      1.0000 0.76000  0.39240  0.48270  Biso   1.000  H
  C39      1.0000 0.75150  0.46790  0.46790  Biso   1.000  C
  H28      1.0000 0.73830  0.46870  0.30030  Biso   1.000  H
  C40      1.0000 0.79820  0.37210  0.94800  Biso   1.000  C
  O8       1.0000 0.84500  0.37000  0.03200  Biso   1.000  O
  C41      1.0000 0.80720  0.50480  0.66350  Biso   1.000  C
  H29      1.0000 0.83100  0.52970  0.63090  Biso   1.000  H
  C42      1.0000 0.82230  0.45850  0.77400  Biso   1.000  C
  H30      1.0000 0.85590  0.45230  0.81380  Biso   1.000  H
  C43      1.0000 0.73370  0.42830  0.76100  Biso   1.000  C
  H31      1.0000 0.70960  0.40350  0.78910  Biso   1.000  H
  C44      1.0000 0.72240  0.47570  0.65500  Biso   1.000  C
  H32      1.0000 0.68890  0.48250  0.61480  Biso   1.000  H
  Zn3      1.0000 0.72720  0.78584  0.91481  Biso   1.000  Zn
  O9       1.0000 0.77890  0.74730  0.08540  Biso   1.000  O
  H33      1.0000 0.79970  0.73630  0.97310  Biso   1.000  H
  N5       1.0000 0.74860  0.85860  0.89700  Biso   1.000  N
  C45      1.0000 0.73220  0.89531  0.04340  Biso   1.000  C
  H34      1.0000 0.70680  0.89160  0.16670  Biso   1.000  H
  N6       1.0000 0.75630  0.93950  0.99590  Biso   1.000  N
  C46      1.0000 0.78689  0.87880  0.74160  Biso   1.000  C
  O10      1.0000 0.72290  0.16670  0.37180  Biso   1.000  O
  C47      1.0000 0.81640  0.85570  0.55500  Biso   1.000  C
  H35      1.0000 0.81240  0.82170  0.51590  Biso   1.000  H
  O11      1.0000 0.68450  0.12880  0.68400  Biso   1.000  O
  C48      1.0000 0.85240  0.88480  0.42690  Biso   1.000  C
  C49      1.0000 0.88260  0.86410  0.23540  Biso   1.000  C
  H36      1.0000 0.87860  0.83030  0.19230  Biso   1.000  H
  C50      1.0000 0.91890  0.89240  0.10530  Biso   1.000  C
  H37      1.0000 0.93920  0.87790  0.97820  Biso   1.000  H
  C51      1.0000 0.92420  0.94340  0.17060  Biso   1.000  C
  H38      1.0000 0.94810  0.96290  0.08490  Biso   1.000  H
  C52      1.0000 0.89430  0.96510  0.36090  Biso   1.000  C
  H39      1.0000 0.89850  0.99900  0.40240  Biso   1.000  H
  C53      1.0000 0.85760  0.93650  0.49210  Biso   1.000  C
  C54      1.0000 0.82810  0.95970  0.68250  Biso   1.000  C
  H40      1.0000 0.83230  0.99350  0.72510  Biso   1.000  H
  C55      1.0000 0.79220  0.93000  0.80490  Biso   1.000  C
  C56      1.0000 0.74252  0.98680  0.10390  Biso   1.000  C
  C57      1.0000 0.71510  0.07820  0.32220  Biso   1.000  C
  C58      1.0000 0.72250  0.98920  0.35200  Biso   1.000  C
  H41      1.0000 0.71830  0.95950  0.44530  Biso   1.000  H
  C59      1.0000 0.70860  0.03410  0.46620  Biso   1.000  C
  H42      1.0000 0.69540  0.03500  0.63370  Biso   1.000  H
  C60      1.0000 0.73530  0.07780  0.07490  Biso   1.000  C
  H43      1.0000 0.74000  0.10760  0.98270  Biso   1.000  H
  C61      1.0000 0.74850  0.03210  0.96790  Biso   1.000  C
  H44      1.0000 0.76170  0.03130  0.80030  Biso   1.000  H
  C62      1.0000 0.70180  0.12790  0.44800  Biso   1.000  C
  O12      1.0000 0.65500  0.13000  0.53200  Biso   1.000  O
  C63      1.0000 0.69280  0.99520  0.16350  Biso   1.000  C
  H45      1.0000 0.66900  0.97030  0.13090  Biso   1.000  H
  C64      1.0000 0.67770  0.04150  0.27400  Biso   1.000  C
  H46      1.0000 0.64410  0.04770  0.31380  Biso   1.000  H
  C65      1.0000 0.76630  0.07170  0.26100  Biso   1.000  C
  H47      1.0000 0.79040  0.09650  0.28910  Biso   1.000  H
  C66      1.0000 0.77760  0.02430  0.15500  Biso   1.000  C
  H48      1.0000 0.81110  0.01750  0.11480  Biso   1.000  H
  Zn4      1.0000 0.22720  0.28584  0.41481  Biso   1.000  Zn
  O13      1.0000 0.27890  0.24730  0.58540  Biso   1.000  O
  H49      1.0000 0.29970  0.23630  0.47310  Biso   1.000  H
  N7       1.0000 0.24860  0.35860  0.39700  Biso   1.000  N
  C67      1.0000 0.23220  0.39531  0.54340  Biso   1.000  C
  H50      1.0000 0.20680  0.39160  0.66670  Biso   1.000  H
  N8       1.0000 0.25630  0.43950  0.49590  Biso   1.000  N
  C68      1.0000 0.28689  0.37880  0.24160  Biso   1.000  C
  O14      1.0000 0.22290  0.66670  0.87180  Biso   1.000  O
  C69      1.0000 0.31640  0.35570  0.05500  Biso   1.000  C
  H51      1.0000 0.31240  0.32170  0.01590  Biso   1.000  H
  O15      1.0000 0.18450  0.62880  0.18400  Biso   1.000  O
  C70      1.0000 0.35240  0.38480  0.92690  Biso   1.000  C
  C71      1.0000 0.38260  0.36410  0.73540  Biso   1.000  C
  H52      1.0000 0.37860  0.33030  0.69230  Biso   1.000  H
  C72      1.0000 0.41890  0.39240  0.60530  Biso   1.000  C
  H53      1.0000 0.43920  0.37790  0.47820  Biso   1.000  H
  C73      1.0000 0.42420  0.44340  0.67060  Biso   1.000  C
  H54      1.0000 0.44810  0.46290  0.58490  Biso   1.000  H
  C74      1.0000 0.39430  0.46510  0.86090  Biso   1.000  C
  H55      1.0000 0.39850  0.49900  0.90240  Biso   1.000  H
  C75      1.0000 0.35760  0.43650  0.99210  Biso   1.000  C
  C76      1.0000 0.32810  0.45970  0.18250  Biso   1.000  C
  H56      1.0000 0.33230  0.49350  0.22510  Biso   1.000  H
  C77      1.0000 0.29220  0.43000  0.30490  Biso   1.000  C
  C78      1.0000 0.24252  0.48680  0.60390  Biso   1.000  C
  C79      1.0000 0.21510  0.57820  0.82220  Biso   1.000  C
  C80      1.0000 0.22250  0.48920  0.85200  Biso   1.000  C
  H57      1.0000 0.21830  0.45950  0.94530  Biso   1.000  H
  C81      1.0000 0.20860  0.53410  0.96620  Biso   1.000  C
  H58      1.0000 0.19540  0.53500  0.13370  Biso   1.000  H
  C82      1.0000 0.23530  0.57780  0.57490  Biso   1.000  C
  H59      1.0000 0.24000  0.60760  0.48270  Biso   1.000  H
  C83      1.0000 0.24850  0.53210  0.46790  Biso   1.000  C
  H60      1.0000 0.26170  0.53130  0.30030  Biso   1.000  H
  C84      1.0000 0.20180  0.62790  0.94800  Biso   1.000  C
  O16      1.0000 0.15500  0.63000  0.03200  Biso   1.000  O
  C85      1.0000 0.19280  0.49520  0.66350  Biso   1.000  C
  H61      1.0000 0.16900  0.47030  0.63090  Biso   1.000  H
  C86      1.0000 0.17770  0.54150  0.77400  Biso   1.000  C
  H62      1.0000 0.14410  0.54770  0.81380  Biso   1.000  H
  C87      1.0000 0.26630  0.57170  0.76100  Biso   1.000  C
  H63      1.0000 0.29040  0.59650  0.78910  Biso   1.000  H
  C88      1.0000 0.27760  0.52430  0.65500  Biso   1.000  C
  H64      1.0000 0.31110  0.51750  0.61480  Biso   1.000  H
  Zn5      1.0000 0.21416  0.72720  0.08519  Biso   1.000  Zn
  O17      1.0000 0.25270  0.77890  0.91460  Biso   1.000  O
  H65      1.0000 0.26370  0.79970  0.02690  Biso   1.000  H
  N9       1.0000 0.14140  0.74860  0.10300  Biso   1.000  N
  C89      1.0000 0.10469  0.73220  0.95660  Biso   1.000  C
  H66      1.0000 0.10840  0.70680  0.83330  Biso   1.000  H
  N10      1.0000 0.06050  0.75630  0.00410  Biso   1.000  N
  C90      1.0000 0.12120  0.78689  0.25840  Biso   1.000  C
  O18      1.0000 0.83330  0.72290  0.62820  Biso   1.000  O
  C91      1.0000 0.14430  0.81640  0.44500  Biso   1.000  C
  H67      1.0000 0.17830  0.81240  0.48410  Biso   1.000  H
  O19      1.0000 0.87120  0.68450  0.31600  Biso   1.000  O
  C92      1.0000 0.11520  0.85240  0.57310  Biso   1.000  C
  C93      1.0000 0.13590  0.88260  0.76460  Biso   1.000  C
  H68      1.0000 0.16970  0.87860  0.80770  Biso   1.000  H
  C94      1.0000 0.10760  0.91890  0.89470  Biso   1.000  C
  H69      1.0000 0.12210  0.93920  0.02180  Biso   1.000  H
  C95      1.0000 0.05660  0.92420  0.82940  Biso   1.000  C
  H70      1.0000 0.03710  0.94810  0.91510  Biso   1.000  H
  C96      1.0000 0.03490  0.89430  0.63910  Biso   1.000  C
  H71      1.0000 0.00100  0.89850  0.59760  Biso   1.000  H
  C97      1.0000 0.06350  0.85760  0.50790  Biso   1.000  C
  C98      1.0000 0.04030  0.82810  0.31750  Biso   1.000  C
  H72      1.0000 0.00650  0.83230  0.27490  Biso   1.000  H
  C99      1.0000 0.07000  0.79220  0.19510  Biso   1.000  C
  C100     1.0000 0.01320  0.74252  0.89610  Biso   1.000  C
  C101     1.0000 0.92180  0.71510  0.67780  Biso   1.000  C
  C102     1.0000 0.01080  0.72250  0.64800  Biso   1.000  C
  H73      1.0000 0.04050  0.71830  0.55470  Biso   1.000  H
  C103     1.0000 0.96590  0.70860  0.53380  Biso   1.000  C
  H74      1.0000 0.96500  0.69540  0.36630  Biso   1.000  H
  C104     1.0000 0.92220  0.73530  0.92510  Biso   1.000  C
  H75      1.0000 0.89240  0.74000  0.01730  Biso   1.000  H
  C105     1.0000 0.96790  0.74850  0.03210  Biso   1.000  C
  H76      1.0000 0.96870  0.76170  0.19970  Biso   1.000  H
  C106     1.0000 0.87210  0.70180  0.55200  Biso   1.000  C
  O20      1.0000 0.87000  0.65500  0.46800  Biso   1.000  O
  C107     1.0000 0.00480  0.69280  0.83650  Biso   1.000  C
  H77      1.0000 0.02970  0.66900  0.86910  Biso   1.000  H
  C108     1.0000 0.95850  0.67770  0.72600  Biso   1.000  C
  H78      1.0000 0.95230  0.64410  0.68620  Biso   1.000  H
  C109     1.0000 0.92830  0.76630  0.73900  Biso   1.000  C
  H79      1.0000 0.90350  0.79040  0.71090  Biso   1.000  H
  C110     1.0000 0.97570  0.77760  0.84500  Biso   1.000  C
  H80      1.0000 0.98250  0.81110  0.88520  Biso   1.000  H
  Zn6      1.0000 0.71416  0.22720  0.58519  Biso   1.000  Zn
  O21      1.0000 0.75270  0.27890  0.41460  Biso   1.000  O
  H81      1.0000 0.76370  0.29970  0.52690  Biso   1.000  H
  N11      1.0000 0.64140  0.24860  0.60300  Biso   1.000  N
  C111     1.0000 0.60469  0.23220  0.45660  Biso   1.000  C
  H82      1.0000 0.60840  0.20680  0.33330  Biso   1.000  H
  N12      1.0000 0.56050  0.25630  0.50410  Biso   1.000  N
  C112     1.0000 0.62120  0.28689  0.75840  Biso   1.000  C
  O22      1.0000 0.33330  0.22290  0.12820  Biso   1.000  O
  C113     1.0000 0.64430  0.31640  0.94500  Biso   1.000  C
  H83      1.0000 0.67830  0.31240  0.98410  Biso   1.000  H
  O23      1.0000 0.37120  0.18450  0.81600  Biso   1.000  O
  C114     1.0000 0.61520  0.35240  0.07310  Biso   1.000  C
  C115     1.0000 0.63590  0.38260  0.26460  Biso   1.000  C
  H84      1.0000 0.66970  0.37860  0.30770  Biso   1.000  H
  C116     1.0000 0.60760  0.41890  0.39470  Biso   1.000  C
  H85      1.0000 0.62210  0.43920  0.52180  Biso   1.000  H
  C117     1.0000 0.55660  0.42420  0.32940  Biso   1.000  C
  H86      1.0000 0.53710  0.44810  0.41510  Biso   1.000  H
  C118     1.0000 0.53490  0.39430  0.13910  Biso   1.000  C
  H87      1.0000 0.50100  0.39850  0.09760  Biso   1.000  H
  C119     1.0000 0.56350  0.35760  0.00790  Biso   1.000  C
  C120     1.0000 0.54030  0.32810  0.81750  Biso   1.000  C
  H88      1.0000 0.50650  0.33230  0.77490  Biso   1.000  H
  C121     1.0000 0.57000  0.29220  0.69510  Biso   1.000  C
  C122     1.0000 0.51320  0.24252  0.39610  Biso   1.000  C
  C123     1.0000 0.42180  0.21510  0.17780  Biso   1.000  C
  C124     1.0000 0.51080  0.22250  0.14800  Biso   1.000  C
  H89      1.0000 0.54050  0.21830  0.05470  Biso   1.000  H
  C125     1.0000 0.46590  0.20860  0.03380  Biso   1.000  C
  H90      1.0000 0.46500  0.19540  0.86630  Biso   1.000  H
  C126     1.0000 0.42220  0.23530  0.42510  Biso   1.000  C
  H91      1.0000 0.39240  0.24000  0.51730  Biso   1.000  H
  C127     1.0000 0.46790  0.24850  0.53210  Biso   1.000  C
  H92      1.0000 0.46870  0.26170  0.69970  Biso   1.000  H
  C128     1.0000 0.37210  0.20180  0.05200  Biso   1.000  C
  O24      1.0000 0.37000  0.15500  0.96800  Biso   1.000  O
  C129     1.0000 0.50480  0.19280  0.33650  Biso   1.000  C
  H93      1.0000 0.52970  0.16900  0.36910  Biso   1.000  H
  C130     1.0000 0.45850  0.17770  0.22600  Biso   1.000  C
  H94      1.0000 0.45230  0.14410  0.18620  Biso   1.000  H
  C131     1.0000 0.42830  0.26630  0.23900  Biso   1.000  C
  H95      1.0000 0.40350  0.29040  0.21090  Biso   1.000  H
  C132     1.0000 0.47570  0.27760  0.34500  Biso   1.000  C
  H96      1.0000 0.48250  0.31110  0.38520  Biso   1.000  H
  Zn7      1.0000 0.78584  0.27280  0.08519  Biso   1.000  Zn
  O25      1.0000 0.74730  0.22110  0.91460  Biso   1.000  O
  H97      1.0000 0.73630  0.20030  0.02690  Biso   1.000  H
  N13      1.0000 0.85860  0.25140  0.10300  Biso   1.000  N
  C133     1.0000 0.89531  0.26780  0.95660  Biso   1.000  C
  H98      1.0000 0.89160  0.29320  0.83330  Biso   1.000  H
  N14      1.0000 0.93950  0.24370  0.00410  Biso   1.000  N
  C134     1.0000 0.87880  0.21311  0.25840  Biso   1.000  C
  O26      1.0000 0.16670  0.27710  0.62820  Biso   1.000  O
  C135     1.0000 0.85570  0.18360  0.44500  Biso   1.000  C
  H99      1.0000 0.82170  0.18760  0.48410  Biso   1.000  H
  O27      1.0000 0.12880  0.31550  0.31600  Biso   1.000  O
  C136     1.0000 0.88480  0.14760  0.57310  Biso   1.000  C
  C137     1.0000 0.86410  0.11740  0.76460  Biso   1.000  C
  H100     1.0000 0.83030  0.12140  0.80770  Biso   1.000  H
  C138     1.0000 0.89240  0.08110  0.89470  Biso   1.000  C
  H101     1.0000 0.87790  0.06080  0.02180  Biso   1.000  H
  C139     1.0000 0.94340  0.07580  0.82940  Biso   1.000  C
  H102     1.0000 0.96290  0.05190  0.91510  Biso   1.000  H
  C140     1.0000 0.96510  0.10570  0.63910  Biso   1.000  C
  H103     1.0000 0.99900  0.10150  0.59760  Biso   1.000  H
  C141     1.0000 0.93650  0.14240  0.50790  Biso   1.000  C
  C142     1.0000 0.95970  0.17190  0.31750  Biso   1.000  C
  H104     1.0000 0.99350  0.16770  0.27490  Biso   1.000  H
  C143     1.0000 0.93000  0.20780  0.19510  Biso   1.000  C
  C144     1.0000 0.98680  0.25748  0.89610  Biso   1.000  C
  C145     1.0000 0.07820  0.28490  0.67780  Biso   1.000  C
  C146     1.0000 0.98920  0.27750  0.64800  Biso   1.000  C
  H105     1.0000 0.95950  0.28170  0.55470  Biso   1.000  H
  C147     1.0000 0.03410  0.29140  0.53380  Biso   1.000  C
  H106     1.0000 0.03500  0.30460  0.36630  Biso   1.000  H
  C148     1.0000 0.07780  0.26470  0.92510  Biso   1.000  C
  H107     1.0000 0.10760  0.26000  0.01730  Biso   1.000  H
  C149     1.0000 0.03210  0.25150  0.03210  Biso   1.000  C
  H108     1.0000 0.03130  0.23830  0.19970  Biso   1.000  H
  C150     1.0000 0.12790  0.29820  0.55200  Biso   1.000  C
  O28      1.0000 0.13000  0.34500  0.46800  Biso   1.000  O
  C151     1.0000 0.99520  0.30720  0.83650  Biso   1.000  C
  H109     1.0000 0.97030  0.33100  0.86910  Biso   1.000  H
  C152     1.0000 0.04150  0.32230  0.72600  Biso   1.000  C
  H110     1.0000 0.04770  0.35590  0.68620  Biso   1.000  H
  C153     1.0000 0.07170  0.23370  0.73900  Biso   1.000  C
  H111     1.0000 0.09650  0.20960  0.71090  Biso   1.000  H
  C154     1.0000 0.02430  0.22240  0.84500  Biso   1.000  C
  H112     1.0000 0.01750  0.18890  0.88520  Biso   1.000  H
  Zn8      1.0000 0.28584  0.77280  0.58519  Biso   1.000  Zn
  O29      1.0000 0.24730  0.72110  0.41460  Biso   1.000  O
  H113     1.0000 0.23630  0.70030  0.52690  Biso   1.000  H
  N15      1.0000 0.35860  0.75140  0.60300  Biso   1.000  N
  C155     1.0000 0.39531  0.76780  0.45660  Biso   1.000  C
  H114     1.0000 0.39160  0.79320  0.33330  Biso   1.000  H
  N16      1.0000 0.43950  0.74370  0.50410  Biso   1.000  N
  C156     1.0000 0.37880  0.71311  0.75840  Biso   1.000  C
  O30      1.0000 0.66670  0.77710  0.12820  Biso   1.000  O
  C157     1.0000 0.35570  0.68360  0.94500  Biso   1.000  C
  H115     1.0000 0.32170  0.68760  0.98410  Biso   1.000  H
  O31      1.0000 0.62880  0.81550  0.81600  Biso   1.000  O
  C158     1.0000 0.38480  0.64760  0.07310  Biso   1.000  C
  C159     1.0000 0.36410  0.61740  0.26460  Biso   1.000  C
  H116     1.0000 0.33030  0.62140  0.30770  Biso   1.000  H
  C160     1.0000 0.39240  0.58110  0.39470  Biso   1.000  C
  H117     1.0000 0.37790  0.56080  0.52180  Biso   1.000  H
  C161     1.0000 0.44340  0.57580  0.32940  Biso   1.000  C
  H118     1.0000 0.46290  0.55190  0.41510  Biso   1.000  H
  C162     1.0000 0.46510  0.60570  0.13910  Biso   1.000  C
  H119     1.0000 0.49900  0.60150  0.09760  Biso   1.000  H
  C163     1.0000 0.43650  0.64240  0.00790  Biso   1.000  C
  C164     1.0000 0.45970  0.67190  0.81750  Biso   1.000  C
  H120     1.0000 0.49350  0.66770  0.77490  Biso   1.000  H
  C165     1.0000 0.43000  0.70780  0.69510  Biso   1.000  C
  C166     1.0000 0.48680  0.75748  0.39610  Biso   1.000  C
  C167     1.0000 0.57820  0.78490  0.17780  Biso   1.000  C
  C168     1.0000 0.48920  0.77750  0.14800  Biso   1.000  C
  H121     1.0000 0.45950  0.78170  0.05470  Biso   1.000  H
  C169     1.0000 0.53410  0.79140  0.03380  Biso   1.000  C
  H122     1.0000 0.53500  0.80460  0.86630  Biso   1.000  H
  C170     1.0000 0.57780  0.76470  0.42510  Biso   1.000  C
  H123     1.0000 0.60760  0.76000  0.51730  Biso   1.000  H
  C171     1.0000 0.53210  0.75150  0.53210  Biso   1.000  C
  H124     1.0000 0.53130  0.73830  0.69970  Biso   1.000  H
  C172     1.0000 0.62790  0.79820  0.05200  Biso   1.000  C
  O32      1.0000 0.63000  0.84500  0.96800  Biso   1.000  O
  C173     1.0000 0.49520  0.80720  0.33650  Biso   1.000  C
  H125     1.0000 0.47030  0.83100  0.36910  Biso   1.000  H
  C174     1.0000 0.54150  0.82230  0.22600  Biso   1.000  C
  H126     1.0000 0.54770  0.85590  0.18620  Biso   1.000  H
  C175     1.0000 0.57170  0.73370  0.23900  Biso   1.000  C
  H127     1.0000 0.59650  0.70960  0.21090  Biso   1.000  H
  C176     1.0000 0.52430  0.72240  0.34500  Biso   1.000  C
  H128     1.0000 0.51750  0.68890  0.38520  Biso   1.000  H
