data_image0
_cell_length_a       26.262
_cell_length_b       26.262
_cell_length_c       5.071
_cell_angle_alpha    90
_cell_angle_beta     90
_cell_angle_gamma    90

_symmetry_space_group_name_H-M    "P 1"
_symmetry_int_tables_number       1

loop_
  _symmetry_equiv_pos_as_xyz
  'x, y, z'

loop_
  _atom_site_label
  _atom_site_occupancy
  _atom_site_fract_x
  _atom_site_fract_y
  _atom_site_fract_z
  _atom_site_thermal_displace_type
  _atom_site_B_iso_or_equiv
  _atom_site_type_symbol
  Zn1      1.0000 0.27419  0.21467  0.87220  Biso   1.000  Zn
  O1       1.0000 0.22000  0.24990  0.04100  Biso   1.000  O
  H1       1.0000 0.19890  0.26110  0.92770  Biso   1.000  H
  N1       1.0000 0.25520  0.14260  0.86900  Biso   1.000  N
  C1       1.0000 0.27120  0.10650  0.02500  Biso   1.000  C
  H2       1.0000 0.29760  0.11030  0.14630  Biso   1.000  H
  N2       1.0000 0.24480  0.06260  0.99000  Biso   1.000  N
  C2       1.0000 0.21500  0.11920  0.72400  Biso   1.000  C
  O2       1.0000 0.27270  0.83400  0.42000  Biso   1.000  O
  C3       1.0000 0.18550  0.14190  0.53100  Biso   1.000  C
  H3       1.0000 0.19070  0.17570  0.48460  Biso   1.000  H
  O3       1.0000 0.32080  0.87620  0.71500  Biso   1.000  O
  C4       1.0000 0.14800  0.11340  0.40900  Biso   1.000  C
  C5       1.0000 0.11740  0.13410  0.21500  Biso   1.000  C
  H4       1.0000 0.12230  0.16790  0.16700  Biso   1.000  H
  C6       1.0000 0.07950  0.10630  0.09000  Biso   1.000  C
  H5       1.0000 0.05940  0.12100  0.95990  Biso   1.000  H
  C7       1.0000 0.07250  0.05590  0.16500  Biso   1.000  C
  H6       1.0000 0.04740  0.03630  0.08520  Biso   1.000  H
  C8       1.0000 0.10320  0.03510  0.36000  Biso   1.000  C
  H7       1.0000 0.09820  0.00140  0.40880  Biso   1.000  H
  C9       1.0000 0.14100  0.06310  0.48400  Biso   1.000  C
  C10      1.0000 0.17010  0.04030  0.67700  Biso   1.000  C
  H8       1.0000 0.16570  0.00610  0.71870  Biso   1.000  H
  C11      1.0000 0.20610  0.06960  0.80600  Biso   1.000  C
  C12      1.0000 0.25760  0.01450  0.11100  Biso   1.000  C
  C13      1.0000 0.28240  0.92470  0.34800  Biso   1.000  C
  C14      1.0000 0.28110  0.01430  0.35500  Biso   1.000  C
  H9       1.0000 0.28830  0.04510  0.43750  Biso   1.000  H
  C15      1.0000 0.29390  0.96940  0.47800  Biso   1.000  C
  H10      1.0000 0.30970  0.96920  0.64270  Biso   1.000  H
  C16      1.0000 0.25900  0.92310  0.10600  Biso   1.000  C
  H11      1.0000 0.25150  0.89230  0.02410  Biso   1.000  H
  C17      1.0000 0.24690  0.96880  0.99000  Biso   1.000  C
  H12      1.0000 0.23120  0.96890  0.82530  Biso   1.000  H
  C18      1.0000 0.28920  0.87510  0.49400  Biso   1.000  C
  O4       1.0000 0.34600  0.87500  0.51900  Biso   1.000  O
  C19      1.0000 0.30680  0.00650  0.19200  Biso   1.000  C
  H13      1.0000 0.33110  0.03170  0.16440  Biso   1.000  H
  C20      1.0000 0.32100  0.96090  0.31400  Biso   1.000  C
  H14      1.0000 0.35420  0.95490  0.36860  Biso   1.000  H
  C21      1.0000 0.23140  0.92950  0.27200  Biso   1.000  C
  H15      1.0000 0.20690  0.90440  0.29800  Biso   1.000  H
  C22      1.0000 0.22170  0.97640  0.15300  Biso   1.000  C
  H16      1.0000 0.18850  0.98260  0.09770  Biso   1.000  H
  Zn2      1.0000 0.77419  0.71467  0.37220  Biso   1.000  Zn
  O5       1.0000 0.72000  0.74990  0.54100  Biso   1.000  O
  H17      1.0000 0.69890  0.76110  0.42770  Biso   1.000  H
  N3       1.0000 0.75520  0.64260  0.36900  Biso   1.000  N
  C23      1.0000 0.77120  0.60650  0.52500  Biso   1.000  C
  H18      1.0000 0.79760  0.61030  0.64630  Biso   1.000  H
  N4       1.0000 0.74480  0.56260  0.49000  Biso   1.000  N
  C24      1.0000 0.71500  0.61920  0.22400  Biso   1.000  C
  O6       1.0000 0.77270  0.33400  0.92000  Biso   1.000  O
  C25      1.0000 0.68550  0.64190  0.03100  Biso   1.000  C
  H19      1.0000 0.69070  0.67570  0.98460  Biso   1.000  H
  O7       1.0000 0.82080  0.37620  0.21500  Biso   1.000  O
  C26      1.0000 0.64800  0.61340  0.90900  Biso   1.000  C
  C27      1.0000 0.61740  0.63410  0.71500  Biso   1.000  C
  H20      1.0000 0.62230  0.66790  0.66700  Biso   1.000  H
  C28      1.0000 0.57950  0.60630  0.59000  Biso   1.000  C
  H21      1.0000 0.55940  0.62100  0.45990  Biso   1.000  H
  C29      1.0000 0.57250  0.55590  0.66500  Biso   1.000  C
  H22      1.0000 0.54740  0.53630  0.58520  Biso   1.000  H
  C30      1.0000 0.60320  0.53510  0.86000  Biso   1.000  C
  H23      1.0000 0.59820  0.50140  0.90880  Biso   1.000  H
  C31      1.0000 0.64100  0.56310  0.98400  Biso   1.000  C
  C32      1.0000 0.67010  0.54030  0.17700  Biso   1.000  C
  H24      1.0000 0.66570  0.50610  0.21870  Biso   1.000  H
  C33      1.0000 0.70610  0.56960  0.30600  Biso   1.000  C
  C34      1.0000 0.75760  0.51450  0.61100  Biso   1.000  C
  C35      1.0000 0.78240  0.42470  0.84800  Biso   1.000  C
  C36      1.0000 0.78110  0.51430  0.85500  Biso   1.000  C
  H25      1.0000 0.78830  0.54510  0.93750  Biso   1.000  H
  C37      1.0000 0.79390  0.46940  0.97800  Biso   1.000  C
  H26      1.0000 0.80970  0.46920  0.14270  Biso   1.000  H
  C38      1.0000 0.75900  0.42310  0.60600  Biso   1.000  C
  H27      1.0000 0.75150  0.39230  0.52410  Biso   1.000  H
  C39      1.0000 0.74690  0.46880  0.49000  Biso   1.000  C
  H28      1.0000 0.73120  0.46890  0.32530  Biso   1.000  H
  C40      1.0000 0.78920  0.37510  0.99400  Biso   1.000  C
  O8       1.0000 0.84600  0.37500  0.01900  Biso   1.000  O
  C41      1.0000 0.80680  0.50650  0.69200  Biso   1.000  C
  H29      1.0000 0.83110  0.53170  0.66440  Biso   1.000  H
  C42      1.0000 0.82100  0.46090  0.81400  Biso   1.000  C
  H30      1.0000 0.85420  0.45490  0.86860  Biso   1.000  H
  C43      1.0000 0.73140  0.42950  0.77200  Biso   1.000  C
  H31      1.0000 0.70690  0.40440  0.79800  Biso   1.000  H
  C44      1.0000 0.72170  0.47640  0.65300  Biso   1.000  C
  H32      1.0000 0.68850  0.48260  0.59770  Biso   1.000  H
  Zn3      1.0000 0.72581  0.78533  0.87220  Biso   1.000  Zn
  O9       1.0000 0.78000  0.75010  0.04100  Biso   1.000  O
  H33      1.0000 0.80110  0.73890  0.92770  Biso   1.000  H
  N5       1.0000 0.74480  0.85740  0.86900  Biso   1.000  N
  C45      1.0000 0.72880  0.89350  0.02500  Biso   1.000  C
  H34      1.0000 0.70240  0.88970  0.14630  Biso   1.000  H
  N6       1.0000 0.75520  0.93740  0.99000  Biso   1.000  N
  C46      1.0000 0.78500  0.88080  0.72400  Biso   1.000  C
  O10      1.0000 0.72730  0.16600  0.42000  Biso   1.000  O
  C47      1.0000 0.81450  0.85810  0.53100  Biso   1.000  C
  H35      1.0000 0.80930  0.82430  0.48460  Biso   1.000  H
  O11      1.0000 0.67920  0.12380  0.71500  Biso   1.000  O
  C48      1.0000 0.85200  0.88660  0.40900  Biso   1.000  C
  C49      1.0000 0.88260  0.86590  0.21500  Biso   1.000  C
  H36      1.0000 0.87770  0.83210  0.16700  Biso   1.000  H
  C50      1.0000 0.92050  0.89370  0.09000  Biso   1.000  C
  H37      1.0000 0.94060  0.87900  0.95990  Biso   1.000  H
  C51      1.0000 0.92750  0.94410  0.16500  Biso   1.000  C
  H38      1.0000 0.95260  0.96370  0.08520  Biso   1.000  H
  C52      1.0000 0.89680  0.96490  0.36000  Biso   1.000  C
  H39      1.0000 0.90180  0.99860  0.40880  Biso   1.000  H
  C53      1.0000 0.85900  0.93690  0.48400  Biso   1.000  C
  C54      1.0000 0.82990  0.95970  0.67700  Biso   1.000  C
  H40      1.0000 0.83430  0.99390  0.71870  Biso   1.000  H
  C55      1.0000 0.79390  0.93040  0.80600  Biso   1.000  C
  C56      1.0000 0.74240  0.98550  0.11100  Biso   1.000  C
  C57      1.0000 0.71760  0.07530  0.34800  Biso   1.000  C
  C58      1.0000 0.71890  0.98570  0.35500  Biso   1.000  C
  H41      1.0000 0.71170  0.95490  0.43750  Biso   1.000  H
  C59      1.0000 0.70610  0.03060  0.47800  Biso   1.000  C
  H42      1.0000 0.69030  0.03080  0.64270  Biso   1.000  H
  C60      1.0000 0.74100  0.07690  0.10600  Biso   1.000  C
  H43      1.0000 0.74850  0.10770  0.02410  Biso   1.000  H
  C61      1.0000 0.75310  0.03120  0.99000  Biso   1.000  C
  H44      1.0000 0.76880  0.03110  0.82530  Biso   1.000  H
  C62      1.0000 0.71080  0.12490  0.49400  Biso   1.000  C
  O12      1.0000 0.65400  0.12500  0.51900  Biso   1.000  O
  C63      1.0000 0.69320  0.99350  0.19200  Biso   1.000  C
  H45      1.0000 0.66890  0.96830  0.16440  Biso   1.000  H
  C64      1.0000 0.67900  0.03910  0.31400  Biso   1.000  C
  H46      1.0000 0.64580  0.04510  0.36860  Biso   1.000  H
  C65      1.0000 0.76860  0.07050  0.27200  Biso   1.000  C
  H47      1.0000 0.79310  0.09560  0.29800  Biso   1.000  H
  C66      1.0000 0.77830  0.02360  0.15300  Biso   1.000  C
  H48      1.0000 0.81150  0.01740  0.09770  Biso   1.000  H
  Zn4      1.0000 0.22581  0.28533  0.37220  Biso   1.000  Zn
  O13      1.0000 0.28000  0.25010  0.54100  Biso   1.000  O
  H49      1.0000 0.30110  0.23890  0.42770  Biso   1.000  H
  N7       1.0000 0.24480  0.35740  0.36900  Biso   1.000  N
  C67      1.0000 0.22880  0.39350  0.52500  Biso   1.000  C
  H50      1.0000 0.20240  0.38970  0.64630  Biso   1.000  H
  N8       1.0000 0.25520  0.43740  0.49000  Biso   1.000  N
  C68      1.0000 0.28500  0.38080  0.22400  Biso   1.000  C
  O14      1.0000 0.22730  0.66600  0.92000  Biso   1.000  O
  C69      1.0000 0.31450  0.35810  0.03100  Biso   1.000  C
  H51      1.0000 0.30930  0.32430  0.98460  Biso   1.000  H
  O15      1.0000 0.17920  0.62380  0.21500  Biso   1.000  O
  C70      1.0000 0.35200  0.38660  0.90900  Biso   1.000  C
  C71      1.0000 0.38260  0.36590  0.71500  Biso   1.000  C
  H52      1.0000 0.37770  0.33210  0.66700  Biso   1.000  H
  C72      1.0000 0.42050  0.39370  0.59000  Biso   1.000  C
  H53      1.0000 0.44060  0.37900  0.45990  Biso   1.000  H
  C73      1.0000 0.42750  0.44410  0.66500  Biso   1.000  C
  H54      1.0000 0.45260  0.46370  0.58520  Biso   1.000  H
  C74      1.0000 0.39680  0.46490  0.86000  Biso   1.000  C
  H55      1.0000 0.40180  0.49860  0.90880  Biso   1.000  H
  C75      1.0000 0.35900  0.43690  0.98400  Biso   1.000  C
  C76      1.0000 0.32990  0.45970  0.17700  Biso   1.000  C
  H56      1.0000 0.33430  0.49390  0.21870  Biso   1.000  H
  C77      1.0000 0.29390  0.43040  0.30600  Biso   1.000  C
  C78      1.0000 0.24240  0.48550  0.61100  Biso   1.000  C
  C79      1.0000 0.21760  0.57530  0.84800  Biso   1.000  C
  C80      1.0000 0.21890  0.48570  0.85500  Biso   1.000  C
  H57      1.0000 0.21170  0.45490  0.93750  Biso   1.000  H
  C81      1.0000 0.20610  0.53060  0.97800  Biso   1.000  C
  H58      1.0000 0.19030  0.53080  0.14270  Biso   1.000  H
  C82      1.0000 0.24100  0.57690  0.60600  Biso   1.000  C
  H59      1.0000 0.24850  0.60770  0.52410  Biso   1.000  H
  C83      1.0000 0.25310  0.53120  0.49000  Biso   1.000  C
  H60      1.0000 0.26880  0.53110  0.32530  Biso   1.000  H
  C84      1.0000 0.21080  0.62490  0.99400  Biso   1.000  C
  O16      1.0000 0.15400  0.62500  0.01900  Biso   1.000  O
  C85      1.0000 0.19320  0.49350  0.69200  Biso   1.000  C
  H61      1.0000 0.16890  0.46830  0.66440  Biso   1.000  H
  C86      1.0000 0.17900  0.53910  0.81400  Biso   1.000  C
  H62      1.0000 0.14580  0.54510  0.86860  Biso   1.000  H
  C87      1.0000 0.26860  0.57050  0.77200  Biso   1.000  C
  H63      1.0000 0.29310  0.59560  0.79800  Biso   1.000  H
  C88      1.0000 0.27830  0.52360  0.65300  Biso   1.000  C
  H64      1.0000 0.31150  0.51740  0.59770  Biso   1.000  H
  Zn5      1.0000 0.21467  0.72581  0.12780  Biso   1.000  Zn
  O17      1.0000 0.24990  0.78000  0.95900  Biso   1.000  O
  H65      1.0000 0.26110  0.80110  0.07230  Biso   1.000  H
  N9       1.0000 0.14260  0.74480  0.13100  Biso   1.000  N
  C89      1.0000 0.10650  0.72880  0.97500  Biso   1.000  C
  H66      1.0000 0.11030  0.70240  0.85370  Biso   1.000  H
  N10      1.0000 0.06260  0.75520  0.01000  Biso   1.000  N
  C90      1.0000 0.11920  0.78500  0.27600  Biso   1.000  C
  O18      1.0000 0.83400  0.72730  0.58000  Biso   1.000  O
  C91      1.0000 0.14190  0.81450  0.46900  Biso   1.000  C
  H67      1.0000 0.17570  0.80930  0.51540  Biso   1.000  H
  O19      1.0000 0.87620  0.67920  0.28500  Biso   1.000  O
  C92      1.0000 0.11340  0.85200  0.59100  Biso   1.000  C
  C93      1.0000 0.13410  0.88260  0.78500  Biso   1.000  C
  H68      1.0000 0.16790  0.87770  0.83300  Biso   1.000  H
  C94      1.0000 0.10630  0.92050  0.91000  Biso   1.000  C
  H69      1.0000 0.12100  0.94060  0.04010  Biso   1.000  H
  C95      1.0000 0.05590  0.92750  0.83500  Biso   1.000  C
  H70      1.0000 0.03630  0.95260  0.91480  Biso   1.000  H
  C96      1.0000 0.03510  0.89680  0.64000  Biso   1.000  C
  H71      1.0000 0.00140  0.90180  0.59120  Biso   1.000  H
  C97      1.0000 0.06310  0.85900  0.51600  Biso   1.000  C
  C98      1.0000 0.04030  0.82990  0.32300  Biso   1.000  C
  H72      1.0000 0.00610  0.83430  0.28130  Biso   1.000  H
  C99      1.0000 0.06960  0.79390  0.19400  Biso   1.000  C
  C100     1.0000 0.01450  0.74240  0.88900  Biso   1.000  C
  C101     1.0000 0.92470  0.71760  0.65200  Biso   1.000  C
  C102     1.0000 0.01430  0.71890  0.64500  Biso   1.000  C
  H73      1.0000 0.04510  0.71170  0.56250  Biso   1.000  H
  C103     1.0000 0.96940  0.70610  0.52200  Biso   1.000  C
  H74      1.0000 0.96920  0.69030  0.35730  Biso   1.000  H
  C104     1.0000 0.92310  0.74100  0.89400  Biso   1.000  C
  H75      1.0000 0.89230  0.74850  0.97590  Biso   1.000  H
  C105     1.0000 0.96880  0.75310  0.01000  Biso   1.000  C
  H76      1.0000 0.96890  0.76880  0.17470  Biso   1.000  H
  C106     1.0000 0.87510  0.71080  0.50600  Biso   1.000  C
  O20      1.0000 0.87500  0.65400  0.48100  Biso   1.000  O
  C107     1.0000 0.00650  0.69320  0.80800  Biso   1.000  C
  H77      1.0000 0.03170  0.66890  0.83560  Biso   1.000  H
  C108     1.0000 0.96090  0.67900  0.68600  Biso   1.000  C
  H78      1.0000 0.95490  0.64580  0.63140  Biso   1.000  H
  C109     1.0000 0.92950  0.76860  0.72800  Biso   1.000  C
  H79      1.0000 0.90440  0.79310  0.70200  Biso   1.000  H
  C110     1.0000 0.97640  0.77830  0.84700  Biso   1.000  C
  H80      1.0000 0.98260  0.81150  0.90230  Biso   1.000  H
  Zn6      1.0000 0.71467  0.22581  0.62780  Biso   1.000  Zn
  O21      1.0000 0.74990  0.28000  0.45900  Biso   1.000  O
  H81      1.0000 0.76110  0.30110  0.57230  Biso   1.000  H
  N11      1.0000 0.64260  0.24480  0.63100  Biso   1.000  N
  C111     1.0000 0.60650  0.22880  0.47500  Biso   1.000  C
  H82      1.0000 0.61030  0.20240  0.35370  Biso   1.000  H
  N12      1.0000 0.56260  0.25520  0.51000  Biso   1.000  N
  C112     1.0000 0.61920  0.28500  0.77600  Biso   1.000  C
  O22      1.0000 0.33400  0.22730  0.08000  Biso   1.000  O
  C113     1.0000 0.64190  0.31450  0.96900  Biso   1.000  C
  H83      1.0000 0.67570  0.30930  0.01540  Biso   1.000  H
  O23      1.0000 0.37620  0.17920  0.78500  Biso   1.000  O
  C114     1.0000 0.61340  0.35200  0.09100  Biso   1.000  C
  C115     1.0000 0.63410  0.38260  0.28500  Biso   1.000  C
  H84      1.0000 0.66790  0.37770  0.33300  Biso   1.000  H
  C116     1.0000 0.60630  0.42050  0.41000  Biso   1.000  C
  H85      1.0000 0.62100  0.44060  0.54010  Biso   1.000  H
  C117     1.0000 0.55590  0.42750  0.33500  Biso   1.000  C
  H86      1.0000 0.53630  0.45260  0.41480  Biso   1.000  H
  C118     1.0000 0.53510  0.39680  0.14000  Biso   1.000  C
  H87      1.0000 0.50140  0.40180  0.09120  Biso   1.000  H
  C119     1.0000 0.56310  0.35900  0.01600  Biso   1.000  C
  C120     1.0000 0.54030  0.32990  0.82300  Biso   1.000  C
  H88      1.0000 0.50610  0.33430  0.78130  Biso   1.000  H
  C121     1.0000 0.56960  0.29390  0.69400  Biso   1.000  C
  C122     1.0000 0.51450  0.24240  0.38900  Biso   1.000  C
  C123     1.0000 0.42470  0.21760  0.15200  Biso   1.000  C
  C124     1.0000 0.51430  0.21890  0.14500  Biso   1.000  C
  H89      1.0000 0.54510  0.21170  0.06250  Biso   1.000  H
  C125     1.0000 0.46940  0.20610  0.02200  Biso   1.000  C
  H90      1.0000 0.46920  0.19030  0.85730  Biso   1.000  H
  C126     1.0000 0.42310  0.24100  0.39400  Biso   1.000  C
  H91      1.0000 0.39230  0.24850  0.47590  Biso   1.000  H
  C127     1.0000 0.46880  0.25310  0.51000  Biso   1.000  C
  H92      1.0000 0.46890  0.26880  0.67470  Biso   1.000  H
  C128     1.0000 0.37510  0.21080  0.00600  Biso   1.000  C
  O24      1.0000 0.37500  0.15400  0.98100  Biso   1.000  O
  C129     1.0000 0.50650  0.19320  0.30800  Biso   1.000  C
  H93      1.0000 0.53170  0.16890  0.33560  Biso   1.000  H
  C130     1.0000 0.46090  0.17900  0.18600  Biso   1.000  C
  H94      1.0000 0.45490  0.14580  0.13140  Biso   1.000  H
  C131     1.0000 0.42950  0.26860  0.22800  Biso   1.000  C
  H95      1.0000 0.40440  0.29310  0.20200  Biso   1.000  H
  C132     1.0000 0.47640  0.27830  0.34700  Biso   1.000  C
  H96      1.0000 0.48260  0.31150  0.40230  Biso   1.000  H
  Zn7      1.0000 0.78533  0.27419  0.12780  Biso   1.000  Zn
  O25      1.0000 0.75010  0.22000  0.95900  Biso   1.000  O
  H97      1.0000 0.73890  0.19890  0.07230  Biso   1.000  H
  N13      1.0000 0.85740  0.25520  0.13100  Biso   1.000  N
  C133     1.0000 0.89350  0.27120  0.97500  Biso   1.000  C
  H98      1.0000 0.88970  0.29760  0.85370  Biso   1.000  H
  N14      1.0000 0.93740  0.24480  0.01000  Biso   1.000  N
  C134     1.0000 0.88080  0.21500  0.27600  Biso   1.000  C
  O26      1.0000 0.16600  0.27270  0.58000  Biso   1.000  O
  C135     1.0000 0.85810  0.18550  0.46900  Biso   1.000  C
  H99      1.0000 0.82430  0.19070  0.51540  Biso   1.000  H
  O27      1.0000 0.12380  0.32080  0.28500  Biso   1.000  O
  C136     1.0000 0.88660  0.14800  0.59100  Biso   1.000  C
  C137     1.0000 0.86590  0.11740  0.78500  Biso   1.000  C
  H100     1.0000 0.83210  0.12230  0.83300  Biso   1.000  H
  C138     1.0000 0.89370  0.07950  0.91000  Biso   1.000  C
  H101     1.0000 0.87900  0.05940  0.04010  Biso   1.000  H
  C139     1.0000 0.94410  0.07250  0.83500  Biso   1.000  C
  H102     1.0000 0.96370  0.04740  0.91480  Biso   1.000  H
  C140     1.0000 0.96490  0.10320  0.64000  Biso   1.000  C
  H103     1.0000 0.99860  0.09820  0.59120  Biso   1.000  H
  C141     1.0000 0.93690  0.14100  0.51600  Biso   1.000  C
  C142     1.0000 0.95970  0.17010  0.32300  Biso   1.000  C
  H104     1.0000 0.99390  0.16570  0.28130  Biso   1.000  H
  C143     1.0000 0.93040  0.20610  0.19400  Biso   1.000  C
  C144     1.0000 0.98550  0.25760  0.88900  Biso   1.000  C
  C145     1.0000 0.07530  0.28240  0.65200  Biso   1.000  C
  C146     1.0000 0.98570  0.28110  0.64500  Biso   1.000  C
  H105     1.0000 0.95490  0.28830  0.56250  Biso   1.000  H
  C147     1.0000 0.03060  0.29390  0.52200  Biso   1.000  C
  H106     1.0000 0.03080  0.30970  0.35730  Biso   1.000  H
  C148     1.0000 0.07690  0.25900  0.89400  Biso   1.000  C
  H107     1.0000 0.10770  0.25150  0.97590  Biso   1.000  H
  C149     1.0000 0.03120  0.24690  0.01000  Biso   1.000  C
  H108     1.0000 0.03110  0.23120  0.17470  Biso   1.000  H
  C150     1.0000 0.12490  0.28920  0.50600  Biso   1.000  C
  O28      1.0000 0.12500  0.34600  0.48100  Biso   1.000  O
  C151     1.0000 0.99350  0.30680  0.80800  Biso   1.000  C
  H109     1.0000 0.96830  0.33110  0.83560  Biso   1.000  H
  C152     1.0000 0.03910  0.32100  0.68600  Biso   1.000  C
  H110     1.0000 0.04510  0.35420  0.63140  Biso   1.000  H
  C153     1.0000 0.07050  0.23140  0.72800  Biso   1.000  C
  H111     1.0000 0.09560  0.20690  0.70200  Biso   1.000  H
  C154     1.0000 0.02360  0.22170  0.84700  Biso   1.000  C
  H112     1.0000 0.01740  0.18850  0.90230  Biso   1.000  H
  Zn8      1.0000 0.28533  0.77419  0.62780  Biso   1.000  Zn
  O29      1.0000 0.25010  0.72000  0.45900  Biso   1.000  O
  H113     1.0000 0.23890  0.69890  0.57230  Biso   1.000  H
  N15      1.0000 0.35740  0.75520  0.63100  Biso   1.000  N
  C155     1.0000 0.39350  0.77120  0.47500  Biso   1.000  C
  H114     1.0000 0.38970  0.79760  0.35370  Biso   1.000  H
  N16      1.0000 0.43740  0.74480  0.51000  Biso   1.000  N
  C156     1.0000 0.38080  0.71500  0.77600  Biso   1.000  C
  O30      1.0000 0.66600  0.77270  0.08000  Biso   1.000  O
  C157     1.0000 0.35810  0.68550  0.96900  Biso   1.000  C
  H115     1.0000 0.32430  0.69070  0.01540  Biso   1.000  H
  O31      1.0000 0.62380  0.82080  0.78500  Biso   1.000  O
  C158     1.0000 0.38660  0.64800  0.09100  Biso   1.000  C
  C159     1.0000 0.36590  0.61740  0.28500  Biso   1.000  C
  H116     1.0000 0.33210  0.62230  0.33300  Biso   1.000  H
  C160     1.0000 0.39370  0.57950  0.41000  Biso   1.000  C
  H117     1.0000 0.37900  0.55940  0.54010  Biso   1.000  H
  C161     1.0000 0.44410  0.57250  0.33500  Biso   1.000  C
  H118     1.0000 0.46370  0.54740  0.41480  Biso   1.000  H
  C162     1.0000 0.46490  0.60320  0.14000  Biso   1.000  C
  H119     1.0000 0.49860  0.59820  0.09120  Biso   1.000  H
  C163     1.0000 0.43690  0.64100  0.01600  Biso   1.000  C
  C164     1.0000 0.45970  0.67010  0.82300  Biso   1.000  C
  H120     1.0000 0.49390  0.66570  0.78130  Biso   1.000  H
  C165     1.0000 0.43040  0.70610  0.69400  Biso   1.000  C
  C166     1.0000 0.48550  0.75760  0.38900  Biso   1.000  C
  C167     1.0000 0.57530  0.78240  0.15200  Biso   1.000  C
  C168     1.0000 0.48570  0.78110  0.14500  Biso   1.000  C
  H121     1.0000 0.45490  0.78830  0.06250  Biso   1.000  H
  C169     1.0000 0.53060  0.79390  0.02200  Biso   1.000  C
  H122     1.0000 0.53080  0.80970  0.85730  Biso   1.000  H
  C170     1.0000 0.57690  0.75900  0.39400  Biso   1.000  C
  H123     1.0000 0.60770  0.75150  0.47590  Biso   1.000  H
  C171     1.0000 0.53120  0.74690  0.51000  Biso   1.000  C
  H124     1.0000 0.53110  0.73120  0.67470  Biso   1.000  H
  C172     1.0000 0.62490  0.78920  0.00600  Biso   1.000  C
  O32      1.0000 0.62500  0.84600  0.98100  Biso   1.000  O
  C173     1.0000 0.49350  0.80680  0.30800  Biso   1.000  C
  H125     1.0000 0.46830  0.83110  0.33560  Biso   1.000  H
  C174     1.0000 0.53910  0.82100  0.18600  Biso   1.000  C
  H126     1.0000 0.54510  0.85420  0.13140  Biso   1.000  H
  C175     1.0000 0.57050  0.73140  0.22800  Biso   1.000  C
  H127     1.0000 0.59560  0.70690  0.20200  Biso   1.000  H
  C176     1.0000 0.52360  0.72170  0.34700  Biso   1.000  C
  H128     1.0000 0.51740  0.68850  0.40230  Biso   1.000  H
