data_image0
_cell_length_a       26.082
_cell_length_b       26.082
_cell_length_c       5.053
_cell_angle_alpha    90
_cell_angle_beta     90
_cell_angle_gamma    90

_symmetry_space_group_name_H-M    "P 1"
_symmetry_int_tables_number       1

loop_
  _symmetry_equiv_pos_as_xyz
  'x, y, z'

loop_
  _atom_site_label
  _atom_site_occupancy
  _atom_site_fract_x
  _atom_site_fract_y
  _atom_site_fract_z
  _atom_site_thermal_displace_type
  _atom_site_B_iso_or_equiv
  _atom_site_type_symbol
  Zn1      1.0000 0.27581  0.21562  0.84260  Biso   1.000  Zn
  O1       1.0000 0.21860  0.25090  0.01100  Biso   1.000  O
  H1       1.0000 0.19750  0.26210  0.89640  Biso   1.000  H
  N1       1.0000 0.26070  0.14600  0.86200  Biso   1.000  N
  C1       1.0000 0.27150  0.10650  0.01100  Biso   1.000  C
  H2       1.0000 0.29810  0.10890  0.13260  Biso   1.000  H
  N2       1.0000 0.24460  0.06200  0.99300  Biso   1.000  N
  C2       1.0000 0.21540  0.11980  0.71100  Biso   1.000  C
  O2       1.0000 0.27440  0.83670  0.45100  Biso   1.000  O
  C3       1.0000 0.18560  0.14160  0.51500  Biso   1.000  C
  H3       1.0000 0.19140  0.17510  0.46030  Biso   1.000  H
  O3       1.0000 0.32680  0.88220  0.67200  Biso   1.000  O
  C4       1.0000 0.14690  0.11260  0.40200  Biso   1.000  C
  C5       1.0000 0.11720  0.13460  0.20700  Biso   1.000  C
  H4       1.0000 0.12410  0.16820  0.15580  Biso   1.000  H
  C6       1.0000 0.07760  0.10850  0.08300  Biso   1.000  C
  H5       1.0000 0.05750  0.12320  0.95110  Biso   1.000  H
  C7       1.0000 0.07030  0.05860  0.17100  Biso   1.000  C
  H6       1.0000 0.04430  0.03920  0.09450  Biso   1.000  H
  C8       1.0000 0.09980  0.03640  0.36800  Biso   1.000  C
  H7       1.0000 0.09280  0.00290  0.41910  Biso   1.000  H
  C9       1.0000 0.13950  0.06260  0.49100  Biso   1.000  C
  C10      1.0000 0.16920  0.04070  0.68700  Biso   1.000  C
  H8       1.0000 0.16260  0.00760  0.74740  Biso   1.000  H
  C11      1.0000 0.20910  0.06930  0.79100  Biso   1.000  C
  C12      1.0000 0.25320  0.01450  0.11100  Biso   1.000  C
  C13      1.0000 0.27750  0.93030  0.40500  Biso   1.000  C
  C14      1.0000 0.27880  0.01990  0.34900  Biso   1.000  C
  H9       1.0000 0.28770  0.05250  0.40730  Biso   1.000  H
  C15      1.0000 0.29140  0.97790  0.50000  Biso   1.000  C
  H10      1.0000 0.30850  0.98150  0.66050  Biso   1.000  H
  C16      1.0000 0.25180  0.92330  0.17000  Biso   1.000  C
  H11      1.0000 0.24270  0.89070  0.11150  Biso   1.000  H
  C17      1.0000 0.24010  0.96630  0.02400  Biso   1.000  C
  H12      1.0000 0.22300  0.96270  0.86360  Biso   1.000  H
  C18      1.0000 0.28640  0.87860  0.53200  Biso   1.000  C
  O4       1.0000 0.30700  0.87500  0.86000  Biso   1.000  O
  C19      1.0000 0.30090  0.01100  0.22400  Biso   1.000  C
  H13      1.0000 0.32440  0.03740  0.19960  Biso   1.000  H
  C20      1.0000 0.31480  0.96840  0.37600  Biso   1.000  C
  H14      1.0000 0.34700  0.96560  0.45340  Biso   1.000  H
  C21      1.0000 0.22830  0.93010  0.29700  Biso   1.000  C
  H15      1.0000 0.20480  0.90370  0.32020  Biso   1.000  H
  C22      1.0000 0.21860  0.97440  0.15000  Biso   1.000  C
  H16      1.0000 0.18640  0.97750  0.07230  Biso   1.000  H
  Zn2      1.0000 0.77581  0.71562  0.34260  Biso   1.000  Zn
  O5       1.0000 0.71860  0.75090  0.51100  Biso   1.000  O
  H17      1.0000 0.69750  0.76210  0.39640  Biso   1.000  H
  N3       1.0000 0.76070  0.64600  0.36200  Biso   1.000  N
  C23      1.0000 0.77150  0.60650  0.51100  Biso   1.000  C
  H18      1.0000 0.79810  0.60890  0.63260  Biso   1.000  H
  N4       1.0000 0.74460  0.56200  0.49300  Biso   1.000  N
  C24      1.0000 0.71540  0.61980  0.21100  Biso   1.000  C
  O6       1.0000 0.77440  0.33670  0.95100  Biso   1.000  O
  C25      1.0000 0.68560  0.64160  0.01500  Biso   1.000  C
  H19      1.0000 0.69140  0.67510  0.96030  Biso   1.000  H
  O7       1.0000 0.82680  0.38220  0.17200  Biso   1.000  O
  C26      1.0000 0.64690  0.61260  0.90200  Biso   1.000  C
  C27      1.0000 0.61720  0.63460  0.70700  Biso   1.000  C
  H20      1.0000 0.62410  0.66820  0.65580  Biso   1.000  H
  C28      1.0000 0.57760  0.60850  0.58300  Biso   1.000  C
  H21      1.0000 0.55750  0.62320  0.45110  Biso   1.000  H
  C29      1.0000 0.57030  0.55860  0.67100  Biso   1.000  C
  H22      1.0000 0.54430  0.53920  0.59450  Biso   1.000  H
  C30      1.0000 0.59980  0.53640  0.86800  Biso   1.000  C
  H23      1.0000 0.59280  0.50290  0.91910  Biso   1.000  H
  C31      1.0000 0.63950  0.56260  0.99100  Biso   1.000  C
  C32      1.0000 0.66920  0.54070  0.18700  Biso   1.000  C
  H24      1.0000 0.66260  0.50760  0.24740  Biso   1.000  H
  C33      1.0000 0.70910  0.56930  0.29100  Biso   1.000  C
  C34      1.0000 0.75320  0.51450  0.61100  Biso   1.000  C
  C35      1.0000 0.77750  0.43030  0.90500  Biso   1.000  C
  C36      1.0000 0.77880  0.51990  0.84900  Biso   1.000  C
  H25      1.0000 0.78770  0.55250  0.90730  Biso   1.000  H
  C37      1.0000 0.79140  0.47790  0.00000  Biso   1.000  C
  H26      1.0000 0.80850  0.48150  0.16050  Biso   1.000  H
  C38      1.0000 0.75180  0.42330  0.67000  Biso   1.000  C
  H27      1.0000 0.74270  0.39070  0.61150  Biso   1.000  H
  C39      1.0000 0.74010  0.46630  0.52400  Biso   1.000  C
  H28      1.0000 0.72300  0.46270  0.36360  Biso   1.000  H
  C40      1.0000 0.78640  0.37860  0.03200  Biso   1.000  C
  O8       1.0000 0.80700  0.37500  0.36000  Biso   1.000  O
  C41      1.0000 0.80090  0.51100  0.72400  Biso   1.000  C
  H29      1.0000 0.82440  0.53740  0.69960  Biso   1.000  H
  C42      1.0000 0.81480  0.46840  0.87600  Biso   1.000  C
  H30      1.0000 0.84700  0.46560  0.95340  Biso   1.000  H
  C43      1.0000 0.72830  0.43010  0.79700  Biso   1.000  C
  H31      1.0000 0.70480  0.40370  0.82020  Biso   1.000  H
  C44      1.0000 0.71860  0.47440  0.65000  Biso   1.000  C
  H32      1.0000 0.68640  0.47750  0.57230  Biso   1.000  H
  Zn3      1.0000 0.72419  0.78438  0.84260  Biso   1.000  Zn
  O9       1.0000 0.78140  0.74910  0.01100  Biso   1.000  O
  H33      1.0000 0.80250  0.73790  0.89640  Biso   1.000  H
  N5       1.0000 0.73930  0.85400  0.86200  Biso   1.000  N
  C45      1.0000 0.72850  0.89350  0.01100  Biso   1.000  C
  H34      1.0000 0.70190  0.89110  0.13260  Biso   1.000  H
  N6       1.0000 0.75540  0.93800  0.99300  Biso   1.000  N
  C46      1.0000 0.78460  0.88020  0.71100  Biso   1.000  C
  O10      1.0000 0.72560  0.16330  0.45100  Biso   1.000  O
  C47      1.0000 0.81440  0.85840  0.51500  Biso   1.000  C
  H35      1.0000 0.80860  0.82490  0.46030  Biso   1.000  H
  O11      1.0000 0.67320  0.11780  0.67200  Biso   1.000  O
  C48      1.0000 0.85310  0.88740  0.40200  Biso   1.000  C
  C49      1.0000 0.88280  0.86540  0.20700  Biso   1.000  C
  H36      1.0000 0.87590  0.83180  0.15580  Biso   1.000  H
  C50      1.0000 0.92240  0.89150  0.08300  Biso   1.000  C
  H37      1.0000 0.94250  0.87680  0.95110  Biso   1.000  H
  C51      1.0000 0.92970  0.94140  0.17100  Biso   1.000  C
  H38      1.0000 0.95570  0.96080  0.09450  Biso   1.000  H
  C52      1.0000 0.90020  0.96360  0.36800  Biso   1.000  C
  H39      1.0000 0.90720  0.99710  0.41910  Biso   1.000  H
  C53      1.0000 0.86050  0.93740  0.49100  Biso   1.000  C
  C54      1.0000 0.83080  0.95930  0.68700  Biso   1.000  C
  H40      1.0000 0.83740  0.99240  0.74740  Biso   1.000  H
  C55      1.0000 0.79090  0.93070  0.79100  Biso   1.000  C
  C56      1.0000 0.74680  0.98550  0.11100  Biso   1.000  C
  C57      1.0000 0.72250  0.06970  0.40500  Biso   1.000  C
  C58      1.0000 0.72120  0.98010  0.34900  Biso   1.000  C
  H41      1.0000 0.71230  0.94750  0.40730  Biso   1.000  H
  C59      1.0000 0.70860  0.02210  0.50000  Biso   1.000  C
  H42      1.0000 0.69150  0.01850  0.66050  Biso   1.000  H
  C60      1.0000 0.74820  0.07670  0.17000  Biso   1.000  C
  H43      1.0000 0.75730  0.10930  0.11150  Biso   1.000  H
  C61      1.0000 0.75990  0.03370  0.02400  Biso   1.000  C
  H44      1.0000 0.77700  0.03730  0.86360  Biso   1.000  H
  C62      1.0000 0.71360  0.12140  0.53200  Biso   1.000  C
  O12      1.0000 0.69300  0.12500  0.86000  Biso   1.000  O
  C63      1.0000 0.69910  0.98900  0.22400  Biso   1.000  C
  H45      1.0000 0.67560  0.96260  0.19960  Biso   1.000  H
  C64      1.0000 0.68520  0.03160  0.37600  Biso   1.000  C
  H46      1.0000 0.65300  0.03440  0.45340  Biso   1.000  H
  C65      1.0000 0.77170  0.06990  0.29700  Biso   1.000  C
  H47      1.0000 0.79520  0.09630  0.32020  Biso   1.000  H
  C66      1.0000 0.78140  0.02560  0.15000  Biso   1.000  C
  H48      1.0000 0.81360  0.02250  0.07230  Biso   1.000  H
  Zn4      1.0000 0.22419  0.28438  0.34260  Biso   1.000  Zn
  O13      1.0000 0.28140  0.24910  0.51100  Biso   1.000  O
  H49      1.0000 0.30250  0.23790  0.39640  Biso   1.000  H
  N7       1.0000 0.23930  0.35400  0.36200  Biso   1.000  N
  C67      1.0000 0.22850  0.39350  0.51100  Biso   1.000  C
  H50      1.0000 0.20190  0.39110  0.63260  Biso   1.000  H
  N8       1.0000 0.25540  0.43800  0.49300  Biso   1.000  N
  C68      1.0000 0.28460  0.38020  0.21100  Biso   1.000  C
  O14      1.0000 0.22560  0.66330  0.95100  Biso   1.000  O
  C69      1.0000 0.31440  0.35840  0.01500  Biso   1.000  C
  H51      1.0000 0.30860  0.32490  0.96030  Biso   1.000  H
  O15      1.0000 0.17320  0.61780  0.17200  Biso   1.000  O
  C70      1.0000 0.35310  0.38740  0.90200  Biso   1.000  C
  C71      1.0000 0.38280  0.36540  0.70700  Biso   1.000  C
  H52      1.0000 0.37590  0.33180  0.65580  Biso   1.000  H
  C72      1.0000 0.42240  0.39150  0.58300  Biso   1.000  C
  H53      1.0000 0.44250  0.37680  0.45110  Biso   1.000  H
  C73      1.0000 0.42970  0.44140  0.67100  Biso   1.000  C
  H54      1.0000 0.45570  0.46080  0.59450  Biso   1.000  H
  C74      1.0000 0.40020  0.46360  0.86800  Biso   1.000  C
  H55      1.0000 0.40720  0.49710  0.91910  Biso   1.000  H
  C75      1.0000 0.36050  0.43740  0.99100  Biso   1.000  C
  C76      1.0000 0.33080  0.45930  0.18700  Biso   1.000  C
  H56      1.0000 0.33740  0.49240  0.24740  Biso   1.000  H
  C77      1.0000 0.29090  0.43070  0.29100  Biso   1.000  C
  C78      1.0000 0.24680  0.48550  0.61100  Biso   1.000  C
  C79      1.0000 0.22250  0.56970  0.90500  Biso   1.000  C
  C80      1.0000 0.22120  0.48010  0.84900  Biso   1.000  C
  H57      1.0000 0.21230  0.44750  0.90730  Biso   1.000  H
  C81      1.0000 0.20860  0.52210  0.00000  Biso   1.000  C
  H58      1.0000 0.19150  0.51850  0.16050  Biso   1.000  H
  C82      1.0000 0.24820  0.57670  0.67000  Biso   1.000  C
  H59      1.0000 0.25730  0.60930  0.61150  Biso   1.000  H
  C83      1.0000 0.25990  0.53370  0.52400  Biso   1.000  C
  H60      1.0000 0.27700  0.53730  0.36360  Biso   1.000  H
  C84      1.0000 0.21360  0.62140  0.03200  Biso   1.000  C
  O16      1.0000 0.19300  0.62500  0.36000  Biso   1.000  O
  C85      1.0000 0.19910  0.48900  0.72400  Biso   1.000  C
  H61      1.0000 0.17560  0.46260  0.69960  Biso   1.000  H
  C86      1.0000 0.18520  0.53160  0.87600  Biso   1.000  C
  H62      1.0000 0.15300  0.53440  0.95340  Biso   1.000  H
  C87      1.0000 0.27170  0.56990  0.79700  Biso   1.000  C
  H63      1.0000 0.29520  0.59630  0.82020  Biso   1.000  H
  C88      1.0000 0.28140  0.52560  0.65000  Biso   1.000  C
  H64      1.0000 0.31360  0.52250  0.57230  Biso   1.000  H
  Zn5      1.0000 0.21562  0.72419  0.15740  Biso   1.000  Zn
  O17      1.0000 0.25090  0.78140  0.98900  Biso   1.000  O
  H65      1.0000 0.26210  0.80250  0.10360  Biso   1.000  H
  N9       1.0000 0.14600  0.73930  0.13800  Biso   1.000  N
  C89      1.0000 0.10650  0.72850  0.98900  Biso   1.000  C
  H66      1.0000 0.10890  0.70190  0.86740  Biso   1.000  H
  N10      1.0000 0.06200  0.75540  0.00700  Biso   1.000  N
  C90      1.0000 0.11980  0.78460  0.28900  Biso   1.000  C
  O18      1.0000 0.83670  0.72560  0.54900  Biso   1.000  O
  C91      1.0000 0.14160  0.81440  0.48500  Biso   1.000  C
  H67      1.0000 0.17510  0.80860  0.53970  Biso   1.000  H
  O19      1.0000 0.88220  0.67320  0.32800  Biso   1.000  O
  C92      1.0000 0.11260  0.85310  0.59800  Biso   1.000  C
  C93      1.0000 0.13460  0.88280  0.79300  Biso   1.000  C
  H68      1.0000 0.16820  0.87590  0.84420  Biso   1.000  H
  C94      1.0000 0.10850  0.92240  0.91700  Biso   1.000  C
  H69      1.0000 0.12320  0.94250  0.04890  Biso   1.000  H
  C95      1.0000 0.05860  0.92970  0.82900  Biso   1.000  C
  H70      1.0000 0.03920  0.95570  0.90550  Biso   1.000  H
  C96      1.0000 0.03640  0.90020  0.63200  Biso   1.000  C
  H71      1.0000 0.00290  0.90720  0.58090  Biso   1.000  H
  C97      1.0000 0.06260  0.86050  0.50900  Biso   1.000  C
  C98      1.0000 0.04070  0.83080  0.31300  Biso   1.000  C
  H72      1.0000 0.00760  0.83740  0.25260  Biso   1.000  H
  C99      1.0000 0.06930  0.79090  0.20900  Biso   1.000  C
  C100     1.0000 0.01450  0.74680  0.88900  Biso   1.000  C
  C101     1.0000 0.93030  0.72250  0.59500  Biso   1.000  C
  C102     1.0000 0.01990  0.72120  0.65100  Biso   1.000  C
  H73      1.0000 0.05250  0.71230  0.59270  Biso   1.000  H
  C103     1.0000 0.97790  0.70860  0.50000  Biso   1.000  C
  H74      1.0000 0.98150  0.69150  0.33950  Biso   1.000  H
  C104     1.0000 0.92330  0.74820  0.83000  Biso   1.000  C
  H75      1.0000 0.89070  0.75730  0.88850  Biso   1.000  H
  C105     1.0000 0.96630  0.75990  0.97600  Biso   1.000  C
  H76      1.0000 0.96270  0.77700  0.13640  Biso   1.000  H
  C106     1.0000 0.87860  0.71360  0.46800  Biso   1.000  C
  O20      1.0000 0.87500  0.69300  0.14000  Biso   1.000  O
  C107     1.0000 0.01100  0.69910  0.77600  Biso   1.000  C
  H77      1.0000 0.03740  0.67560  0.80040  Biso   1.000  H
  C108     1.0000 0.96840  0.68520  0.62400  Biso   1.000  C
  H78      1.0000 0.96560  0.65300  0.54660  Biso   1.000  H
  C109     1.0000 0.93010  0.77170  0.70300  Biso   1.000  C
  H79      1.0000 0.90370  0.79520  0.67980  Biso   1.000  H
  C110     1.0000 0.97440  0.78140  0.85000  Biso   1.000  C
  H80      1.0000 0.97750  0.81360  0.92770  Biso   1.000  H
  Zn6      1.0000 0.71562  0.22419  0.65740  Biso   1.000  Zn
  O21      1.0000 0.75090  0.28140  0.48900  Biso   1.000  O
  H81      1.0000 0.76210  0.30250  0.60360  Biso   1.000  H
  N11      1.0000 0.64600  0.23930  0.63800  Biso   1.000  N
  C111     1.0000 0.60650  0.22850  0.48900  Biso   1.000  C
  H82      1.0000 0.60890  0.20190  0.36740  Biso   1.000  H
  N12      1.0000 0.56200  0.25540  0.50700  Biso   1.000  N
  C112     1.0000 0.61980  0.28460  0.78900  Biso   1.000  C
  O22      1.0000 0.33670  0.22560  0.04900  Biso   1.000  O
  C113     1.0000 0.64160  0.31440  0.98500  Biso   1.000  C
  H83      1.0000 0.67510  0.30860  0.03970  Biso   1.000  H
  O23      1.0000 0.38220  0.17320  0.82800  Biso   1.000  O
  C114     1.0000 0.61260  0.35310  0.09800  Biso   1.000  C
  C115     1.0000 0.63460  0.38280  0.29300  Biso   1.000  C
  H84      1.0000 0.66820  0.37590  0.34420  Biso   1.000  H
  C116     1.0000 0.60850  0.42240  0.41700  Biso   1.000  C
  H85      1.0000 0.62320  0.44250  0.54890  Biso   1.000  H
  C117     1.0000 0.55860  0.42970  0.32900  Biso   1.000  C
  H86      1.0000 0.53920  0.45570  0.40550  Biso   1.000  H
  C118     1.0000 0.53640  0.40020  0.13200  Biso   1.000  C
  H87      1.0000 0.50290  0.40720  0.08090  Biso   1.000  H
  C119     1.0000 0.56260  0.36050  0.00900  Biso   1.000  C
  C120     1.0000 0.54070  0.33080  0.81300  Biso   1.000  C
  H88      1.0000 0.50760  0.33740  0.75260  Biso   1.000  H
  C121     1.0000 0.56930  0.29090  0.70900  Biso   1.000  C
  C122     1.0000 0.51450  0.24680  0.38900  Biso   1.000  C
  C123     1.0000 0.43030  0.22250  0.09500  Biso   1.000  C
  C124     1.0000 0.51990  0.22120  0.15100  Biso   1.000  C
  H89      1.0000 0.55250  0.21230  0.09270  Biso   1.000  H
  C125     1.0000 0.47790  0.20860  0.00000  Biso   1.000  C
  H90      1.0000 0.48150  0.19150  0.83950  Biso   1.000  H
  C126     1.0000 0.42330  0.24820  0.33000  Biso   1.000  C
  H91      1.0000 0.39070  0.25730  0.38850  Biso   1.000  H
  C127     1.0000 0.46630  0.25990  0.47600  Biso   1.000  C
  H92      1.0000 0.46270  0.27700  0.63640  Biso   1.000  H
  C128     1.0000 0.37860  0.21360  0.96800  Biso   1.000  C
  O24      1.0000 0.37500  0.19300  0.64000  Biso   1.000  O
  C129     1.0000 0.51100  0.19910  0.27600  Biso   1.000  C
  H93      1.0000 0.53740  0.17560  0.30040  Biso   1.000  H
  C130     1.0000 0.46840  0.18520  0.12400  Biso   1.000  C
  H94      1.0000 0.46560  0.15300  0.04660  Biso   1.000  H
  C131     1.0000 0.43010  0.27170  0.20300  Biso   1.000  C
  H95      1.0000 0.40370  0.29520  0.17980  Biso   1.000  H
  C132     1.0000 0.47440  0.28140  0.35000  Biso   1.000  C
  H96      1.0000 0.47750  0.31360  0.42770  Biso   1.000  H
  Zn7      1.0000 0.78438  0.27581  0.15740  Biso   1.000  Zn
  O25      1.0000 0.74910  0.21860  0.98900  Biso   1.000  O
  H97      1.0000 0.73790  0.19750  0.10360  Biso   1.000  H
  N13      1.0000 0.85400  0.26070  0.13800  Biso   1.000  N
  C133     1.0000 0.89350  0.27150  0.98900  Biso   1.000  C
  H98      1.0000 0.89110  0.29810  0.86740  Biso   1.000  H
  N14      1.0000 0.93800  0.24460  0.00700  Biso   1.000  N
  C134     1.0000 0.88020  0.21540  0.28900  Biso   1.000  C
  O26      1.0000 0.16330  0.27440  0.54900  Biso   1.000  O
  C135     1.0000 0.85840  0.18560  0.48500  Biso   1.000  C
  H99      1.0000 0.82490  0.19140  0.53970  Biso   1.000  H
  O27      1.0000 0.11780  0.32680  0.32800  Biso   1.000  O
  C136     1.0000 0.88740  0.14690  0.59800  Biso   1.000  C
  C137     1.0000 0.86540  0.11720  0.79300  Biso   1.000  C
  H100     1.0000 0.83180  0.12410  0.84420  Biso   1.000  H
  C138     1.0000 0.89150  0.07760  0.91700  Biso   1.000  C
  H101     1.0000 0.87680  0.05750  0.04890  Biso   1.000  H
  C139     1.0000 0.94140  0.07030  0.82900  Biso   1.000  C
  H102     1.0000 0.96080  0.04430  0.90550  Biso   1.000  H
  C140     1.0000 0.96360  0.09980  0.63200  Biso   1.000  C
  H103     1.0000 0.99710  0.09280  0.58090  Biso   1.000  H
  C141     1.0000 0.93740  0.13950  0.50900  Biso   1.000  C
  C142     1.0000 0.95930  0.16920  0.31300  Biso   1.000  C
  H104     1.0000 0.99240  0.16260  0.25260  Biso   1.000  H
  C143     1.0000 0.93070  0.20910  0.20900  Biso   1.000  C
  C144     1.0000 0.98550  0.25320  0.88900  Biso   1.000  C
  C145     1.0000 0.06970  0.27750  0.59500  Biso   1.000  C
  C146     1.0000 0.98010  0.27880  0.65100  Biso   1.000  C
  H105     1.0000 0.94750  0.28770  0.59270  Biso   1.000  H
  C147     1.0000 0.02210  0.29140  0.50000  Biso   1.000  C
  H106     1.0000 0.01850  0.30850  0.33950  Biso   1.000  H
  C148     1.0000 0.07670  0.25180  0.83000  Biso   1.000  C
  H107     1.0000 0.10930  0.24270  0.88850  Biso   1.000  H
  C149     1.0000 0.03370  0.24010  0.97600  Biso   1.000  C
  H108     1.0000 0.03730  0.22300  0.13640  Biso   1.000  H
  C150     1.0000 0.12140  0.28640  0.46800  Biso   1.000  C
  O28      1.0000 0.12500  0.30700  0.14000  Biso   1.000  O
  C151     1.0000 0.98900  0.30090  0.77600  Biso   1.000  C
  H109     1.0000 0.96260  0.32440  0.80040  Biso   1.000  H
  C152     1.0000 0.03160  0.31480  0.62400  Biso   1.000  C
  H110     1.0000 0.03440  0.34700  0.54660  Biso   1.000  H
  C153     1.0000 0.06990  0.22830  0.70300  Biso   1.000  C
  H111     1.0000 0.09630  0.20480  0.67980  Biso   1.000  H
  C154     1.0000 0.02560  0.21860  0.85000  Biso   1.000  C
  H112     1.0000 0.02250  0.18640  0.92770  Biso   1.000  H
  Zn8      1.0000 0.28438  0.77581  0.65740  Biso   1.000  Zn
  O29      1.0000 0.24910  0.71860  0.48900  Biso   1.000  O
  H113     1.0000 0.23790  0.69750  0.60360  Biso   1.000  H
  N15      1.0000 0.35400  0.76070  0.63800  Biso   1.000  N
  C155     1.0000 0.39350  0.77150  0.48900  Biso   1.000  C
  H114     1.0000 0.39110  0.79810  0.36740  Biso   1.000  H
  N16      1.0000 0.43800  0.74460  0.50700  Biso   1.000  N
  C156     1.0000 0.38020  0.71540  0.78900  Biso   1.000  C
  O30      1.0000 0.66330  0.77440  0.04900  Biso   1.000  O
  C157     1.0000 0.35840  0.68560  0.98500  Biso   1.000  C
  H115     1.0000 0.32490  0.69140  0.03970  Biso   1.000  H
  O31      1.0000 0.61780  0.82680  0.82800  Biso   1.000  O
  C158     1.0000 0.38740  0.64690  0.09800  Biso   1.000  C
  C159     1.0000 0.36540  0.61720  0.29300  Biso   1.000  C
  H116     1.0000 0.33180  0.62410  0.34420  Biso   1.000  H
  C160     1.0000 0.39150  0.57760  0.41700  Biso   1.000  C
  H117     1.0000 0.37680  0.55750  0.54890  Biso   1.000  H
  C161     1.0000 0.44140  0.57030  0.32900  Biso   1.000  C
  H118     1.0000 0.46080  0.54430  0.40550  Biso   1.000  H
  C162     1.0000 0.46360  0.59980  0.13200  Biso   1.000  C
  H119     1.0000 0.49710  0.59280  0.08090  Biso   1.000  H
  C163     1.0000 0.43740  0.63950  0.00900  Biso   1.000  C
  C164     1.0000 0.45930  0.66920  0.81300  Biso   1.000  C
  H120     1.0000 0.49240  0.66260  0.75260  Biso   1.000  H
  C165     1.0000 0.43070  0.70910  0.70900  Biso   1.000  C
  C166     1.0000 0.48550  0.75320  0.38900  Biso   1.000  C
  C167     1.0000 0.56970  0.77750  0.09500  Biso   1.000  C
  C168     1.0000 0.48010  0.77880  0.15100  Biso   1.000  C
  H121     1.0000 0.44750  0.78770  0.09270  Biso   1.000  H
  C169     1.0000 0.52210  0.79140  0.00000  Biso   1.000  C
  H122     1.0000 0.51850  0.80850  0.83950  Biso   1.000  H
  C170     1.0000 0.57670  0.75180  0.33000  Biso   1.000  C
  H123     1.0000 0.60930  0.74270  0.38850  Biso   1.000  H
  C171     1.0000 0.53370  0.74010  0.47600  Biso   1.000  C
  H124     1.0000 0.53730  0.72300  0.63640  Biso   1.000  H
  C172     1.0000 0.62140  0.78640  0.96800  Biso   1.000  C
  O32      1.0000 0.62500  0.80700  0.64000  Biso   1.000  O
  C173     1.0000 0.48900  0.80090  0.27600  Biso   1.000  C
  H125     1.0000 0.46260  0.82440  0.30040  Biso   1.000  H
  C174     1.0000 0.53160  0.81480  0.12400  Biso   1.000  C
  H126     1.0000 0.53440  0.84700  0.04660  Biso   1.000  H
  C175     1.0000 0.56990  0.72830  0.20300  Biso   1.000  C
  H127     1.0000 0.59630  0.70480  0.17980  Biso   1.000  H
  C176     1.0000 0.52560  0.71860  0.35000  Biso   1.000  C
  H128     1.0000 0.52250  0.68640  0.42770  Biso   1.000  H
