data_image0
_cell_length_a       26.684
_cell_length_b       26.684
_cell_length_c       4.701
_cell_angle_alpha    90
_cell_angle_beta     90
_cell_angle_gamma    90

_symmetry_space_group_name_H-M    "P 1"
_symmetry_int_tables_number       1

loop_
  _symmetry_equiv_pos_as_xyz
  'x, y, z'

loop_
  _atom_site_label
  _atom_site_occupancy
  _atom_site_fract_x
  _atom_site_fract_y
  _atom_site_fract_z
  _atom_site_thermal_displace_type
  _atom_site_B_iso_or_equiv
  _atom_site_type_symbol
  Zn1      1.0000 0.27505  0.21360  0.88640  Biso   1.000  Zn
  O1       1.0000 0.21350  0.24850  0.03900  Biso   1.000  O
  H1       1.0000 0.19230  0.25980  0.92490  Biso   1.000  H
  N1       1.0000 0.25170  0.14420  0.85700  Biso   1.000  N
  C1       1.0000 0.26970  0.10890  0.01900  Biso   1.000  C
  H2       1.0000 0.29670  0.11420  0.13960  Biso   1.000  H
  N2       1.0000 0.24640  0.06370  0.00000  Biso   1.000  N
  C2       1.0000 0.21540  0.12310  0.72500  Biso   1.000  C
  O2       1.0000 0.27140  0.84000  0.41500  Biso   1.000  O
  C3       1.0000 0.18440  0.14560  0.52700  Biso   1.000  C
  H3       1.0000 0.18880  0.17910  0.47890  Biso   1.000  H
  O3       1.0000 0.30210  0.86600  0.76200  Biso   1.000  O
  C4       1.0000 0.14680  0.11770  0.40300  Biso   1.000  C
  C5       1.0000 0.11520  0.13870  0.20400  Biso   1.000  C
  H4       1.0000 0.11980  0.17220  0.15430  Biso   1.000  H
  C6       1.0000 0.07700  0.11240  0.07400  Biso   1.000  C
  H5       1.0000 0.05610  0.12740  0.94060  Biso   1.000  H
  C7       1.0000 0.07100  0.06270  0.15100  Biso   1.000  C
  H6       1.0000 0.04570  0.04360  0.06950  Biso   1.000  H
  C8       1.0000 0.10270  0.04150  0.34900  Biso   1.000  C
  H7       1.0000 0.09820  0.00790  0.39730  Biso   1.000  H
  C9       1.0000 0.14090  0.06800  0.48000  Biso   1.000  C
  C10      1.0000 0.17170  0.04570  0.67600  Biso   1.000  C
  H8       1.0000 0.16730  0.01220  0.72520  Biso   1.000  H
  C11      1.0000 0.20930  0.07360  0.80000  Biso   1.000  C
  C12      1.0000 0.25800  0.01720  0.12500  Biso   1.000  C
  C13      1.0000 0.28010  0.92670  0.35900  Biso   1.000  C
  C14      1.0000 0.30580  0.00790  0.21900  Biso   1.000  C
  H9       1.0000 0.33010  0.03270  0.20090  Biso   1.000  H
  C15      1.0000 0.31860  0.96200  0.34000  Biso   1.000  C
  H10      1.0000 0.35080  0.95530  0.40450  Biso   1.000  H
  C16      1.0000 0.23040  0.93230  0.27100  Biso   1.000  C
  H11      1.0000 0.20610  0.90760  0.28750  Biso   1.000  H
  C17      1.0000 0.22200  0.97960  0.15300  Biso   1.000  C
  H12      1.0000 0.18980  0.98670  0.08930  Biso   1.000  H
  C18      1.0000 0.29270  0.87710  0.49800  Biso   1.000  C
  O4       1.0000 0.33770  0.87450  0.60300  Biso   1.000  O
  C19      1.0000 0.27860  0.01440  0.39400  Biso   1.000  C
  H13      1.0000 0.28480  0.04380  0.49430  Biso   1.000  H
  C20      1.0000 0.29000  0.96910  0.51600  Biso   1.000  C
  H14      1.0000 0.30380  0.96710  0.69770  Biso   1.000  H
  C21      1.0000 0.25960  0.92750  0.09100  Biso   1.000  C
  H15      1.0000 0.25330  0.89810  0.99130  Biso   1.000  H
  C22      1.0000 0.24880  0.97380  0.97600  Biso   1.000  C
  H16      1.0000 0.23490  0.97560  0.79520  Biso   1.000  H
  Zn2      1.0000 0.77505  0.71360  0.38640  Biso   1.000  Zn
  O5       1.0000 0.71350  0.74850  0.53900  Biso   1.000  O
  H17      1.0000 0.69230  0.75980  0.42490  Biso   1.000  H
  N3       1.0000 0.75170  0.64420  0.35700  Biso   1.000  N
  C23      1.0000 0.76970  0.60890  0.51900  Biso   1.000  C
  H18      1.0000 0.79670  0.61420  0.63960  Biso   1.000  H
  N4       1.0000 0.74640  0.56370  0.50000  Biso   1.000  N
  C24      1.0000 0.71540  0.62310  0.22500  Biso   1.000  C
  O6       1.0000 0.77140  0.34000  0.91500  Biso   1.000  O
  C25      1.0000 0.68440  0.64560  0.02700  Biso   1.000  C
  H19      1.0000 0.68880  0.67910  0.97890  Biso   1.000  H
  O7       1.0000 0.80210  0.36600  0.26200  Biso   1.000  O
  C26      1.0000 0.64680  0.61770  0.90300  Biso   1.000  C
  C27      1.0000 0.61520  0.63870  0.70400  Biso   1.000  C
  H20      1.0000 0.61980  0.67220  0.65430  Biso   1.000  H
  C28      1.0000 0.57700  0.61240  0.57400  Biso   1.000  C
  H21      1.0000 0.55610  0.62740  0.44060  Biso   1.000  H
  C29      1.0000 0.57100  0.56270  0.65100  Biso   1.000  C
  H22      1.0000 0.54570  0.54360  0.56950  Biso   1.000  H
  C30      1.0000 0.60270  0.54150  0.84900  Biso   1.000  C
  H23      1.0000 0.59820  0.50790  0.89730  Biso   1.000  H
  C31      1.0000 0.64090  0.56800  0.98000  Biso   1.000  C
  C32      1.0000 0.67170  0.54570  0.17600  Biso   1.000  C
  H24      1.0000 0.66730  0.51220  0.22520  Biso   1.000  H
  C33      1.0000 0.70930  0.57360  0.30000  Biso   1.000  C
  C34      1.0000 0.75800  0.51720  0.62500  Biso   1.000  C
  C35      1.0000 0.78010  0.42670  0.85900  Biso   1.000  C
  C36      1.0000 0.80580  0.50790  0.71900  Biso   1.000  C
  H25      1.0000 0.83010  0.53270  0.70090  Biso   1.000  H
  C37      1.0000 0.81860  0.46200  0.84000  Biso   1.000  C
  H26      1.0000 0.85080  0.45530  0.90450  Biso   1.000  H
  C38      1.0000 0.73040  0.43230  0.77100  Biso   1.000  C
  H27      1.0000 0.70610  0.40760  0.78750  Biso   1.000  H
  C39      1.0000 0.72200  0.47960  0.65300  Biso   1.000  C
  H28      1.0000 0.68980  0.48670  0.58930  Biso   1.000  H
  C40      1.0000 0.79270  0.37710  0.99800  Biso   1.000  C
  O8       1.0000 0.83770  0.37450  0.10300  Biso   1.000  O
  C41      1.0000 0.77860  0.51440  0.89400  Biso   1.000  C
  H29      1.0000 0.78480  0.54380  0.99430  Biso   1.000  H
  C42      1.0000 0.79000  0.46910  0.01600  Biso   1.000  C
  H30      1.0000 0.80380  0.46710  0.19770  Biso   1.000  H
  C43      1.0000 0.75960  0.42750  0.59100  Biso   1.000  C
  H31      1.0000 0.75330  0.39810  0.49130  Biso   1.000  H
  C44      1.0000 0.74880  0.47380  0.47600  Biso   1.000  C
  H32      1.0000 0.73490  0.47560  0.29520  Biso   1.000  H
  Zn3      1.0000 0.72495  0.78640  0.88640  Biso   1.000  Zn
  O9       1.0000 0.78650  0.75150  0.03900  Biso   1.000  O
  H33      1.0000 0.80770  0.74020  0.92490  Biso   1.000  H
  N5       1.0000 0.74830  0.85580  0.85700  Biso   1.000  N
  C45      1.0000 0.73030  0.89110  0.01900  Biso   1.000  C
  H34      1.0000 0.70330  0.88580  0.13960  Biso   1.000  H
  N6       1.0000 0.75360  0.93630  0.00000  Biso   1.000  N
  C46      1.0000 0.78460  0.87690  0.72500  Biso   1.000  C
  O10      1.0000 0.72860  0.16000  0.41500  Biso   1.000  O
  C47      1.0000 0.81560  0.85440  0.52700  Biso   1.000  C
  H35      1.0000 0.81120  0.82090  0.47890  Biso   1.000  H
  O11      1.0000 0.69790  0.13400  0.76200  Biso   1.000  O
  C48      1.0000 0.85320  0.88230  0.40300  Biso   1.000  C
  C49      1.0000 0.88480  0.86130  0.20400  Biso   1.000  C
  H36      1.0000 0.88020  0.82780  0.15430  Biso   1.000  H
  C50      1.0000 0.92300  0.88760  0.07400  Biso   1.000  C
  H37      1.0000 0.94390  0.87260  0.94060  Biso   1.000  H
  C51      1.0000 0.92900  0.93730  0.15100  Biso   1.000  C
  H38      1.0000 0.95430  0.95640  0.06950  Biso   1.000  H
  C52      1.0000 0.89730  0.95850  0.34900  Biso   1.000  C
  H39      1.0000 0.90180  0.99210  0.39730  Biso   1.000  H
  C53      1.0000 0.85910  0.93200  0.48000  Biso   1.000  C
  C54      1.0000 0.82830  0.95430  0.67600  Biso   1.000  C
  H40      1.0000 0.83270  0.98780  0.72520  Biso   1.000  H
  C55      1.0000 0.79070  0.92640  0.80000  Biso   1.000  C
  C56      1.0000 0.74200  0.98280  0.12500  Biso   1.000  C
  C57      1.0000 0.71990  0.07330  0.35900  Biso   1.000  C
  C58      1.0000 0.69420  0.99210  0.21900  Biso   1.000  C
  H41      1.0000 0.66990  0.96730  0.20090  Biso   1.000  H
  C59      1.0000 0.68140  0.03800  0.34000  Biso   1.000  C
  H42      1.0000 0.64920  0.04470  0.40450  Biso   1.000  H
  C60      1.0000 0.76960  0.06770  0.27100  Biso   1.000  C
  H43      1.0000 0.79390  0.09240  0.28750  Biso   1.000  H
  C61      1.0000 0.77800  0.02040  0.15300  Biso   1.000  C
  H44      1.0000 0.81020  0.01330  0.08930  Biso   1.000  H
  C62      1.0000 0.70730  0.12290  0.49800  Biso   1.000  C
  O12      1.0000 0.66230  0.12550  0.60300  Biso   1.000  O
  C63      1.0000 0.72140  0.98560  0.39400  Biso   1.000  C
  H45      1.0000 0.71520  0.95620  0.49430  Biso   1.000  H
  C64      1.0000 0.71000  0.03090  0.51600  Biso   1.000  C
  H46      1.0000 0.69620  0.03290  0.69770  Biso   1.000  H
  C65      1.0000 0.74040  0.07250  0.09100  Biso   1.000  C
  H47      1.0000 0.74670  0.10190  0.99130  Biso   1.000  H
  C66      1.0000 0.75120  0.02620  0.97600  Biso   1.000  C
  H48      1.0000 0.76510  0.02440  0.79520  Biso   1.000  H
  Zn4      1.0000 0.22495  0.28640  0.38640  Biso   1.000  Zn
  O13      1.0000 0.28650  0.25150  0.53900  Biso   1.000  O
  H49      1.0000 0.30770  0.24020  0.42490  Biso   1.000  H
  N7       1.0000 0.24830  0.35580  0.35700  Biso   1.000  N
  C67      1.0000 0.23030  0.39110  0.51900  Biso   1.000  C
  H50      1.0000 0.20330  0.38580  0.63960  Biso   1.000  H
  N8       1.0000 0.25360  0.43630  0.50000  Biso   1.000  N
  C68      1.0000 0.28460  0.37690  0.22500  Biso   1.000  C
  O14      1.0000 0.22860  0.66000  0.91500  Biso   1.000  O
  C69      1.0000 0.31560  0.35440  0.02700  Biso   1.000  C
  H51      1.0000 0.31120  0.32090  0.97890  Biso   1.000  H
  O15      1.0000 0.19790  0.63400  0.26200  Biso   1.000  O
  C70      1.0000 0.35320  0.38230  0.90300  Biso   1.000  C
  C71      1.0000 0.38480  0.36130  0.70400  Biso   1.000  C
  H52      1.0000 0.38020  0.32780  0.65430  Biso   1.000  H
  C72      1.0000 0.42300  0.38760  0.57400  Biso   1.000  C
  H53      1.0000 0.44390  0.37260  0.44060  Biso   1.000  H
  C73      1.0000 0.42900  0.43730  0.65100  Biso   1.000  C
  H54      1.0000 0.45430  0.45640  0.56950  Biso   1.000  H
  C74      1.0000 0.39730  0.45850  0.84900  Biso   1.000  C
  H55      1.0000 0.40180  0.49210  0.89730  Biso   1.000  H
  C75      1.0000 0.35910  0.43200  0.98000  Biso   1.000  C
  C76      1.0000 0.32830  0.45430  0.17600  Biso   1.000  C
  H56      1.0000 0.33270  0.48780  0.22520  Biso   1.000  H
  C77      1.0000 0.29070  0.42640  0.30000  Biso   1.000  C
  C78      1.0000 0.24200  0.48280  0.62500  Biso   1.000  C
  C79      1.0000 0.21990  0.57330  0.85900  Biso   1.000  C
  C80      1.0000 0.19420  0.49210  0.71900  Biso   1.000  C
  H57      1.0000 0.16990  0.46730  0.70090  Biso   1.000  H
  C81      1.0000 0.18140  0.53800  0.84000  Biso   1.000  C
  H58      1.0000 0.14920  0.54470  0.90450  Biso   1.000  H
  C82      1.0000 0.26960  0.56770  0.77100  Biso   1.000  C
  H59      1.0000 0.29390  0.59240  0.78750  Biso   1.000  H
  C83      1.0000 0.27800  0.52040  0.65300  Biso   1.000  C
  H60      1.0000 0.31020  0.51330  0.58930  Biso   1.000  H
  C84      1.0000 0.20730  0.62290  0.99800  Biso   1.000  C
  O16      1.0000 0.16230  0.62550  0.10300  Biso   1.000  O
  C85      1.0000 0.22140  0.48560  0.89400  Biso   1.000  C
  H61      1.0000 0.21520  0.45620  0.99430  Biso   1.000  H
  C86      1.0000 0.21000  0.53090  0.01600  Biso   1.000  C
  H62      1.0000 0.19620  0.53290  0.19770  Biso   1.000  H
  C87      1.0000 0.24040  0.57250  0.59100  Biso   1.000  C
  H63      1.0000 0.24670  0.60190  0.49130  Biso   1.000  H
  C88      1.0000 0.25120  0.52620  0.47600  Biso   1.000  C
  H64      1.0000 0.26510  0.52440  0.29520  Biso   1.000  H
  Zn5      1.0000 0.21360  0.72495  0.11360  Biso   1.000  Zn
  O17      1.0000 0.24850  0.78650  0.96100  Biso   1.000  O
  H65      1.0000 0.25980  0.80770  0.07510  Biso   1.000  H
  N9       1.0000 0.14420  0.74830  0.14300  Biso   1.000  N
  C89      1.0000 0.10890  0.73030  0.98100  Biso   1.000  C
  H66      1.0000 0.11420  0.70330  0.86040  Biso   1.000  H
  N10      1.0000 0.06370  0.75360  0.00000  Biso   1.000  N
  C90      1.0000 0.12310  0.78460  0.27500  Biso   1.000  C
  O18      1.0000 0.84000  0.72860  0.58500  Biso   1.000  O
  C91      1.0000 0.14560  0.81560  0.47300  Biso   1.000  C
  H67      1.0000 0.17910  0.81120  0.52110  Biso   1.000  H
  O19      1.0000 0.86600  0.69790  0.23800  Biso   1.000  O
  C92      1.0000 0.11770  0.85320  0.59700  Biso   1.000  C
  C93      1.0000 0.13870  0.88480  0.79600  Biso   1.000  C
  H68      1.0000 0.17220  0.88020  0.84570  Biso   1.000  H
  C94      1.0000 0.11240  0.92300  0.92600  Biso   1.000  C
  H69      1.0000 0.12740  0.94390  0.05940  Biso   1.000  H
  C95      1.0000 0.06270  0.92900  0.84900  Biso   1.000  C
  H70      1.0000 0.04360  0.95430  0.93050  Biso   1.000  H
  C96      1.0000 0.04150  0.89730  0.65100  Biso   1.000  C
  H71      1.0000 0.00790  0.90180  0.60270  Biso   1.000  H
  C97      1.0000 0.06800  0.85910  0.52000  Biso   1.000  C
  C98      1.0000 0.04570  0.82830  0.32400  Biso   1.000  C
  H72      1.0000 0.01220  0.83270  0.27480  Biso   1.000  H
  C99      1.0000 0.07360  0.79070  0.20000  Biso   1.000  C
  C100     1.0000 0.01720  0.74200  0.87500  Biso   1.000  C
  C101     1.0000 0.92670  0.71990  0.64100  Biso   1.000  C
  C102     1.0000 0.00790  0.69420  0.78100  Biso   1.000  C
  H73      1.0000 0.03270  0.66990  0.79910  Biso   1.000  H
  C103     1.0000 0.96200  0.68140  0.66000  Biso   1.000  C
  H74      1.0000 0.95530  0.64920  0.59550  Biso   1.000  H
  C104     1.0000 0.93230  0.76960  0.72900  Biso   1.000  C
  H75      1.0000 0.90760  0.79390  0.71250  Biso   1.000  H
  C105     1.0000 0.97960  0.77800  0.84700  Biso   1.000  C
  H76      1.0000 0.98670  0.81020  0.91070  Biso   1.000  H
  C106     1.0000 0.87710  0.70730  0.50200  Biso   1.000  C
  O20      1.0000 0.87450  0.66230  0.39700  Biso   1.000  O
  C107     1.0000 0.01440  0.72140  0.60600  Biso   1.000  C
  H77      1.0000 0.04380  0.71520  0.50570  Biso   1.000  H
  C108     1.0000 0.96910  0.71000  0.48400  Biso   1.000  C
  H78      1.0000 0.96710  0.69620  0.30230  Biso   1.000  H
  C109     1.0000 0.92750  0.74040  0.90900  Biso   1.000  C
  H79      1.0000 0.89810  0.74670  0.00870  Biso   1.000  H
  C110     1.0000 0.97380  0.75120  0.02400  Biso   1.000  C
  H80      1.0000 0.97560  0.76510  0.20480  Biso   1.000  H
  Zn6      1.0000 0.71360  0.22495  0.61360  Biso   1.000  Zn
  O21      1.0000 0.74850  0.28650  0.46100  Biso   1.000  O
  H81      1.0000 0.75980  0.30770  0.57510  Biso   1.000  H
  N11      1.0000 0.64420  0.24830  0.64300  Biso   1.000  N
  C111     1.0000 0.60890  0.23030  0.48100  Biso   1.000  C
  H82      1.0000 0.61420  0.20330  0.36040  Biso   1.000  H
  N12      1.0000 0.56370  0.25360  0.50000  Biso   1.000  N
  C112     1.0000 0.62310  0.28460  0.77500  Biso   1.000  C
  O22      1.0000 0.34000  0.22860  0.08500  Biso   1.000  O
  C113     1.0000 0.64560  0.31560  0.97300  Biso   1.000  C
  H83      1.0000 0.67910  0.31120  0.02110  Biso   1.000  H
  O23      1.0000 0.36600  0.19790  0.73800  Biso   1.000  O
  C114     1.0000 0.61770  0.35320  0.09700  Biso   1.000  C
  C115     1.0000 0.63870  0.38480  0.29600  Biso   1.000  C
  H84      1.0000 0.67220  0.38020  0.34570  Biso   1.000  H
  C116     1.0000 0.61240  0.42300  0.42600  Biso   1.000  C
  H85      1.0000 0.62740  0.44390  0.55940  Biso   1.000  H
  C117     1.0000 0.56270  0.42900  0.34900  Biso   1.000  C
  H86      1.0000 0.54360  0.45430  0.43050  Biso   1.000  H
  C118     1.0000 0.54150  0.39730  0.15100  Biso   1.000  C
  H87      1.0000 0.50790  0.40180  0.10270  Biso   1.000  H
  C119     1.0000 0.56800  0.35910  0.02000  Biso   1.000  C
  C120     1.0000 0.54570  0.32830  0.82400  Biso   1.000  C
  H88      1.0000 0.51220  0.33270  0.77480  Biso   1.000  H
  C121     1.0000 0.57360  0.29070  0.70000  Biso   1.000  C
  C122     1.0000 0.51720  0.24200  0.37500  Biso   1.000  C
  C123     1.0000 0.42670  0.21990  0.14100  Biso   1.000  C
  C124     1.0000 0.50790  0.19420  0.28100  Biso   1.000  C
  H89      1.0000 0.53270  0.16990  0.29910  Biso   1.000  H
  C125     1.0000 0.46200  0.18140  0.16000  Biso   1.000  C
  H90      1.0000 0.45530  0.14920  0.09550  Biso   1.000  H
  C126     1.0000 0.43230  0.26960  0.22900  Biso   1.000  C
  H91      1.0000 0.40760  0.29390  0.21250  Biso   1.000  H
  C127     1.0000 0.47960  0.27800  0.34700  Biso   1.000  C
  H92      1.0000 0.48670  0.31020  0.41070  Biso   1.000  H
  C128     1.0000 0.37710  0.20730  0.00200  Biso   1.000  C
  O24      1.0000 0.37450  0.16230  0.89700  Biso   1.000  O
  C129     1.0000 0.51440  0.22140  0.10600  Biso   1.000  C
  H93      1.0000 0.54380  0.21520  0.00570  Biso   1.000  H
  C130     1.0000 0.46910  0.21000  0.98400  Biso   1.000  C
  H94      1.0000 0.46710  0.19620  0.80230  Biso   1.000  H
  C131     1.0000 0.42750  0.24040  0.40900  Biso   1.000  C
  H95      1.0000 0.39810  0.24670  0.50870  Biso   1.000  H
  C132     1.0000 0.47380  0.25120  0.52400  Biso   1.000  C
  H96      1.0000 0.47560  0.26510  0.70480  Biso   1.000  H
  Zn7      1.0000 0.78640  0.27505  0.11360  Biso   1.000  Zn
  O25      1.0000 0.75150  0.21350  0.96100  Biso   1.000  O
  H97      1.0000 0.74020  0.19230  0.07510  Biso   1.000  H
  N13      1.0000 0.85580  0.25170  0.14300  Biso   1.000  N
  C133     1.0000 0.89110  0.26970  0.98100  Biso   1.000  C
  H98      1.0000 0.88580  0.29670  0.86040  Biso   1.000  H
  N14      1.0000 0.93630  0.24640  0.00000  Biso   1.000  N
  C134     1.0000 0.87690  0.21540  0.27500  Biso   1.000  C
  O26      1.0000 0.16000  0.27140  0.58500  Biso   1.000  O
  C135     1.0000 0.85440  0.18440  0.47300  Biso   1.000  C
  H99      1.0000 0.82090  0.18880  0.52110  Biso   1.000  H
  O27      1.0000 0.13400  0.30210  0.23800  Biso   1.000  O
  C136     1.0000 0.88230  0.14680  0.59700  Biso   1.000  C
  C137     1.0000 0.86130  0.11520  0.79600  Biso   1.000  C
  H100     1.0000 0.82780  0.11980  0.84570  Biso   1.000  H
  C138     1.0000 0.88760  0.07700  0.92600  Biso   1.000  C
  H101     1.0000 0.87260  0.05610  0.05940  Biso   1.000  H
  C139     1.0000 0.93730  0.07100  0.84900  Biso   1.000  C
  H102     1.0000 0.95640  0.04570  0.93050  Biso   1.000  H
  C140     1.0000 0.95850  0.10270  0.65100  Biso   1.000  C
  H103     1.0000 0.99210  0.09820  0.60270  Biso   1.000  H
  C141     1.0000 0.93200  0.14090  0.52000  Biso   1.000  C
  C142     1.0000 0.95430  0.17170  0.32400  Biso   1.000  C
  H104     1.0000 0.98780  0.16730  0.27480  Biso   1.000  H
  C143     1.0000 0.92640  0.20930  0.20000  Biso   1.000  C
  C144     1.0000 0.98280  0.25800  0.87500  Biso   1.000  C
  C145     1.0000 0.07330  0.28010  0.64100  Biso   1.000  C
  C146     1.0000 0.99210  0.30580  0.78100  Biso   1.000  C
  H105     1.0000 0.96730  0.33010  0.79910  Biso   1.000  H
  C147     1.0000 0.03800  0.31860  0.66000  Biso   1.000  C
  H106     1.0000 0.04470  0.35080  0.59550  Biso   1.000  H
  C148     1.0000 0.06770  0.23040  0.72900  Biso   1.000  C
  H107     1.0000 0.09240  0.20610  0.71250  Biso   1.000  H
  C149     1.0000 0.02040  0.22200  0.84700  Biso   1.000  C
  H108     1.0000 0.01330  0.18980  0.91070  Biso   1.000  H
  C150     1.0000 0.12290  0.29270  0.50200  Biso   1.000  C
  O28      1.0000 0.12550  0.33770  0.39700  Biso   1.000  O
  C151     1.0000 0.98560  0.27860  0.60600  Biso   1.000  C
  H109     1.0000 0.95620  0.28480  0.50570  Biso   1.000  H
  C152     1.0000 0.03090  0.29000  0.48400  Biso   1.000  C
  H110     1.0000 0.03290  0.30380  0.30230  Biso   1.000  H
  C153     1.0000 0.07250  0.25960  0.90900  Biso   1.000  C
  H111     1.0000 0.10190  0.25330  0.00870  Biso   1.000  H
  C154     1.0000 0.02620  0.24880  0.02400  Biso   1.000  C
  H112     1.0000 0.02440  0.23490  0.20480  Biso   1.000  H
  Zn8      1.0000 0.28640  0.77505  0.61360  Biso   1.000  Zn
  O29      1.0000 0.25150  0.71350  0.46100  Biso   1.000  O
  H113     1.0000 0.24020  0.69230  0.57510  Biso   1.000  H
  N15      1.0000 0.35580  0.75170  0.64300  Biso   1.000  N
  C155     1.0000 0.39110  0.76970  0.48100  Biso   1.000  C
  H114     1.0000 0.38580  0.79670  0.36040  Biso   1.000  H
  N16      1.0000 0.43630  0.74640  0.50000  Biso   1.000  N
  C156     1.0000 0.37690  0.71540  0.77500  Biso   1.000  C
  O30      1.0000 0.66000  0.77140  0.08500  Biso   1.000  O
  C157     1.0000 0.35440  0.68440  0.97300  Biso   1.000  C
  H115     1.0000 0.32090  0.68880  0.02110  Biso   1.000  H
  O31      1.0000 0.63400  0.80210  0.73800  Biso   1.000  O
  C158     1.0000 0.38230  0.64680  0.09700  Biso   1.000  C
  C159     1.0000 0.36130  0.61520  0.29600  Biso   1.000  C
  H116     1.0000 0.32780  0.61980  0.34570  Biso   1.000  H
  C160     1.0000 0.38760  0.57700  0.42600  Biso   1.000  C
  H117     1.0000 0.37260  0.55610  0.55940  Biso   1.000  H
  C161     1.0000 0.43730  0.57100  0.34900  Biso   1.000  C
  H118     1.0000 0.45640  0.54570  0.43050  Biso   1.000  H
  C162     1.0000 0.45850  0.60270  0.15100  Biso   1.000  C
  H119     1.0000 0.49210  0.59820  0.10270  Biso   1.000  H
  C163     1.0000 0.43200  0.64090  0.02000  Biso   1.000  C
  C164     1.0000 0.45430  0.67170  0.82400  Biso   1.000  C
  H120     1.0000 0.48780  0.66730  0.77480  Biso   1.000  H
  C165     1.0000 0.42640  0.70930  0.70000  Biso   1.000  C
  C166     1.0000 0.48280  0.75800  0.37500  Biso   1.000  C
  C167     1.0000 0.57330  0.78010  0.14100  Biso   1.000  C
  C168     1.0000 0.49210  0.80580  0.28100  Biso   1.000  C
  H121     1.0000 0.46730  0.83010  0.29910  Biso   1.000  H
  C169     1.0000 0.53800  0.81860  0.16000  Biso   1.000  C
  H122     1.0000 0.54470  0.85080  0.09550  Biso   1.000  H
  C170     1.0000 0.56770  0.73040  0.22900  Biso   1.000  C
  H123     1.0000 0.59240  0.70610  0.21250  Biso   1.000  H
  C171     1.0000 0.52040  0.72200  0.34700  Biso   1.000  C
  H124     1.0000 0.51330  0.68980  0.41070  Biso   1.000  H
  C172     1.0000 0.62290  0.79270  0.00200  Biso   1.000  C
  O32      1.0000 0.62550  0.83770  0.89700  Biso   1.000  O
  C173     1.0000 0.48560  0.77860  0.10600  Biso   1.000  C
  H125     1.0000 0.45620  0.78480  0.00570  Biso   1.000  H
  C174     1.0000 0.53090  0.79000  0.98400  Biso   1.000  C
  H126     1.0000 0.53290  0.80380  0.80230  Biso   1.000  H
  C175     1.0000 0.57250  0.75960  0.40900  Biso   1.000  C
  H127     1.0000 0.60190  0.75330  0.50870  Biso   1.000  H
  C176     1.0000 0.52620  0.74880  0.52400  Biso   1.000  C
  H128     1.0000 0.52440  0.73490  0.70480  Biso   1.000  H
