data_image0
_cell_length_a       26.5086
_cell_length_b       26.5086
_cell_length_c       5.1903
_cell_angle_alpha    90
_cell_angle_beta     90
_cell_angle_gamma    90

_symmetry_space_group_name_H-M    "P 1"
_symmetry_int_tables_number       1

loop_
  _symmetry_equiv_pos_as_xyz
  'x, y, z'

loop_
  _atom_site_label
  _atom_site_occupancy
  _atom_site_fract_x
  _atom_site_fract_y
  _atom_site_fract_z
  _atom_site_thermal_displace_type
  _atom_site_B_iso_or_equiv
  _atom_site_type_symbol
  Zn1      1.0000 0.27260  0.21425  0.92088  Biso   1.000  Zn
  O1       1.0000 0.22163  0.25317  0.09520  Biso   1.000  O
  H1       1.0000 0.20090  0.26410  0.98340  Biso   1.000  H
  N1       1.0000 0.25079  0.14162  0.90400  Biso   1.000  N
  C1       1.0000 0.26753  0.10427  0.04000  Biso   1.000  C
  H2       1.0000 0.29350  0.10760  0.15930  Biso   1.000  H
  N2       1.0000 0.24392  0.06010  0.99310  Biso   1.000  N
  C2       1.0000 0.21236  0.12213  0.75050  Biso   1.000  C
  O2       1.0000 0.27774  0.83342  0.36840  Biso   1.000  O
  C3       1.0000 0.18351  0.14400  0.56590  Biso   1.000  C
  H3       1.0000 0.18750  0.17800  0.52650  Biso   1.000  H
  O3       1.0000 0.32000  0.87140  0.66900  Biso   1.000  O
  C4       1.0000 0.14797  0.11521  0.43650  Biso   1.000  C
  C5       1.0000 0.11790  0.13597  0.23520  Biso   1.000  C
  H4       1.0000 0.12160  0.16980  0.19080  Biso   1.000  H
  C6       1.0000 0.08352  0.10660  0.10600  Biso   1.000  C
  H5       1.0000 0.06460  0.12020  0.97190  Biso   1.000  H
  C7       1.0000 0.07710  0.05650  0.17640  Biso   1.000  C
  H6       1.0000 0.05280  0.03730  0.09230  Biso   1.000  H
  C8       1.0000 0.10508  0.03502  0.36390  Biso   1.000  C
  H7       1.0000 0.09970  0.00130  0.40580  Biso   1.000  H
  C9       1.0000 0.14240  0.06266  0.49800  Biso   1.000  C
  C10      1.0000 0.17215  0.04042  0.68420  Biso   1.000  C
  H8       1.0000 0.16830  0.00650  0.72540  Biso   1.000  H
  C11      1.0000 0.20763  0.06968  0.80750  Biso   1.000  C
  C12      1.0000 0.25733  0.01244  0.10280  Biso   1.000  C
  C13      1.0000 0.28450  0.92112  0.31730  Biso   1.000  C
  C14      1.0000 0.30560  0.00480  0.17100  Biso   1.000  C
  H9       1.0000 0.32850  0.03130  0.15790  Biso   1.000  H
  C15      1.0000 0.32170  0.95900  0.25700  Biso   1.000  C
  H10      1.0000 0.35600  0.95240  0.27750  Biso   1.000  H
  C16      1.0000 0.23740  0.93020  0.25000  Biso   1.000  C
  H11      1.0000 0.21350  0.90460  0.26420  Biso   1.000  H
  C17      1.0000 0.22280  0.97730  0.15940  Biso   1.000  C
  H12      1.0000 0.18870  0.98450  0.13780  Biso   1.000  H
  C18      1.0000 0.29840  0.87120  0.44030  Biso   1.000  C
  O4       1.0000 0.34620  0.86740  0.50000  Biso   1.000  O
  C19      1.0000 0.27400  0.01220  0.34800  Biso   1.000  C
  H13      1.0000 0.27590  0.04200  0.44230  Biso   1.000  H
  C20      1.0000 0.28880  0.96510  0.45900  Biso   1.000  C
  H14      1.0000 0.30120  0.96400  0.62680  Biso   1.000  H
  C21      1.0000 0.26550  0.92240  0.08400  Biso   1.000  C
  H15      1.0000 0.26020  0.89220  0.99700  Biso   1.000  H
  C22      1.0000 0.25290  0.96720  0.96500  Biso   1.000  C
  H16      1.0000 0.24170  0.96730  0.79470  Biso   1.000  H
  Zn2      1.0000 0.77260  0.71425  0.42088  Biso   1.000  Zn
  O5       1.0000 0.72163  0.75317  0.59520  Biso   1.000  O
  H17      1.0000 0.70090  0.76410  0.48340  Biso   1.000  H
  N3       1.0000 0.75079  0.64162  0.40400  Biso   1.000  N
  C23      1.0000 0.76753  0.60427  0.54000  Biso   1.000  C
  H18      1.0000 0.79350  0.60760  0.65930  Biso   1.000  H
  N4       1.0000 0.74392  0.56010  0.49310  Biso   1.000  N
  C24      1.0000 0.71236  0.62213  0.25050  Biso   1.000  C
  O6       1.0000 0.77774  0.33342  0.86840  Biso   1.000  O
  C25      1.0000 0.68351  0.64400  0.06590  Biso   1.000  C
  H19      1.0000 0.68750  0.67800  0.02650  Biso   1.000  H
  O7       1.0000 0.82000  0.37140  0.16900  Biso   1.000  O
  C26      1.0000 0.64797  0.61521  0.93650  Biso   1.000  C
  C27      1.0000 0.61790  0.63597  0.73520  Biso   1.000  C
  H20      1.0000 0.62160  0.66980  0.69080  Biso   1.000  H
  C28      1.0000 0.58352  0.60660  0.60600  Biso   1.000  C
  H21      1.0000 0.56460  0.62020  0.47190  Biso   1.000  H
  C29      1.0000 0.57710  0.55650  0.67640  Biso   1.000  C
  H22      1.0000 0.55280  0.53730  0.59230  Biso   1.000  H
  C30      1.0000 0.60508  0.53502  0.86390  Biso   1.000  C
  H23      1.0000 0.59970  0.50130  0.90580  Biso   1.000  H
  C31      1.0000 0.64240  0.56266  0.99800  Biso   1.000  C
  C32      1.0000 0.67215  0.54042  0.18420  Biso   1.000  C
  H24      1.0000 0.66830  0.50650  0.22540  Biso   1.000  H
  C33      1.0000 0.70763  0.56968  0.30750  Biso   1.000  C
  C34      1.0000 0.75733  0.51244  0.60280  Biso   1.000  C
  C35      1.0000 0.78450  0.42112  0.81730  Biso   1.000  C
  C36      1.0000 0.80560  0.50480  0.67100  Biso   1.000  C
  H25      1.0000 0.82850  0.53130  0.65790  Biso   1.000  H
  C37      1.0000 0.82170  0.45900  0.75700  Biso   1.000  C
  H26      1.0000 0.85600  0.45240  0.77750  Biso   1.000  H
  C38      1.0000 0.73740  0.43020  0.75000  Biso   1.000  C
  H27      1.0000 0.71350  0.40460  0.76420  Biso   1.000  H
  C39      1.0000 0.72280  0.47730  0.65940  Biso   1.000  C
  H28      1.0000 0.68870  0.48450  0.63780  Biso   1.000  H
  C40      1.0000 0.79840  0.37120  0.94030  Biso   1.000  C
  O8       1.0000 0.84620  0.36740  0.00000  Biso   1.000  O
  C41      1.0000 0.77400  0.51220  0.84800  Biso   1.000  C
  H29      1.0000 0.77590  0.54200  0.94230  Biso   1.000  H
  C42      1.0000 0.78880  0.46510  0.95900  Biso   1.000  C
  H30      1.0000 0.80120  0.46400  0.12680  Biso   1.000  H
  C43      1.0000 0.76550  0.42240  0.58400  Biso   1.000  C
  H31      1.0000 0.76020  0.39220  0.49700  Biso   1.000  H
  C44      1.0000 0.75290  0.46720  0.46500  Biso   1.000  C
  H32      1.0000 0.74170  0.46730  0.29470  Biso   1.000  H
  Zn3      1.0000 0.72740  0.78575  0.92088  Biso   1.000  Zn
  O9       1.0000 0.77837  0.74683  0.09520  Biso   1.000  O
  H33      1.0000 0.79910  0.73590  0.98340  Biso   1.000  H
  N5       1.0000 0.74921  0.85838  0.90400  Biso   1.000  N
  C45      1.0000 0.73247  0.89573  0.04000  Biso   1.000  C
  H34      1.0000 0.70650  0.89240  0.15930  Biso   1.000  H
  N6       1.0000 0.75608  0.93990  0.99310  Biso   1.000  N
  C46      1.0000 0.78764  0.87787  0.75050  Biso   1.000  C
  O10      1.0000 0.72226  0.16658  0.36840  Biso   1.000  O
  C47      1.0000 0.81649  0.85600  0.56590  Biso   1.000  C
  H35      1.0000 0.81250  0.82200  0.52650  Biso   1.000  H
  O11      1.0000 0.68000  0.12860  0.66900  Biso   1.000  O
  C48      1.0000 0.85203  0.88479  0.43650  Biso   1.000  C
  C49      1.0000 0.88210  0.86403  0.23520  Biso   1.000  C
  H36      1.0000 0.87840  0.83020  0.19080  Biso   1.000  H
  C50      1.0000 0.91648  0.89340  0.10600  Biso   1.000  C
  H37      1.0000 0.93540  0.87980  0.97190  Biso   1.000  H
  C51      1.0000 0.92290  0.94350  0.17640  Biso   1.000  C
  H38      1.0000 0.94720  0.96270  0.09230  Biso   1.000  H
  C52      1.0000 0.89492  0.96498  0.36390  Biso   1.000  C
  H39      1.0000 0.90030  0.99870  0.40580  Biso   1.000  H
  C53      1.0000 0.85760  0.93734  0.49800  Biso   1.000  C
  C54      1.0000 0.82785  0.95958  0.68420  Biso   1.000  C
  H40      1.0000 0.83170  0.99350  0.72540  Biso   1.000  H
  C55      1.0000 0.79237  0.93032  0.80750  Biso   1.000  C
  C56      1.0000 0.74267  0.98756  0.10280  Biso   1.000  C
  C57      1.0000 0.71550  0.07888  0.31730  Biso   1.000  C
  C58      1.0000 0.69440  0.99520  0.17100  Biso   1.000  C
  H41      1.0000 0.67150  0.96870  0.15790  Biso   1.000  H
  C59      1.0000 0.67830  0.04100  0.25700  Biso   1.000  C
  H42      1.0000 0.64400  0.04760  0.27750  Biso   1.000  H
  C60      1.0000 0.76260  0.06980  0.25000  Biso   1.000  C
  H43      1.0000 0.78650  0.09540  0.26420  Biso   1.000  H
  C61      1.0000 0.77720  0.02270  0.15940  Biso   1.000  C
  H44      1.0000 0.81130  0.01550  0.13780  Biso   1.000  H
  C62      1.0000 0.70160  0.12880  0.44030  Biso   1.000  C
  O12      1.0000 0.65380  0.13260  0.50000  Biso   1.000  O
  C63      1.0000 0.72600  0.98780  0.34800  Biso   1.000  C
  H45      1.0000 0.72410  0.95800  0.44230  Biso   1.000  H
  C64      1.0000 0.71120  0.03490  0.45900  Biso   1.000  C
  H46      1.0000 0.69880  0.03600  0.62680  Biso   1.000  H
  C65      1.0000 0.73450  0.07760  0.08400  Biso   1.000  C
  H47      1.0000 0.73980  0.10780  0.99700  Biso   1.000  H
  C66      1.0000 0.74710  0.03280  0.96500  Biso   1.000  C
  H48      1.0000 0.75830  0.03270  0.79470  Biso   1.000  H
  Zn4      1.0000 0.22740  0.28575  0.42088  Biso   1.000  Zn
  O13      1.0000 0.27837  0.24683  0.59520  Biso   1.000  O
  H49      1.0000 0.29910  0.23590  0.48340  Biso   1.000  H
  N7       1.0000 0.24921  0.35838  0.40400  Biso   1.000  N
  C67      1.0000 0.23247  0.39573  0.54000  Biso   1.000  C
  H50      1.0000 0.20650  0.39240  0.65930  Biso   1.000  H
  N8       1.0000 0.25608  0.43990  0.49310  Biso   1.000  N
  C68      1.0000 0.28764  0.37787  0.25050  Biso   1.000  C
  O14      1.0000 0.22226  0.66658  0.86840  Biso   1.000  O
  C69      1.0000 0.31649  0.35600  0.06590  Biso   1.000  C
  H51      1.0000 0.31250  0.32200  0.02650  Biso   1.000  H
  O15      1.0000 0.18000  0.62860  0.16900  Biso   1.000  O
  C70      1.0000 0.35203  0.38479  0.93650  Biso   1.000  C
  C71      1.0000 0.38210  0.36403  0.73520  Biso   1.000  C
  H52      1.0000 0.37840  0.33020  0.69080  Biso   1.000  H
  C72      1.0000 0.41648  0.39340  0.60600  Biso   1.000  C
  H53      1.0000 0.43540  0.37980  0.47190  Biso   1.000  H
  C73      1.0000 0.42290  0.44350  0.67640  Biso   1.000  C
  H54      1.0000 0.44720  0.46270  0.59230  Biso   1.000  H
  C74      1.0000 0.39492  0.46498  0.86390  Biso   1.000  C
  H55      1.0000 0.40030  0.49870  0.90580  Biso   1.000  H
  C75      1.0000 0.35760  0.43734  0.99800  Biso   1.000  C
  C76      1.0000 0.32785  0.45958  0.18420  Biso   1.000  C
  H56      1.0000 0.33170  0.49350  0.22540  Biso   1.000  H
  C77      1.0000 0.29237  0.43032  0.30750  Biso   1.000  C
  C78      1.0000 0.24267  0.48756  0.60280  Biso   1.000  C
  C79      1.0000 0.21550  0.57888  0.81730  Biso   1.000  C
  C80      1.0000 0.19440  0.49520  0.67100  Biso   1.000  C
  H57      1.0000 0.17150  0.46870  0.65790  Biso   1.000  H
  C81      1.0000 0.17830  0.54100  0.75700  Biso   1.000  C
  H58      1.0000 0.14400  0.54760  0.77750  Biso   1.000  H
  C82      1.0000 0.26260  0.56980  0.75000  Biso   1.000  C
  H59      1.0000 0.28650  0.59540  0.76420  Biso   1.000  H
  C83      1.0000 0.27720  0.52270  0.65940  Biso   1.000  C
  H60      1.0000 0.31130  0.51550  0.63780  Biso   1.000  H
  C84      1.0000 0.20160  0.62880  0.94030  Biso   1.000  C
  O16      1.0000 0.15380  0.63260  0.00000  Biso   1.000  O
  C85      1.0000 0.22600  0.48780  0.84800  Biso   1.000  C
  H61      1.0000 0.22410  0.45800  0.94230  Biso   1.000  H
  C86      1.0000 0.21120  0.53490  0.95900  Biso   1.000  C
  H62      1.0000 0.19880  0.53600  0.12680  Biso   1.000  H
  C87      1.0000 0.23450  0.57760  0.58400  Biso   1.000  C
  H63      1.0000 0.23980  0.60780  0.49700  Biso   1.000  H
  C88      1.0000 0.24710  0.53280  0.46500  Biso   1.000  C
  H64      1.0000 0.25830  0.53270  0.29470  Biso   1.000  H
  Zn5      1.0000 0.21425  0.72740  0.07912  Biso   1.000  Zn
  O17      1.0000 0.25317  0.77837  0.90480  Biso   1.000  O
  H65      1.0000 0.26410  0.79910  0.01660  Biso   1.000  H
  N9       1.0000 0.14162  0.74921  0.09600  Biso   1.000  N
  C89      1.0000 0.10427  0.73247  0.96000  Biso   1.000  C
  H66      1.0000 0.10760  0.70650  0.84070  Biso   1.000  H
  N10      1.0000 0.06010  0.75608  0.00690  Biso   1.000  N
  C90      1.0000 0.12213  0.78764  0.24950  Biso   1.000  C
  O18      1.0000 0.83342  0.72226  0.63160  Biso   1.000  O
  C91      1.0000 0.14400  0.81649  0.43410  Biso   1.000  C
  H67      1.0000 0.17800  0.81250  0.47350  Biso   1.000  H
  O19      1.0000 0.87140  0.68000  0.33100  Biso   1.000  O
  C92      1.0000 0.11521  0.85203  0.56350  Biso   1.000  C
  C93      1.0000 0.13597  0.88210  0.76480  Biso   1.000  C
  H68      1.0000 0.16980  0.87840  0.80920  Biso   1.000  H
  C94      1.0000 0.10660  0.91648  0.89400  Biso   1.000  C
  H69      1.0000 0.12020  0.93540  0.02810  Biso   1.000  H
  C95      1.0000 0.05650  0.92290  0.82360  Biso   1.000  C
  H70      1.0000 0.03730  0.94720  0.90770  Biso   1.000  H
  C96      1.0000 0.03502  0.89492  0.63610  Biso   1.000  C
  H71      1.0000 0.00130  0.90030  0.59420  Biso   1.000  H
  C97      1.0000 0.06266  0.85760  0.50200  Biso   1.000  C
  C98      1.0000 0.04042  0.82785  0.31580  Biso   1.000  C
  H72      1.0000 0.00650  0.83170  0.27460  Biso   1.000  H
  C99      1.0000 0.06968  0.79237  0.19250  Biso   1.000  C
  C100     1.0000 0.01244  0.74267  0.89720  Biso   1.000  C
  C101     1.0000 0.92112  0.71550  0.68270  Biso   1.000  C
  C102     1.0000 0.00480  0.69440  0.82900  Biso   1.000  C
  H73      1.0000 0.03130  0.67150  0.84210  Biso   1.000  H
  C103     1.0000 0.95900  0.67830  0.74300  Biso   1.000  C
  H74      1.0000 0.95240  0.64400  0.72250  Biso   1.000  H
  C104     1.0000 0.93020  0.76260  0.75000  Biso   1.000  C
  H75      1.0000 0.90460  0.78650  0.73580  Biso   1.000  H
  C105     1.0000 0.97730  0.77720  0.84060  Biso   1.000  C
  H76      1.0000 0.98450  0.81130  0.86220  Biso   1.000  H
  C106     1.0000 0.87120  0.70160  0.55970  Biso   1.000  C
  O20      1.0000 0.86740  0.65380  0.50000  Biso   1.000  O
  C107     1.0000 0.01220  0.72600  0.65200  Biso   1.000  C
  H77      1.0000 0.04200  0.72410  0.55770  Biso   1.000  H
  C108     1.0000 0.96510  0.71120  0.54100  Biso   1.000  C
  H78      1.0000 0.96400  0.69880  0.37320  Biso   1.000  H
  C109     1.0000 0.92240  0.73450  0.91600  Biso   1.000  C
  H79      1.0000 0.89220  0.73980  0.00300  Biso   1.000  H
  C110     1.0000 0.96720  0.74710  0.03500  Biso   1.000  C
  H80      1.0000 0.96730  0.75830  0.20530  Biso   1.000  H
  Zn6      1.0000 0.71425  0.22740  0.57912  Biso   1.000  Zn
  O21      1.0000 0.75317  0.27837  0.40480  Biso   1.000  O
  H81      1.0000 0.76410  0.29910  0.51660  Biso   1.000  H
  N11      1.0000 0.64162  0.24921  0.59600  Biso   1.000  N
  C111     1.0000 0.60427  0.23247  0.46000  Biso   1.000  C
  H82      1.0000 0.60760  0.20650  0.34070  Biso   1.000  H
  N12      1.0000 0.56010  0.25608  0.50690  Biso   1.000  N
  C112     1.0000 0.62213  0.28764  0.74950  Biso   1.000  C
  O22      1.0000 0.33342  0.22226  0.13160  Biso   1.000  O
  C113     1.0000 0.64400  0.31649  0.93410  Biso   1.000  C
  H83      1.0000 0.67800  0.31250  0.97350  Biso   1.000  H
  O23      1.0000 0.37140  0.18000  0.83100  Biso   1.000  O
  C114     1.0000 0.61521  0.35203  0.06350  Biso   1.000  C
  C115     1.0000 0.63597  0.38210  0.26480  Biso   1.000  C
  H84      1.0000 0.66980  0.37840  0.30920  Biso   1.000  H
  C116     1.0000 0.60660  0.41648  0.39400  Biso   1.000  C
  H85      1.0000 0.62020  0.43540  0.52810  Biso   1.000  H
  C117     1.0000 0.55650  0.42290  0.32360  Biso   1.000  C
  H86      1.0000 0.53730  0.44720  0.40770  Biso   1.000  H
  C118     1.0000 0.53502  0.39492  0.13610  Biso   1.000  C
  H87      1.0000 0.50130  0.40030  0.09420  Biso   1.000  H
  C119     1.0000 0.56266  0.35760  0.00200  Biso   1.000  C
  C120     1.0000 0.54042  0.32785  0.81580  Biso   1.000  C
  H88      1.0000 0.50650  0.33170  0.77460  Biso   1.000  H
  C121     1.0000 0.56968  0.29237  0.69250  Biso   1.000  C
  C122     1.0000 0.51244  0.24267  0.39720  Biso   1.000  C
  C123     1.0000 0.42112  0.21550  0.18270  Biso   1.000  C
  C124     1.0000 0.50480  0.19440  0.32900  Biso   1.000  C
  H89      1.0000 0.53130  0.17150  0.34210  Biso   1.000  H
  C125     1.0000 0.45900  0.17830  0.24300  Biso   1.000  C
  H90      1.0000 0.45240  0.14400  0.22250  Biso   1.000  H
  C126     1.0000 0.43020  0.26260  0.25000  Biso   1.000  C
  H91      1.0000 0.40460  0.28650  0.23580  Biso   1.000  H
  C127     1.0000 0.47730  0.27720  0.34060  Biso   1.000  C
  H92      1.0000 0.48450  0.31130  0.36220  Biso   1.000  H
  C128     1.0000 0.37120  0.20160  0.05970  Biso   1.000  C
  O24      1.0000 0.36740  0.15380  0.00000  Biso   1.000  O
  C129     1.0000 0.51220  0.22600  0.15200  Biso   1.000  C
  H93      1.0000 0.54200  0.22410  0.05770  Biso   1.000  H
  C130     1.0000 0.46510  0.21120  0.04100  Biso   1.000  C
  H94      1.0000 0.46400  0.19880  0.87320  Biso   1.000  H
  C131     1.0000 0.42240  0.23450  0.41600  Biso   1.000  C
  H95      1.0000 0.39220  0.23980  0.50300  Biso   1.000  H
  C132     1.0000 0.46720  0.24710  0.53500  Biso   1.000  C
  H96      1.0000 0.46730  0.25830  0.70530  Biso   1.000  H
  Zn7      1.0000 0.78575  0.27260  0.07912  Biso   1.000  Zn
  O25      1.0000 0.74683  0.22163  0.90480  Biso   1.000  O
  H97      1.0000 0.73590  0.20090  0.01660  Biso   1.000  H
  N13      1.0000 0.85838  0.25079  0.09600  Biso   1.000  N
  C133     1.0000 0.89573  0.26753  0.96000  Biso   1.000  C
  H98      1.0000 0.89240  0.29350  0.84070  Biso   1.000  H
  N14      1.0000 0.93990  0.24392  0.00690  Biso   1.000  N
  C134     1.0000 0.87787  0.21236  0.24950  Biso   1.000  C
  O26      1.0000 0.16658  0.27774  0.63160  Biso   1.000  O
  C135     1.0000 0.85600  0.18351  0.43410  Biso   1.000  C
  H99      1.0000 0.82200  0.18750  0.47350  Biso   1.000  H
  O27      1.0000 0.12860  0.32000  0.33100  Biso   1.000  O
  C136     1.0000 0.88479  0.14797  0.56350  Biso   1.000  C
  C137     1.0000 0.86403  0.11790  0.76480  Biso   1.000  C
  H100     1.0000 0.83020  0.12160  0.80920  Biso   1.000  H
  C138     1.0000 0.89340  0.08352  0.89400  Biso   1.000  C
  H101     1.0000 0.87980  0.06460  0.02810  Biso   1.000  H
  C139     1.0000 0.94350  0.07710  0.82360  Biso   1.000  C
  H102     1.0000 0.96270  0.05280  0.90770  Biso   1.000  H
  C140     1.0000 0.96498  0.10508  0.63610  Biso   1.000  C
  H103     1.0000 0.99870  0.09970  0.59420  Biso   1.000  H
  C141     1.0000 0.93734  0.14240  0.50200  Biso   1.000  C
  C142     1.0000 0.95958  0.17215  0.31580  Biso   1.000  C
  H104     1.0000 0.99350  0.16830  0.27460  Biso   1.000  H
  C143     1.0000 0.93032  0.20763  0.19250  Biso   1.000  C
  C144     1.0000 0.98756  0.25733  0.89720  Biso   1.000  C
  C145     1.0000 0.07888  0.28450  0.68270  Biso   1.000  C
  C146     1.0000 0.99520  0.30560  0.82900  Biso   1.000  C
  H105     1.0000 0.96870  0.32850  0.84210  Biso   1.000  H
  C147     1.0000 0.04100  0.32170  0.74300  Biso   1.000  C
  H106     1.0000 0.04760  0.35600  0.72250  Biso   1.000  H
  C148     1.0000 0.06980  0.23740  0.75000  Biso   1.000  C
  H107     1.0000 0.09540  0.21350  0.73580  Biso   1.000  H
  C149     1.0000 0.02270  0.22280  0.84060  Biso   1.000  C
  H108     1.0000 0.01550  0.18870  0.86220  Biso   1.000  H
  C150     1.0000 0.12880  0.29840  0.55970  Biso   1.000  C
  O28      1.0000 0.13260  0.34620  0.50000  Biso   1.000  O
  C151     1.0000 0.98780  0.27400  0.65200  Biso   1.000  C
  H109     1.0000 0.95800  0.27590  0.55770  Biso   1.000  H
  C152     1.0000 0.03490  0.28880  0.54100  Biso   1.000  C
  H110     1.0000 0.03600  0.30120  0.37320  Biso   1.000  H
  C153     1.0000 0.07760  0.26550  0.91600  Biso   1.000  C
  H111     1.0000 0.10780  0.26020  0.00300  Biso   1.000  H
  C154     1.0000 0.03280  0.25290  0.03500  Biso   1.000  C
  H112     1.0000 0.03270  0.24170  0.20530  Biso   1.000  H
  Zn8      1.0000 0.28575  0.77260  0.57912  Biso   1.000  Zn
  O29      1.0000 0.24683  0.72163  0.40480  Biso   1.000  O
  H113     1.0000 0.23590  0.70090  0.51660  Biso   1.000  H
  N15      1.0000 0.35838  0.75079  0.59600  Biso   1.000  N
  C155     1.0000 0.39573  0.76753  0.46000  Biso   1.000  C
  H114     1.0000 0.39240  0.79350  0.34070  Biso   1.000  H
  N16      1.0000 0.43990  0.74392  0.50690  Biso   1.000  N
  C156     1.0000 0.37787  0.71236  0.74950  Biso   1.000  C
  O30      1.0000 0.66658  0.77774  0.13160  Biso   1.000  O
  C157     1.0000 0.35600  0.68351  0.93410  Biso   1.000  C
  H115     1.0000 0.32200  0.68750  0.97350  Biso   1.000  H
  O31      1.0000 0.62860  0.82000  0.83100  Biso   1.000  O
  C158     1.0000 0.38479  0.64797  0.06350  Biso   1.000  C
  C159     1.0000 0.36403  0.61790  0.26480  Biso   1.000  C
  H116     1.0000 0.33020  0.62160  0.30920  Biso   1.000  H
  C160     1.0000 0.39340  0.58352  0.39400  Biso   1.000  C
  H117     1.0000 0.37980  0.56460  0.52810  Biso   1.000  H
  C161     1.0000 0.44350  0.57710  0.32360  Biso   1.000  C
  H118     1.0000 0.46270  0.55280  0.40770  Biso   1.000  H
  C162     1.0000 0.46498  0.60508  0.13610  Biso   1.000  C
  H119     1.0000 0.49870  0.59970  0.09420  Biso   1.000  H
  C163     1.0000 0.43734  0.64240  0.00200  Biso   1.000  C
  C164     1.0000 0.45958  0.67215  0.81580  Biso   1.000  C
  H120     1.0000 0.49350  0.66830  0.77460  Biso   1.000  H
  C165     1.0000 0.43032  0.70763  0.69250  Biso   1.000  C
  C166     1.0000 0.48756  0.75733  0.39720  Biso   1.000  C
  C167     1.0000 0.57888  0.78450  0.18270  Biso   1.000  C
  C168     1.0000 0.49520  0.80560  0.32900  Biso   1.000  C
  H121     1.0000 0.46870  0.82850  0.34210  Biso   1.000  H
  C169     1.0000 0.54100  0.82170  0.24300  Biso   1.000  C
  H122     1.0000 0.54760  0.85600  0.22250  Biso   1.000  H
  C170     1.0000 0.56980  0.73740  0.25000  Biso   1.000  C
  H123     1.0000 0.59540  0.71350  0.23580  Biso   1.000  H
  C171     1.0000 0.52270  0.72280  0.34060  Biso   1.000  C
  H124     1.0000 0.51550  0.68870  0.36220  Biso   1.000  H
  C172     1.0000 0.62880  0.79840  0.05970  Biso   1.000  C
  O32      1.0000 0.63260  0.84620  0.00000  Biso   1.000  O
  C173     1.0000 0.48780  0.77400  0.15200  Biso   1.000  C
  H125     1.0000 0.45800  0.77590  0.05770  Biso   1.000  H
  C174     1.0000 0.53490  0.78880  0.04100  Biso   1.000  C
  H126     1.0000 0.53600  0.80120  0.87320  Biso   1.000  H
  C175     1.0000 0.57760  0.76550  0.41600  Biso   1.000  C
  H127     1.0000 0.60780  0.76020  0.50300  Biso   1.000  H
  C176     1.0000 0.53280  0.75290  0.53500  Biso   1.000  C
  H128     1.0000 0.53270  0.74170  0.70530  Biso   1.000  H
