data_image0
_cell_length_a       26.564
_cell_length_b       26.564
_cell_length_c       5.024
_cell_angle_alpha    90
_cell_angle_beta     90
_cell_angle_gamma    90

_symmetry_space_group_name_H-M    "P 1"
_symmetry_int_tables_number       1

loop_
  _symmetry_equiv_pos_as_xyz
  'x, y, z'

loop_
  _atom_site_label
  _atom_site_occupancy
  _atom_site_fract_x
  _atom_site_fract_y
  _atom_site_fract_z
  _atom_site_thermal_displace_type
  _atom_site_B_iso_or_equiv
  _atom_site_type_symbol
  Zn1      1.0000 0.27318  0.21387  0.90550  Biso   1.000  Zn
  O1       1.0000 0.21960  0.25340  0.07800  Biso   1.000  O
  H1       1.0000 0.19860  0.26450  0.96430  Biso   1.000  H
  N1       1.0000 0.25710  0.14070  0.89400  Biso   1.000  N
  C1       1.0000 0.27100  0.10300  0.04400  Biso   1.000  C
  H2       1.0000 0.29680  0.10490  0.16870  Biso   1.000  H
  N2       1.0000 0.24360  0.06080  0.99700  Biso   1.000  N
  C2       1.0000 0.21400  0.12020  0.72500  Biso   1.000  C
  O2       1.0000 0.27650  0.83410  0.37700  Biso   1.000  O
  C3       1.0000 0.18430  0.14220  0.53100  Biso   1.000  C
  H3       1.0000 0.18910  0.17570  0.48340  Biso   1.000  H
  O3       1.0000 0.31200  0.87740  0.68700  Biso   1.000  O
  C4       1.0000 0.14750  0.11370  0.40900  Biso   1.000  C
  C5       1.0000 0.11730  0.13470  0.21400  Biso   1.000  C
  H4       1.0000 0.12250  0.16820  0.16820  Biso   1.000  H
  C6       1.0000 0.07990  0.10820  0.08600  Biso   1.000  C
  H5       1.0000 0.05990  0.12270  0.95470  Biso   1.000  H
  C7       1.0000 0.07430  0.05880  0.16400  Biso   1.000  C
  H6       1.0000 0.04960  0.03910  0.08330  Biso   1.000  H
  C8       1.0000 0.10440  0.03790  0.35800  Biso   1.000  C
  H7       1.0000 0.09920  0.00440  0.40440  Biso   1.000  H
  C9       1.0000 0.14190  0.06430  0.48670  Biso   1.000  C
  C10      1.0000 0.17140  0.04210  0.68100  Biso   1.000  C
  H8       1.0000 0.16730  0.00840  0.72530  Biso   1.000  H
  C11      1.0000 0.20700  0.07130  0.80800  Biso   1.000  C
  C12      1.0000 0.25780  0.01310  0.11600  Biso   1.000  C
  C13      1.0000 0.28430  0.92270  0.33300  Biso   1.000  C
  C14      1.0000 0.28030  0.01110  0.36400  Biso   1.000  C
  H9       1.0000 0.28630  0.04090  0.45560  Biso   1.000  H
  C15      1.0000 0.29390  0.96600  0.47700  Biso   1.000  C
  H10      1.0000 0.30890  0.96470  0.64390  Biso   1.000  H
  C16      1.0000 0.26190  0.92300  0.08600  Biso   1.000  C
  H11      1.0000 0.25580  0.89320  0.99410  Biso   1.000  H
  C17      1.0000 0.24900  0.96900  0.98000  Biso   1.000  C
  H12      1.0000 0.23400  0.97030  0.81250  Biso   1.000  H
  C18      1.0000 0.30220  0.87250  0.44100  Biso   1.000  C
  O4       1.0000 0.34200  0.86900  0.57200  Biso   1.000  O
  C19      1.0000 0.30760  0.00320  0.16700  Biso   1.000  C
  H13      1.0000 0.33180  0.02740  0.12740  Biso   1.000  H
  C20      1.0000 0.32250  0.95730  0.27800  Biso   1.000  C
  H14      1.0000 0.35610  0.95020  0.31400  Biso   1.000  H
  C21      1.0000 0.23270  0.92930  0.28700  Biso   1.000  C
  H15      1.0000 0.20840  0.90520  0.32570  Biso   1.000  H
  C22      1.0000 0.22210  0.97640  0.17700  Biso   1.000  C
  H16      1.0000 0.18860  0.98390  0.14130  Biso   1.000  H
  Zn2      1.0000 0.77318  0.71387  0.40550  Biso   1.000  Zn
  O5       1.0000 0.71960  0.75340  0.57800  Biso   1.000  O
  H17      1.0000 0.69860  0.76450  0.46430  Biso   1.000  H
  N3       1.0000 0.75710  0.64070  0.39400  Biso   1.000  N
  C23      1.0000 0.77100  0.60300  0.54400  Biso   1.000  C
  H18      1.0000 0.79680  0.60490  0.66870  Biso   1.000  H
  N4       1.0000 0.74360  0.56080  0.49700  Biso   1.000  N
  C24      1.0000 0.71400  0.62020  0.22500  Biso   1.000  C
  O6       1.0000 0.77650  0.33410  0.87700  Biso   1.000  O
  C25      1.0000 0.68430  0.64220  0.03100  Biso   1.000  C
  H19      1.0000 0.68910  0.67570  0.98340  Biso   1.000  H
  O7       1.0000 0.81200  0.37740  0.18700  Biso   1.000  O
  C26      1.0000 0.64750  0.61370  0.90900  Biso   1.000  C
  C27      1.0000 0.61730  0.63470  0.71400  Biso   1.000  C
  H20      1.0000 0.62250  0.66820  0.66820  Biso   1.000  H
  C28      1.0000 0.57990  0.60820  0.58600  Biso   1.000  C
  H21      1.0000 0.55990  0.62270  0.45470  Biso   1.000  H
  C29      1.0000 0.57430  0.55880  0.66400  Biso   1.000  C
  H22      1.0000 0.54960  0.53910  0.58330  Biso   1.000  H
  C30      1.0000 0.60440  0.53790  0.85800  Biso   1.000  C
  H23      1.0000 0.59920  0.50440  0.90440  Biso   1.000  H
  C31      1.0000 0.64190  0.56430  0.98670  Biso   1.000  C
  C32      1.0000 0.67140  0.54210  0.18100  Biso   1.000  C
  H24      1.0000 0.66730  0.50840  0.22530  Biso   1.000  H
  C33      1.0000 0.70700  0.57130  0.30800  Biso   1.000  C
  C34      1.0000 0.75780  0.51310  0.61600  Biso   1.000  C
  C35      1.0000 0.78430  0.42270  0.83300  Biso   1.000  C
  C36      1.0000 0.78030  0.51110  0.86400  Biso   1.000  C
  H25      1.0000 0.78630  0.54090  0.95560  Biso   1.000  H
  C37      1.0000 0.79390  0.46600  0.97700  Biso   1.000  C
  H26      1.0000 0.80890  0.46470  0.14390  Biso   1.000  H
  C38      1.0000 0.76190  0.42300  0.58600  Biso   1.000  C
  H27      1.0000 0.75580  0.39320  0.49410  Biso   1.000  H
  C39      1.0000 0.74900  0.46900  0.48000  Biso   1.000  C
  H28      1.0000 0.73400  0.47030  0.31250  Biso   1.000  H
  C40      1.0000 0.80220  0.37250  0.94100  Biso   1.000  C
  O8       1.0000 0.84200  0.36900  0.07200  Biso   1.000  O
  C41      1.0000 0.80760  0.50320  0.66700  Biso   1.000  C
  H29      1.0000 0.83180  0.52740  0.62740  Biso   1.000  H
  C42      1.0000 0.82250  0.45730  0.77800  Biso   1.000  C
  H30      1.0000 0.85610  0.45020  0.81400  Biso   1.000  H
  C43      1.0000 0.73270  0.42930  0.78700  Biso   1.000  C
  H31      1.0000 0.70840  0.40520  0.82570  Biso   1.000  H
  C44      1.0000 0.72210  0.47640  0.67700  Biso   1.000  C
  H32      1.0000 0.68860  0.48390  0.64130  Biso   1.000  H
  Zn3      1.0000 0.72682  0.78613  0.90550  Biso   1.000  Zn
  O9       1.0000 0.78040  0.74660  0.07800  Biso   1.000  O
  H33      1.0000 0.80140  0.73550  0.96430  Biso   1.000  H
  N5       1.0000 0.74290  0.85930  0.89400  Biso   1.000  N
  C45      1.0000 0.72900  0.89700  0.04400  Biso   1.000  C
  H34      1.0000 0.70320  0.89510  0.16870  Biso   1.000  H
  N6       1.0000 0.75640  0.93920  0.99700  Biso   1.000  N
  C46      1.0000 0.78600  0.87980  0.72500  Biso   1.000  C
  O10      1.0000 0.72350  0.16590  0.37700  Biso   1.000  O
  C47      1.0000 0.81570  0.85780  0.53100  Biso   1.000  C
  H35      1.0000 0.81090  0.82430  0.48340  Biso   1.000  H
  O11      1.0000 0.68800  0.12260  0.68700  Biso   1.000  O
  C48      1.0000 0.85250  0.88630  0.40900  Biso   1.000  C
  C49      1.0000 0.88270  0.86530  0.21400  Biso   1.000  C
  H36      1.0000 0.87750  0.83180  0.16820  Biso   1.000  H
  C50      1.0000 0.92010  0.89180  0.08600  Biso   1.000  C
  H37      1.0000 0.94010  0.87730  0.95470  Biso   1.000  H
  C51      1.0000 0.92570  0.94120  0.16400  Biso   1.000  C
  H38      1.0000 0.95040  0.96090  0.08330  Biso   1.000  H
  C52      1.0000 0.89560  0.96210  0.35800  Biso   1.000  C
  H39      1.0000 0.90080  0.99560  0.40440  Biso   1.000  H
  C53      1.0000 0.85810  0.93570  0.48670  Biso   1.000  C
  C54      1.0000 0.82860  0.95790  0.68100  Biso   1.000  C
  H40      1.0000 0.83270  0.99160  0.72530  Biso   1.000  H
  C55      1.0000 0.79300  0.92870  0.80800  Biso   1.000  C
  C56      1.0000 0.74220  0.98690  0.11600  Biso   1.000  C
  C57      1.0000 0.71570  0.07730  0.33300  Biso   1.000  C
  C58      1.0000 0.71970  0.98890  0.36400  Biso   1.000  C
  H41      1.0000 0.71370  0.95910  0.45560  Biso   1.000  H
  C59      1.0000 0.70610  0.03400  0.47700  Biso   1.000  C
  H42      1.0000 0.69110  0.03530  0.64390  Biso   1.000  H
  C60      1.0000 0.73810  0.07700  0.08600  Biso   1.000  C
  H43      1.0000 0.74420  0.10680  0.99410  Biso   1.000  H
  C61      1.0000 0.75100  0.03100  0.98000  Biso   1.000  C
  H44      1.0000 0.76600  0.02970  0.81250  Biso   1.000  H
  C62      1.0000 0.69780  0.12750  0.44100  Biso   1.000  C
  O12      1.0000 0.65800  0.13100  0.57200  Biso   1.000  O
  C63      1.0000 0.69240  0.99680  0.16700  Biso   1.000  C
  H45      1.0000 0.66820  0.97260  0.12740  Biso   1.000  H
  C64      1.0000 0.67750  0.04270  0.27800  Biso   1.000  C
  H46      1.0000 0.64390  0.04980  0.31400  Biso   1.000  H
  C65      1.0000 0.76730  0.07070  0.28700  Biso   1.000  C
  H47      1.0000 0.79160  0.09480  0.32570  Biso   1.000  H
  C66      1.0000 0.77790  0.02360  0.17700  Biso   1.000  C
  H48      1.0000 0.81140  0.01610  0.14130  Biso   1.000  H
  Zn4      1.0000 0.22682  0.28613  0.40550  Biso   1.000  Zn
  O13      1.0000 0.28040  0.24660  0.57800  Biso   1.000  O
  H49      1.0000 0.30140  0.23550  0.46430  Biso   1.000  H
  N7       1.0000 0.24290  0.35930  0.39400  Biso   1.000  N
  C67      1.0000 0.22900  0.39700  0.54400  Biso   1.000  C
  H50      1.0000 0.20320  0.39510  0.66870  Biso   1.000  H
  N8       1.0000 0.25640  0.43920  0.49700  Biso   1.000  N
  C68      1.0000 0.28600  0.37980  0.22500  Biso   1.000  C
  O14      1.0000 0.22350  0.66590  0.87700  Biso   1.000  O
  C69      1.0000 0.31570  0.35780  0.03100  Biso   1.000  C
  H51      1.0000 0.31090  0.32430  0.98340  Biso   1.000  H
  O15      1.0000 0.18800  0.62260  0.18700  Biso   1.000  O
  C70      1.0000 0.35250  0.38630  0.90900  Biso   1.000  C
  C71      1.0000 0.38270  0.36530  0.71400  Biso   1.000  C
  H52      1.0000 0.37750  0.33180  0.66820  Biso   1.000  H
  C72      1.0000 0.42010  0.39180  0.58600  Biso   1.000  C
  H53      1.0000 0.44010  0.37730  0.45470  Biso   1.000  H
  C73      1.0000 0.42570  0.44120  0.66400  Biso   1.000  C
  H54      1.0000 0.45040  0.46090  0.58330  Biso   1.000  H
  C74      1.0000 0.39560  0.46210  0.85800  Biso   1.000  C
  H55      1.0000 0.40080  0.49560  0.90440  Biso   1.000  H
  C75      1.0000 0.35810  0.43570  0.98670  Biso   1.000  C
  C76      1.0000 0.32860  0.45790  0.18100  Biso   1.000  C
  H56      1.0000 0.33270  0.49160  0.22530  Biso   1.000  H
  C77      1.0000 0.29300  0.42870  0.30800  Biso   1.000  C
  C78      1.0000 0.24220  0.48690  0.61600  Biso   1.000  C
  C79      1.0000 0.21570  0.57730  0.83300  Biso   1.000  C
  C80      1.0000 0.21970  0.48890  0.86400  Biso   1.000  C
  H57      1.0000 0.21370  0.45910  0.95560  Biso   1.000  H
  C81      1.0000 0.20610  0.53400  0.97700  Biso   1.000  C
  H58      1.0000 0.19110  0.53530  0.14390  Biso   1.000  H
  C82      1.0000 0.23810  0.57700  0.58600  Biso   1.000  C
  H59      1.0000 0.24420  0.60680  0.49410  Biso   1.000  H
  C83      1.0000 0.25100  0.53100  0.48000  Biso   1.000  C
  H60      1.0000 0.26600  0.52970  0.31250  Biso   1.000  H
  C84      1.0000 0.19780  0.62750  0.94100  Biso   1.000  C
  O16      1.0000 0.15800  0.63100  0.07200  Biso   1.000  O
  C85      1.0000 0.19240  0.49680  0.66700  Biso   1.000  C
  H61      1.0000 0.16820  0.47260  0.62740  Biso   1.000  H
  C86      1.0000 0.17750  0.54270  0.77800  Biso   1.000  C
  H62      1.0000 0.14390  0.54980  0.81400  Biso   1.000  H
  C87      1.0000 0.26730  0.57070  0.78700  Biso   1.000  C
  H63      1.0000 0.29160  0.59480  0.82570  Biso   1.000  H
  C88      1.0000 0.27790  0.52360  0.67700  Biso   1.000  C
  H64      1.0000 0.31140  0.51610  0.64130  Biso   1.000  H
  Zn5      1.0000 0.21387  0.72682  0.09450  Biso   1.000  Zn
  O17      1.0000 0.25340  0.78040  0.92200  Biso   1.000  O
  H65      1.0000 0.26450  0.80140  0.03570  Biso   1.000  H
  N9       1.0000 0.14070  0.74290  0.10600  Biso   1.000  N
  C89      1.0000 0.10300  0.72900  0.95600  Biso   1.000  C
  H66      1.0000 0.10490  0.70320  0.83130  Biso   1.000  H
  N10      1.0000 0.06080  0.75640  0.00300  Biso   1.000  N
  C90      1.0000 0.12020  0.78600  0.27500  Biso   1.000  C
  O18      1.0000 0.83410  0.72350  0.62300  Biso   1.000  O
  C91      1.0000 0.14220  0.81570  0.46900  Biso   1.000  C
  H67      1.0000 0.17570  0.81090  0.51660  Biso   1.000  H
  O19      1.0000 0.87740  0.68800  0.31300  Biso   1.000  O
  C92      1.0000 0.11370  0.85250  0.59100  Biso   1.000  C
  C93      1.0000 0.13470  0.88270  0.78600  Biso   1.000  C
  H68      1.0000 0.16820  0.87750  0.83180  Biso   1.000  H
  C94      1.0000 0.10820  0.92010  0.91400  Biso   1.000  C
  H69      1.0000 0.12270  0.94010  0.04530  Biso   1.000  H
  C95      1.0000 0.05880  0.92570  0.83600  Biso   1.000  C
  H70      1.0000 0.03910  0.95040  0.91670  Biso   1.000  H
  C96      1.0000 0.03790  0.89560  0.64200  Biso   1.000  C
  H71      1.0000 0.00440  0.90080  0.59560  Biso   1.000  H
  C97      1.0000 0.06430  0.85810  0.51330  Biso   1.000  C
  C98      1.0000 0.04210  0.82860  0.31900  Biso   1.000  C
  H72      1.0000 0.00840  0.83270  0.27470  Biso   1.000  H
  C99      1.0000 0.07130  0.79300  0.19200  Biso   1.000  C
  C100     1.0000 0.01310  0.74220  0.88400  Biso   1.000  C
  C101     1.0000 0.92270  0.71570  0.66700  Biso   1.000  C
  C102     1.0000 0.01110  0.71970  0.63600  Biso   1.000  C
  H73      1.0000 0.04090  0.71370  0.54440  Biso   1.000  H
  C103     1.0000 0.96600  0.70610  0.52300  Biso   1.000  C
  H74      1.0000 0.96470  0.69110  0.35610  Biso   1.000  H
  C104     1.0000 0.92300  0.73810  0.91400  Biso   1.000  C
  H75      1.0000 0.89320  0.74420  0.00590  Biso   1.000  H
  C105     1.0000 0.96900  0.75100  0.02000  Biso   1.000  C
  H76      1.0000 0.97030  0.76600  0.18750  Biso   1.000  H
  C106     1.0000 0.87250  0.69780  0.55900  Biso   1.000  C
  O20      1.0000 0.86900  0.65800  0.42800  Biso   1.000  O
  C107     1.0000 0.00320  0.69240  0.83300  Biso   1.000  C
  H77      1.0000 0.02740  0.66820  0.87260  Biso   1.000  H
  C108     1.0000 0.95730  0.67750  0.72200  Biso   1.000  C
  H78      1.0000 0.95020  0.64390  0.68600  Biso   1.000  H
  C109     1.0000 0.92930  0.76730  0.71300  Biso   1.000  C
  H79      1.0000 0.90520  0.79160  0.67430  Biso   1.000  H
  C110     1.0000 0.97640  0.77790  0.82300  Biso   1.000  C
  H80      1.0000 0.98390  0.81140  0.85870  Biso   1.000  H
  Zn6      1.0000 0.71387  0.22682  0.59450  Biso   1.000  Zn
  O21      1.0000 0.75340  0.28040  0.42200  Biso   1.000  O
  H81      1.0000 0.76450  0.30140  0.53570  Biso   1.000  H
  N11      1.0000 0.64070  0.24290  0.60600  Biso   1.000  N
  C111     1.0000 0.60300  0.22900  0.45600  Biso   1.000  C
  H82      1.0000 0.60490  0.20320  0.33130  Biso   1.000  H
  N12      1.0000 0.56080  0.25640  0.50300  Biso   1.000  N
  C112     1.0000 0.62020  0.28600  0.77500  Biso   1.000  C
  O22      1.0000 0.33410  0.22350  0.12300  Biso   1.000  O
  C113     1.0000 0.64220  0.31570  0.96900  Biso   1.000  C
  H83      1.0000 0.67570  0.31090  0.01660  Biso   1.000  H
  O23      1.0000 0.37740  0.18800  0.81300  Biso   1.000  O
  C114     1.0000 0.61370  0.35250  0.09100  Biso   1.000  C
  C115     1.0000 0.63470  0.38270  0.28600  Biso   1.000  C
  H84      1.0000 0.66820  0.37750  0.33180  Biso   1.000  H
  C116     1.0000 0.60820  0.42010  0.41400  Biso   1.000  C
  H85      1.0000 0.62270  0.44010  0.54530  Biso   1.000  H
  C117     1.0000 0.55880  0.42570  0.33600  Biso   1.000  C
  H86      1.0000 0.53910  0.45040  0.41670  Biso   1.000  H
  C118     1.0000 0.53790  0.39560  0.14200  Biso   1.000  C
  H87      1.0000 0.50440  0.40080  0.09560  Biso   1.000  H
  C119     1.0000 0.56430  0.35810  0.01330  Biso   1.000  C
  C120     1.0000 0.54210  0.32860  0.81900  Biso   1.000  C
  H88      1.0000 0.50840  0.33270  0.77470  Biso   1.000  H
  C121     1.0000 0.57130  0.29300  0.69200  Biso   1.000  C
  C122     1.0000 0.51310  0.24220  0.38400  Biso   1.000  C
  C123     1.0000 0.42270  0.21570  0.16700  Biso   1.000  C
  C124     1.0000 0.51110  0.21970  0.13600  Biso   1.000  C
  H89      1.0000 0.54090  0.21370  0.04440  Biso   1.000  H
  C125     1.0000 0.46600  0.20610  0.02300  Biso   1.000  C
  H90      1.0000 0.46470  0.19110  0.85610  Biso   1.000  H
  C126     1.0000 0.42300  0.23810  0.41400  Biso   1.000  C
  H91      1.0000 0.39320  0.24420  0.50590  Biso   1.000  H
  C127     1.0000 0.46900  0.25100  0.52000  Biso   1.000  C
  H92      1.0000 0.47030  0.26600  0.68750  Biso   1.000  H
  C128     1.0000 0.37250  0.19780  0.05900  Biso   1.000  C
  O24      1.0000 0.36900  0.15800  0.92800  Biso   1.000  O
  C129     1.0000 0.50320  0.19240  0.33300  Biso   1.000  C
  H93      1.0000 0.52740  0.16820  0.37260  Biso   1.000  H
  C130     1.0000 0.45730  0.17750  0.22200  Biso   1.000  C
  H94      1.0000 0.45020  0.14390  0.18600  Biso   1.000  H
  C131     1.0000 0.42930  0.26730  0.21300  Biso   1.000  C
  H95      1.0000 0.40520  0.29160  0.17430  Biso   1.000  H
  C132     1.0000 0.47640  0.27790  0.32300  Biso   1.000  C
  H96      1.0000 0.48390  0.31140  0.35870  Biso   1.000  H
  Zn7      1.0000 0.78613  0.27318  0.09450  Biso   1.000  Zn
  O25      1.0000 0.74660  0.21960  0.92200  Biso   1.000  O
  H97      1.0000 0.73550  0.19860  0.03570  Biso   1.000  H
  N13      1.0000 0.85930  0.25710  0.10600  Biso   1.000  N
  C133     1.0000 0.89700  0.27100  0.95600  Biso   1.000  C
  H98      1.0000 0.89510  0.29680  0.83130  Biso   1.000  H
  N14      1.0000 0.93920  0.24360  0.00300  Biso   1.000  N
  C134     1.0000 0.87980  0.21400  0.27500  Biso   1.000  C
  O26      1.0000 0.16590  0.27650  0.62300  Biso   1.000  O
  C135     1.0000 0.85780  0.18430  0.46900  Biso   1.000  C
  H99      1.0000 0.82430  0.18910  0.51660  Biso   1.000  H
  O27      1.0000 0.12260  0.31200  0.31300  Biso   1.000  O
  C136     1.0000 0.88630  0.14750  0.59100  Biso   1.000  C
  C137     1.0000 0.86530  0.11730  0.78600  Biso   1.000  C
  H100     1.0000 0.83180  0.12250  0.83180  Biso   1.000  H
  C138     1.0000 0.89180  0.07990  0.91400  Biso   1.000  C
  H101     1.0000 0.87730  0.05990  0.04530  Biso   1.000  H
  C139     1.0000 0.94120  0.07430  0.83600  Biso   1.000  C
  H102     1.0000 0.96090  0.04960  0.91670  Biso   1.000  H
  C140     1.0000 0.96210  0.10440  0.64200  Biso   1.000  C
  H103     1.0000 0.99560  0.09920  0.59560  Biso   1.000  H
  C141     1.0000 0.93570  0.14190  0.51330  Biso   1.000  C
  C142     1.0000 0.95790  0.17140  0.31900  Biso   1.000  C
  H104     1.0000 0.99160  0.16730  0.27470  Biso   1.000  H
  C143     1.0000 0.92870  0.20700  0.19200  Biso   1.000  C
  C144     1.0000 0.98690  0.25780  0.88400  Biso   1.000  C
  C145     1.0000 0.07730  0.28430  0.66700  Biso   1.000  C
  C146     1.0000 0.98890  0.28030  0.63600  Biso   1.000  C
  H105     1.0000 0.95910  0.28630  0.54440  Biso   1.000  H
  C147     1.0000 0.03400  0.29390  0.52300  Biso   1.000  C
  H106     1.0000 0.03530  0.30890  0.35610  Biso   1.000  H
  C148     1.0000 0.07700  0.26190  0.91400  Biso   1.000  C
  H107     1.0000 0.10680  0.25580  0.00590  Biso   1.000  H
  C149     1.0000 0.03100  0.24900  0.02000  Biso   1.000  C
  H108     1.0000 0.02970  0.23400  0.18750  Biso   1.000  H
  C150     1.0000 0.12750  0.30220  0.55900  Biso   1.000  C
  O28      1.0000 0.13100  0.34200  0.42800  Biso   1.000  O
  C151     1.0000 0.99680  0.30760  0.83300  Biso   1.000  C
  H109     1.0000 0.97260  0.33180  0.87260  Biso   1.000  H
  C152     1.0000 0.04270  0.32250  0.72200  Biso   1.000  C
  H110     1.0000 0.04980  0.35610  0.68600  Biso   1.000  H
  C153     1.0000 0.07070  0.23270  0.71300  Biso   1.000  C
  H111     1.0000 0.09480  0.20840  0.67430  Biso   1.000  H
  C154     1.0000 0.02360  0.22210  0.82300  Biso   1.000  C
  H112     1.0000 0.01610  0.18860  0.85870  Biso   1.000  H
  Zn8      1.0000 0.28613  0.77318  0.59450  Biso   1.000  Zn
  O29      1.0000 0.24660  0.71960  0.42200  Biso   1.000  O
  H113     1.0000 0.23550  0.69860  0.53570  Biso   1.000  H
  N15      1.0000 0.35930  0.75710  0.60600  Biso   1.000  N
  C155     1.0000 0.39700  0.77100  0.45600  Biso   1.000  C
  H114     1.0000 0.39510  0.79680  0.33130  Biso   1.000  H
  N16      1.0000 0.43920  0.74360  0.50300  Biso   1.000  N
  C156     1.0000 0.37980  0.71400  0.77500  Biso   1.000  C
  O30      1.0000 0.66590  0.77650  0.12300  Biso   1.000  O
  C157     1.0000 0.35780  0.68430  0.96900  Biso   1.000  C
  H115     1.0000 0.32430  0.68910  0.01660  Biso   1.000  H
  O31      1.0000 0.62260  0.81200  0.81300  Biso   1.000  O
  C158     1.0000 0.38630  0.64750  0.09100  Biso   1.000  C
  C159     1.0000 0.36530  0.61730  0.28600  Biso   1.000  C
  H116     1.0000 0.33180  0.62250  0.33180  Biso   1.000  H
  C160     1.0000 0.39180  0.57990  0.41400  Biso   1.000  C
  H117     1.0000 0.37730  0.55990  0.54530  Biso   1.000  H
  C161     1.0000 0.44120  0.57430  0.33600  Biso   1.000  C
  H118     1.0000 0.46090  0.54960  0.41670  Biso   1.000  H
  C162     1.0000 0.46210  0.60440  0.14200  Biso   1.000  C
  H119     1.0000 0.49560  0.59920  0.09560  Biso   1.000  H
  C163     1.0000 0.43570  0.64190  0.01330  Biso   1.000  C
  C164     1.0000 0.45790  0.67140  0.81900  Biso   1.000  C
  H120     1.0000 0.49160  0.66730  0.77470  Biso   1.000  H
  C165     1.0000 0.42870  0.70700  0.69200  Biso   1.000  C
  C166     1.0000 0.48690  0.75780  0.38400  Biso   1.000  C
  C167     1.0000 0.57730  0.78430  0.16700  Biso   1.000  C
  C168     1.0000 0.48890  0.78030  0.13600  Biso   1.000  C
  H121     1.0000 0.45910  0.78630  0.04440  Biso   1.000  H
  C169     1.0000 0.53400  0.79390  0.02300  Biso   1.000  C
  H122     1.0000 0.53530  0.80890  0.85610  Biso   1.000  H
  C170     1.0000 0.57700  0.76190  0.41400  Biso   1.000  C
  H123     1.0000 0.60680  0.75580  0.50590  Biso   1.000  H
  C171     1.0000 0.53100  0.74900  0.52000  Biso   1.000  C
  H124     1.0000 0.52970  0.73400  0.68750  Biso   1.000  H
  C172     1.0000 0.62750  0.80220  0.05900  Biso   1.000  C
  O32      1.0000 0.63100  0.84200  0.92800  Biso   1.000  O
  C173     1.0000 0.49680  0.80760  0.33300  Biso   1.000  C
  H125     1.0000 0.47260  0.83180  0.37260  Biso   1.000  H
  C174     1.0000 0.54270  0.82250  0.22200  Biso   1.000  C
  H126     1.0000 0.54980  0.85610  0.18600  Biso   1.000  H
  C175     1.0000 0.57070  0.73270  0.21300  Biso   1.000  C
  H127     1.0000 0.59480  0.70840  0.17430  Biso   1.000  H
  C176     1.0000 0.52360  0.72210  0.32300  Biso   1.000  C
  H128     1.0000 0.51610  0.68860  0.35870  Biso   1.000  H
