data_image0
_cell_length_a       26.522
_cell_length_b       26.522
_cell_length_c       4.9344
_cell_angle_alpha    90
_cell_angle_beta     90
_cell_angle_gamma    90

_symmetry_space_group_name_H-M    "P 1"
_symmetry_int_tables_number       1

loop_
  _symmetry_equiv_pos_as_xyz
  'x, y, z'

loop_
  _atom_site_label
  _atom_site_occupancy
  _atom_site_fract_x
  _atom_site_fract_y
  _atom_site_fract_z
  _atom_site_thermal_displace_type
  _atom_site_B_iso_or_equiv
  _atom_site_type_symbol
  Zn1      1.0000 0.27369  0.21377  0.89560  Biso   1.000  Zn
  O1       1.0000 0.21820  0.25020  0.06000  Biso   1.000  O
  H1       1.0000 0.19710  0.26140  0.94550  Biso   1.000  H
  N1       1.0000 0.25210  0.14400  0.88000  Biso   1.000  N
  C1       1.0000 0.26790  0.10660  0.03000  Biso   1.000  C
  H2       1.0000 0.29400  0.10980  0.15410  Biso   1.000  H
  N2       1.0000 0.24290  0.06260  0.98700  Biso   1.000  N
  C2       1.0000 0.21300  0.12250  0.72900  Biso   1.000  C
  O2       1.0000 0.27430  0.83640  0.39900  Biso   1.000  O
  C3       1.0000 0.18230  0.14460  0.53600  Biso   1.000  C
  H3       1.0000 0.18620  0.17840  0.49080  Biso   1.000  H
  O3       1.0000 0.31140  0.86310  0.70800  Biso   1.000  O
  C4       1.0000 0.14590  0.11550  0.41000  Biso   1.000  C
  C5       1.0000 0.11530  0.13760  0.21700  Biso   1.000  C
  H4       1.0000 0.12000  0.17150  0.17670  Biso   1.000  H
  C6       1.0000 0.07790  0.11130  0.08200  Biso   1.000  C
  H5       1.0000 0.05770  0.12700  0.95330  Biso   1.000  H
  C7       1.0000 0.07170  0.06090  0.14600  Biso   1.000  C
  H6       1.0000 0.04710  0.04190  0.05850  Biso   1.000  H
  C8       1.0000 0.10220  0.03880  0.33900  Biso   1.000  C
  H7       1.0000 0.09740  0.00500  0.38040  Biso   1.000  H
  C9       1.0000 0.13960  0.06510  0.47400  Biso   1.000  C
  C10      1.0000 0.17010  0.04270  0.66700  Biso   1.000  C
  H8       1.0000 0.16630  0.00880  0.71130  Biso   1.000  H
  C11      1.0000 0.20650  0.07200  0.79100  Biso   1.000  C
  C12      1.0000 0.25710  0.01410  0.10200  Biso   1.000  C
  C13      1.0000 0.28490  0.92580  0.33400  Biso   1.000  C
  C14      1.0000 0.27990  0.01390  0.35400  Biso   1.000  C
  H9       1.0000 0.28570  0.04430  0.44250  Biso   1.000  H
  C15      1.0000 0.29430  0.96950  0.47500  Biso   1.000  C
  H10      1.0000 0.30980  0.96900  0.64440  Biso   1.000  H
  C16      1.0000 0.26250  0.92400  0.08400  Biso   1.000  C
  H11      1.0000 0.25690  0.89350  0.99580  Biso   1.000  H
  C17      1.0000 0.24860  0.96920  0.97100  Biso   1.000  C
  H12      1.0000 0.23320  0.96950  0.80140  Biso   1.000  H
  C18      1.0000 0.29180  0.87550  0.47400  Biso   1.000  C
  O4       1.0000 0.33920  0.87820  0.55000  Biso   1.000  O
  C19      1.0000 0.30710  0.00540  0.15700  Biso   1.000  C
  H13      1.0000 0.33080  0.03000  0.11350  Biso   1.000  H
  C20      1.0000 0.32290  0.96050  0.27600  Biso   1.000  C
  H14      1.0000 0.35660  0.95410  0.31420  Biso   1.000  H
  C21      1.0000 0.23330  0.93060  0.28700  Biso   1.000  C
  H15      1.0000 0.20950  0.90610  0.32980  Biso   1.000  H
  C22      1.0000 0.22200  0.97690  0.16800  Biso   1.000  C
  H16      1.0000 0.18830  0.98360  0.12980  Biso   1.000  H
  Zn2      1.0000 0.77369  0.71377  0.39560  Biso   1.000  Zn
  O5       1.0000 0.71820  0.75020  0.56000  Biso   1.000  O
  H17      1.0000 0.69710  0.76140  0.44550  Biso   1.000  H
  N3       1.0000 0.75210  0.64400  0.38000  Biso   1.000  N
  C23      1.0000 0.76790  0.60660  0.53000  Biso   1.000  C
  H18      1.0000 0.79400  0.60980  0.65410  Biso   1.000  H
  N4       1.0000 0.74290  0.56260  0.48700  Biso   1.000  N
  C24      1.0000 0.71300  0.62250  0.22900  Biso   1.000  C
  O6       1.0000 0.77430  0.33640  0.89900  Biso   1.000  O
  C25      1.0000 0.68230  0.64460  0.03600  Biso   1.000  C
  H19      1.0000 0.68620  0.67840  0.99080  Biso   1.000  H
  O7       1.0000 0.81140  0.36310  0.20800  Biso   1.000  O
  C26      1.0000 0.64590  0.61550  0.91000  Biso   1.000  C
  C27      1.0000 0.61530  0.63760  0.71700  Biso   1.000  C
  H20      1.0000 0.62000  0.67150  0.67670  Biso   1.000  H
  C28      1.0000 0.57790  0.61130  0.58200  Biso   1.000  C
  H21      1.0000 0.55770  0.62700  0.45330  Biso   1.000  H
  C29      1.0000 0.57170  0.56090  0.64600  Biso   1.000  C
  H22      1.0000 0.54710  0.54190  0.55850  Biso   1.000  H
  C30      1.0000 0.60220  0.53880  0.83900  Biso   1.000  C
  H23      1.0000 0.59740  0.50500  0.88040  Biso   1.000  H
  C31      1.0000 0.63960  0.56510  0.97400  Biso   1.000  C
  C32      1.0000 0.67010  0.54270  0.16700  Biso   1.000  C
  H24      1.0000 0.66630  0.50880  0.21130  Biso   1.000  H
  C33      1.0000 0.70650  0.57200  0.29100  Biso   1.000  C
  C34      1.0000 0.75710  0.51410  0.60200  Biso   1.000  C
  C35      1.0000 0.78490  0.42580  0.83400  Biso   1.000  C
  C36      1.0000 0.77990  0.51390  0.85400  Biso   1.000  C
  H25      1.0000 0.78570  0.54430  0.94250  Biso   1.000  H
  C37      1.0000 0.79430  0.46950  0.97500  Biso   1.000  C
  H26      1.0000 0.80980  0.46900  0.14440  Biso   1.000  H
  C38      1.0000 0.76250  0.42400  0.58400  Biso   1.000  C
  H27      1.0000 0.75690  0.39350  0.49580  Biso   1.000  H
  C39      1.0000 0.74860  0.46920  0.47100  Biso   1.000  C
  H28      1.0000 0.73320  0.46950  0.30140  Biso   1.000  H
  C40      1.0000 0.79180  0.37550  0.97400  Biso   1.000  C
  O8       1.0000 0.83920  0.37820  0.05000  Biso   1.000  O
  C41      1.0000 0.80710  0.50540  0.65700  Biso   1.000  C
  H29      1.0000 0.83080  0.53000  0.61350  Biso   1.000  H
  C42      1.0000 0.82290  0.46050  0.77600  Biso   1.000  C
  H30      1.0000 0.85660  0.45410  0.81420  Biso   1.000  H
  C43      1.0000 0.73330  0.43060  0.78700  Biso   1.000  C
  H31      1.0000 0.70950  0.40610  0.82980  Biso   1.000  H
  C44      1.0000 0.72200  0.47690  0.66800  Biso   1.000  C
  H32      1.0000 0.68830  0.48360  0.62980  Biso   1.000  H
  Zn3      1.0000 0.72631  0.78623  0.89560  Biso   1.000  Zn
  O9       1.0000 0.78180  0.74980  0.06000  Biso   1.000  O
  H33      1.0000 0.80290  0.73860  0.94550  Biso   1.000  H
  N5       1.0000 0.74790  0.85600  0.88000  Biso   1.000  N
  C45      1.0000 0.73210  0.89340  0.03000  Biso   1.000  C
  H34      1.0000 0.70600  0.89020  0.15410  Biso   1.000  H
  N6       1.0000 0.75710  0.93740  0.98700  Biso   1.000  N
  C46      1.0000 0.78700  0.87750  0.72900  Biso   1.000  C
  O10      1.0000 0.72570  0.16360  0.39900  Biso   1.000  O
  C47      1.0000 0.81770  0.85540  0.53600  Biso   1.000  C
  H35      1.0000 0.81380  0.82160  0.49080  Biso   1.000  H
  O11      1.0000 0.68860  0.13690  0.70800  Biso   1.000  O
  C48      1.0000 0.85410  0.88450  0.41000  Biso   1.000  C
  C49      1.0000 0.88470  0.86240  0.21700  Biso   1.000  C
  H36      1.0000 0.88000  0.82850  0.17670  Biso   1.000  H
  C50      1.0000 0.92210  0.88870  0.08200  Biso   1.000  C
  H37      1.0000 0.94230  0.87300  0.95330  Biso   1.000  H
  C51      1.0000 0.92830  0.93910  0.14600  Biso   1.000  C
  H38      1.0000 0.95290  0.95810  0.05850  Biso   1.000  H
  C52      1.0000 0.89780  0.96120  0.33900  Biso   1.000  C
  H39      1.0000 0.90260  0.99500  0.38040  Biso   1.000  H
  C53      1.0000 0.86040  0.93490  0.47400  Biso   1.000  C
  C54      1.0000 0.82990  0.95730  0.66700  Biso   1.000  C
  H40      1.0000 0.83370  0.99120  0.71130  Biso   1.000  H
  C55      1.0000 0.79350  0.92800  0.79100  Biso   1.000  C
  C56      1.0000 0.74290  0.98590  0.10200  Biso   1.000  C
  C57      1.0000 0.71510  0.07420  0.33400  Biso   1.000  C
  C58      1.0000 0.72010  0.98610  0.35400  Biso   1.000  C
  H41      1.0000 0.71430  0.95570  0.44250  Biso   1.000  H
  C59      1.0000 0.70570  0.03050  0.47500  Biso   1.000  C
  H42      1.0000 0.69020  0.03100  0.64440  Biso   1.000  H
  C60      1.0000 0.73750  0.07600  0.08400  Biso   1.000  C
  H43      1.0000 0.74310  0.10650  0.99580  Biso   1.000  H
  C61      1.0000 0.75140  0.03080  0.97100  Biso   1.000  C
  H44      1.0000 0.76680  0.03050  0.80140  Biso   1.000  H
  C62      1.0000 0.70820  0.12450  0.47400  Biso   1.000  C
  O12      1.0000 0.66080  0.12180  0.55000  Biso   1.000  O
  C63      1.0000 0.69290  0.99460  0.15700  Biso   1.000  C
  H45      1.0000 0.66920  0.97000  0.11350  Biso   1.000  H
  C64      1.0000 0.67710  0.03950  0.27600  Biso   1.000  C
  H46      1.0000 0.64340  0.04590  0.31420  Biso   1.000  H
  C65      1.0000 0.76670  0.06940  0.28700  Biso   1.000  C
  H47      1.0000 0.79050  0.09390  0.32980  Biso   1.000  H
  C66      1.0000 0.77800  0.02310  0.16800  Biso   1.000  C
  H48      1.0000 0.81170  0.01640  0.12980  Biso   1.000  H
  Zn4      1.0000 0.22631  0.28623  0.39560  Biso   1.000  Zn
  O13      1.0000 0.28180  0.24980  0.56000  Biso   1.000  O
  H49      1.0000 0.30290  0.23860  0.44550  Biso   1.000  H
  N7       1.0000 0.24790  0.35600  0.38000  Biso   1.000  N
  C67      1.0000 0.23210  0.39340  0.53000  Biso   1.000  C
  H50      1.0000 0.20600  0.39020  0.65410  Biso   1.000  H
  N8       1.0000 0.25710  0.43740  0.48700  Biso   1.000  N
  C68      1.0000 0.28700  0.37750  0.22900  Biso   1.000  C
  O14      1.0000 0.22570  0.66360  0.89900  Biso   1.000  O
  C69      1.0000 0.31770  0.35540  0.03600  Biso   1.000  C
  H51      1.0000 0.31380  0.32160  0.99080  Biso   1.000  H
  O15      1.0000 0.18860  0.63690  0.20800  Biso   1.000  O
  C70      1.0000 0.35410  0.38450  0.91000  Biso   1.000  C
  C71      1.0000 0.38470  0.36240  0.71700  Biso   1.000  C
  H52      1.0000 0.38000  0.32850  0.67670  Biso   1.000  H
  C72      1.0000 0.42210  0.38870  0.58200  Biso   1.000  C
  H53      1.0000 0.44230  0.37300  0.45330  Biso   1.000  H
  C73      1.0000 0.42830  0.43910  0.64600  Biso   1.000  C
  H54      1.0000 0.45290  0.45810  0.55850  Biso   1.000  H
  C74      1.0000 0.39780  0.46120  0.83900  Biso   1.000  C
  H55      1.0000 0.40260  0.49500  0.88040  Biso   1.000  H
  C75      1.0000 0.36040  0.43490  0.97400  Biso   1.000  C
  C76      1.0000 0.32990  0.45730  0.16700  Biso   1.000  C
  H56      1.0000 0.33370  0.49120  0.21130  Biso   1.000  H
  C77      1.0000 0.29350  0.42800  0.29100  Biso   1.000  C
  C78      1.0000 0.24290  0.48590  0.60200  Biso   1.000  C
  C79      1.0000 0.21510  0.57420  0.83400  Biso   1.000  C
  C80      1.0000 0.22010  0.48610  0.85400  Biso   1.000  C
  H57      1.0000 0.21430  0.45570  0.94250  Biso   1.000  H
  C81      1.0000 0.20570  0.53050  0.97500  Biso   1.000  C
  H58      1.0000 0.19020  0.53100  0.14440  Biso   1.000  H
  C82      1.0000 0.23750  0.57600  0.58400  Biso   1.000  C
  H59      1.0000 0.24310  0.60650  0.49580  Biso   1.000  H
  C83      1.0000 0.25140  0.53080  0.47100  Biso   1.000  C
  H60      1.0000 0.26680  0.53050  0.30140  Biso   1.000  H
  C84      1.0000 0.20820  0.62450  0.97400  Biso   1.000  C
  O16      1.0000 0.16080  0.62180  0.05000  Biso   1.000  O
  C85      1.0000 0.19290  0.49460  0.65700  Biso   1.000  C
  H61      1.0000 0.16920  0.47000  0.61350  Biso   1.000  H
  C86      1.0000 0.17710  0.53950  0.77600  Biso   1.000  C
  H62      1.0000 0.14340  0.54590  0.81420  Biso   1.000  H
  C87      1.0000 0.26670  0.56940  0.78700  Biso   1.000  C
  H63      1.0000 0.29050  0.59390  0.82980  Biso   1.000  H
  C88      1.0000 0.27800  0.52310  0.66800  Biso   1.000  C
  H64      1.0000 0.31170  0.51640  0.62980  Biso   1.000  H
  Zn5      1.0000 0.21377  0.72631  0.10440  Biso   1.000  Zn
  O17      1.0000 0.25020  0.78180  0.94000  Biso   1.000  O
  H65      1.0000 0.26140  0.80290  0.05450  Biso   1.000  H
  N9       1.0000 0.14400  0.74790  0.12000  Biso   1.000  N
  C89      1.0000 0.10660  0.73210  0.97000  Biso   1.000  C
  H66      1.0000 0.10980  0.70600  0.84590  Biso   1.000  H
  N10      1.0000 0.06260  0.75710  0.01300  Biso   1.000  N
  C90      1.0000 0.12250  0.78700  0.27100  Biso   1.000  C
  O18      1.0000 0.83640  0.72570  0.60100  Biso   1.000  O
  C91      1.0000 0.14460  0.81770  0.46400  Biso   1.000  C
  H67      1.0000 0.17840  0.81380  0.50920  Biso   1.000  H
  O19      1.0000 0.86310  0.68860  0.29200  Biso   1.000  O
  C92      1.0000 0.11550  0.85410  0.59000  Biso   1.000  C
  C93      1.0000 0.13760  0.88470  0.78300  Biso   1.000  C
  H68      1.0000 0.17150  0.88000  0.82330  Biso   1.000  H
  C94      1.0000 0.11130  0.92210  0.91800  Biso   1.000  C
  H69      1.0000 0.12700  0.94230  0.04670  Biso   1.000  H
  C95      1.0000 0.06090  0.92830  0.85400  Biso   1.000  C
  H70      1.0000 0.04190  0.95290  0.94150  Biso   1.000  H
  C96      1.0000 0.03880  0.89780  0.66100  Biso   1.000  C
  H71      1.0000 0.00500  0.90260  0.61960  Biso   1.000  H
  C97      1.0000 0.06510  0.86040  0.52600  Biso   1.000  C
  C98      1.0000 0.04270  0.82990  0.33300  Biso   1.000  C
  H72      1.0000 0.00880  0.83370  0.28870  Biso   1.000  H
  C99      1.0000 0.07200  0.79350  0.20900  Biso   1.000  C
  C100     1.0000 0.01410  0.74290  0.89800  Biso   1.000  C
  C101     1.0000 0.92580  0.71510  0.66600  Biso   1.000  C
  C102     1.0000 0.01390  0.72010  0.64600  Biso   1.000  C
  H73      1.0000 0.04430  0.71430  0.55750  Biso   1.000  H
  C103     1.0000 0.96950  0.70570  0.52500  Biso   1.000  C
  H74      1.0000 0.96900  0.69020  0.35560  Biso   1.000  H
  C104     1.0000 0.92400  0.73750  0.91600  Biso   1.000  C
  H75      1.0000 0.89350  0.74310  0.00420  Biso   1.000  H
  C105     1.0000 0.96920  0.75140  0.02900  Biso   1.000  C
  H76      1.0000 0.96950  0.76680  0.19860  Biso   1.000  H
  C106     1.0000 0.87550  0.70820  0.52600  Biso   1.000  C
  O20      1.0000 0.87820  0.66080  0.45000  Biso   1.000  O
  C107     1.0000 0.00540  0.69290  0.84300  Biso   1.000  C
  H77      1.0000 0.03000  0.66920  0.88650  Biso   1.000  H
  C108     1.0000 0.96050  0.67710  0.72400  Biso   1.000  C
  H78      1.0000 0.95410  0.64340  0.68580  Biso   1.000  H
  C109     1.0000 0.93060  0.76670  0.71300  Biso   1.000  C
  H79      1.0000 0.90610  0.79050  0.67020  Biso   1.000  H
  C110     1.0000 0.97690  0.77800  0.83200  Biso   1.000  C
  H80      1.0000 0.98360  0.81170  0.87020  Biso   1.000  H
  Zn6      1.0000 0.71377  0.22631  0.60440  Biso   1.000  Zn
  O21      1.0000 0.75020  0.28180  0.44000  Biso   1.000  O
  H81      1.0000 0.76140  0.30290  0.55450  Biso   1.000  H
  N11      1.0000 0.64400  0.24790  0.62000  Biso   1.000  N
  C111     1.0000 0.60660  0.23210  0.47000  Biso   1.000  C
  H82      1.0000 0.60980  0.20600  0.34590  Biso   1.000  H
  N12      1.0000 0.56260  0.25710  0.51300  Biso   1.000  N
  C112     1.0000 0.62250  0.28700  0.77100  Biso   1.000  C
  O22      1.0000 0.33640  0.22570  0.10100  Biso   1.000  O
  C113     1.0000 0.64460  0.31770  0.96400  Biso   1.000  C
  H83      1.0000 0.67840  0.31380  0.00920  Biso   1.000  H
  O23      1.0000 0.36310  0.18860  0.79200  Biso   1.000  O
  C114     1.0000 0.61550  0.35410  0.09000  Biso   1.000  C
  C115     1.0000 0.63760  0.38470  0.28300  Biso   1.000  C
  H84      1.0000 0.67150  0.38000  0.32330  Biso   1.000  H
  C116     1.0000 0.61130  0.42210  0.41800  Biso   1.000  C
  H85      1.0000 0.62700  0.44230  0.54670  Biso   1.000  H
  C117     1.0000 0.56090  0.42830  0.35400  Biso   1.000  C
  H86      1.0000 0.54190  0.45290  0.44150  Biso   1.000  H
  C118     1.0000 0.53880  0.39780  0.16100  Biso   1.000  C
  H87      1.0000 0.50500  0.40260  0.11960  Biso   1.000  H
  C119     1.0000 0.56510  0.36040  0.02600  Biso   1.000  C
  C120     1.0000 0.54270  0.32990  0.83300  Biso   1.000  C
  H88      1.0000 0.50880  0.33370  0.78870  Biso   1.000  H
  C121     1.0000 0.57200  0.29350  0.70900  Biso   1.000  C
  C122     1.0000 0.51410  0.24290  0.39800  Biso   1.000  C
  C123     1.0000 0.42580  0.21510  0.16600  Biso   1.000  C
  C124     1.0000 0.51390  0.22010  0.14600  Biso   1.000  C
  H89      1.0000 0.54430  0.21430  0.05750  Biso   1.000  H
  C125     1.0000 0.46950  0.20570  0.02500  Biso   1.000  C
  H90      1.0000 0.46900  0.19020  0.85560  Biso   1.000  H
  C126     1.0000 0.42400  0.23750  0.41600  Biso   1.000  C
  H91      1.0000 0.39350  0.24310  0.50420  Biso   1.000  H
  C127     1.0000 0.46920  0.25140  0.52900  Biso   1.000  C
  H92      1.0000 0.46950  0.26680  0.69860  Biso   1.000  H
  C128     1.0000 0.37550  0.20820  0.02600  Biso   1.000  C
  O24      1.0000 0.37820  0.16080  0.95000  Biso   1.000  O
  C129     1.0000 0.50540  0.19290  0.34300  Biso   1.000  C
  H93      1.0000 0.53000  0.16920  0.38650  Biso   1.000  H
  C130     1.0000 0.46050  0.17710  0.22400  Biso   1.000  C
  H94      1.0000 0.45410  0.14340  0.18580  Biso   1.000  H
  C131     1.0000 0.43060  0.26670  0.21300  Biso   1.000  C
  H95      1.0000 0.40610  0.29050  0.17020  Biso   1.000  H
  C132     1.0000 0.47690  0.27800  0.33200  Biso   1.000  C
  H96      1.0000 0.48360  0.31170  0.37020  Biso   1.000  H
  Zn7      1.0000 0.78623  0.27369  0.10440  Biso   1.000  Zn
  O25      1.0000 0.74980  0.21820  0.94000  Biso   1.000  O
  H97      1.0000 0.73860  0.19710  0.05450  Biso   1.000  H
  N13      1.0000 0.85600  0.25210  0.12000  Biso   1.000  N
  C133     1.0000 0.89340  0.26790  0.97000  Biso   1.000  C
  H98      1.0000 0.89020  0.29400  0.84590  Biso   1.000  H
  N14      1.0000 0.93740  0.24290  0.01300  Biso   1.000  N
  C134     1.0000 0.87750  0.21300  0.27100  Biso   1.000  C
  O26      1.0000 0.16360  0.27430  0.60100  Biso   1.000  O
  C135     1.0000 0.85540  0.18230  0.46400  Biso   1.000  C
  H99      1.0000 0.82160  0.18620  0.50920  Biso   1.000  H
  O27      1.0000 0.13690  0.31140  0.29200  Biso   1.000  O
  C136     1.0000 0.88450  0.14590  0.59000  Biso   1.000  C
  C137     1.0000 0.86240  0.11530  0.78300  Biso   1.000  C
  H100     1.0000 0.82850  0.12000  0.82330  Biso   1.000  H
  C138     1.0000 0.88870  0.07790  0.91800  Biso   1.000  C
  H101     1.0000 0.87300  0.05770  0.04670  Biso   1.000  H
  C139     1.0000 0.93910  0.07170  0.85400  Biso   1.000  C
  H102     1.0000 0.95810  0.04710  0.94150  Biso   1.000  H
  C140     1.0000 0.96120  0.10220  0.66100  Biso   1.000  C
  H103     1.0000 0.99500  0.09740  0.61960  Biso   1.000  H
  C141     1.0000 0.93490  0.13960  0.52600  Biso   1.000  C
  C142     1.0000 0.95730  0.17010  0.33300  Biso   1.000  C
  H104     1.0000 0.99120  0.16630  0.28870  Biso   1.000  H
  C143     1.0000 0.92800  0.20650  0.20900  Biso   1.000  C
  C144     1.0000 0.98590  0.25710  0.89800  Biso   1.000  C
  C145     1.0000 0.07420  0.28490  0.66600  Biso   1.000  C
  C146     1.0000 0.98610  0.27990  0.64600  Biso   1.000  C
  H105     1.0000 0.95570  0.28570  0.55750  Biso   1.000  H
  C147     1.0000 0.03050  0.29430  0.52500  Biso   1.000  C
  H106     1.0000 0.03100  0.30980  0.35560  Biso   1.000  H
  C148     1.0000 0.07600  0.26250  0.91600  Biso   1.000  C
  H107     1.0000 0.10650  0.25690  0.00420  Biso   1.000  H
  C149     1.0000 0.03080  0.24860  0.02900  Biso   1.000  C
  H108     1.0000 0.03050  0.23320  0.19860  Biso   1.000  H
  C150     1.0000 0.12450  0.29180  0.52600  Biso   1.000  C
  O28      1.0000 0.12180  0.33920  0.45000  Biso   1.000  O
  C151     1.0000 0.99460  0.30710  0.84300  Biso   1.000  C
  H109     1.0000 0.97000  0.33080  0.88650  Biso   1.000  H
  C152     1.0000 0.03950  0.32290  0.72400  Biso   1.000  C
  H110     1.0000 0.04590  0.35660  0.68580  Biso   1.000  H
  C153     1.0000 0.06940  0.23330  0.71300  Biso   1.000  C
  H111     1.0000 0.09390  0.20950  0.67020  Biso   1.000  H
  C154     1.0000 0.02310  0.22200  0.83200  Biso   1.000  C
  H112     1.0000 0.01640  0.18830  0.87020  Biso   1.000  H
  Zn8      1.0000 0.28623  0.77369  0.60440  Biso   1.000  Zn
  O29      1.0000 0.24980  0.71820  0.44000  Biso   1.000  O
  H113     1.0000 0.23860  0.69710  0.55450  Biso   1.000  H
  N15      1.0000 0.35600  0.75210  0.62000  Biso   1.000  N
  C155     1.0000 0.39340  0.76790  0.47000  Biso   1.000  C
  H114     1.0000 0.39020  0.79400  0.34590  Biso   1.000  H
  N16      1.0000 0.43740  0.74290  0.51300  Biso   1.000  N
  C156     1.0000 0.37750  0.71300  0.77100  Biso   1.000  C
  O30      1.0000 0.66360  0.77430  0.10100  Biso   1.000  O
  C157     1.0000 0.35540  0.68230  0.96400  Biso   1.000  C
  H115     1.0000 0.32160  0.68620  0.00920  Biso   1.000  H
  O31      1.0000 0.63690  0.81140  0.79200  Biso   1.000  O
  C158     1.0000 0.38450  0.64590  0.09000  Biso   1.000  C
  C159     1.0000 0.36240  0.61530  0.28300  Biso   1.000  C
  H116     1.0000 0.32850  0.62000  0.32330  Biso   1.000  H
  C160     1.0000 0.38870  0.57790  0.41800  Biso   1.000  C
  H117     1.0000 0.37300  0.55770  0.54670  Biso   1.000  H
  C161     1.0000 0.43910  0.57170  0.35400  Biso   1.000  C
  H118     1.0000 0.45810  0.54710  0.44150  Biso   1.000  H
  C162     1.0000 0.46120  0.60220  0.16100  Biso   1.000  C
  H119     1.0000 0.49500  0.59740  0.11960  Biso   1.000  H
  C163     1.0000 0.43490  0.63960  0.02600  Biso   1.000  C
  C164     1.0000 0.45730  0.67010  0.83300  Biso   1.000  C
  H120     1.0000 0.49120  0.66630  0.78870  Biso   1.000  H
  C165     1.0000 0.42800  0.70650  0.70900  Biso   1.000  C
  C166     1.0000 0.48590  0.75710  0.39800  Biso   1.000  C
  C167     1.0000 0.57420  0.78490  0.16600  Biso   1.000  C
  C168     1.0000 0.48610  0.77990  0.14600  Biso   1.000  C
  H121     1.0000 0.45570  0.78570  0.05750  Biso   1.000  H
  C169     1.0000 0.53050  0.79430  0.02500  Biso   1.000  C
  H122     1.0000 0.53100  0.80980  0.85560  Biso   1.000  H
  C170     1.0000 0.57600  0.76250  0.41600  Biso   1.000  C
  H123     1.0000 0.60650  0.75690  0.50420  Biso   1.000  H
  C171     1.0000 0.53080  0.74860  0.52900  Biso   1.000  C
  H124     1.0000 0.53050  0.73320  0.69860  Biso   1.000  H
  C172     1.0000 0.62450  0.79180  0.02600  Biso   1.000  C
  O32      1.0000 0.62180  0.83920  0.95000  Biso   1.000  O
  C173     1.0000 0.49460  0.80710  0.34300  Biso   1.000  C
  H125     1.0000 0.47000  0.83080  0.38650  Biso   1.000  H
  C174     1.0000 0.53950  0.82290  0.22400  Biso   1.000  C
  H126     1.0000 0.54590  0.85660  0.18580  Biso   1.000  H
  C175     1.0000 0.56940  0.73330  0.21300  Biso   1.000  C
  H127     1.0000 0.59390  0.70950  0.17020  Biso   1.000  H
  C176     1.0000 0.52310  0.72200  0.33200  Biso   1.000  C
  H128     1.0000 0.51640  0.68830  0.37020  Biso   1.000  H
