data_image0
_cell_length_a       27.6968
_cell_length_b       27.6968
_cell_length_c       3.5351
_cell_angle_alpha    90
_cell_angle_beta     90
_cell_angle_gamma    90

_symmetry_space_group_name_H-M    "P 1"
_symmetry_int_tables_number       1

loop_
  _symmetry_equiv_pos_as_xyz
  'x, y, z'

loop_
  _atom_site_label
  _atom_site_occupancy
  _atom_site_fract_x
  _atom_site_fract_y
  _atom_site_fract_z
  _atom_site_thermal_displace_type
  _atom_site_B_iso_or_equiv
  _atom_site_type_symbol
  Zn1      1.0000 0.28507  0.21393  0.83940  Biso   1.000  Zn
  N1       1.0000 0.26070  0.14530  0.76900  Biso   1.000  N
  C1       1.0000 0.28150  0.10810  0.92700  Biso   1.000  C
  H1       1.0000 0.31190  0.10950  0.03690  Biso   1.000  H
  N2       1.0000 0.25450  0.06720  0.91500  Biso   1.000  N
  C2       1.0000 0.21540  0.12880  0.63870  Biso   1.000  C
  O1       1.0000 0.27270  0.85820  0.62400  Biso   1.000  O
  C3       1.0000 0.17910  0.15340  0.45200  Biso   1.000  C
  H2       1.0000 0.18250  0.18590  0.39270  Biso   1.000  H
  O2       1.0000 0.34050  0.85880  0.31000  Biso   1.000  O
  C4       1.0000 0.13750  0.12840  0.35400  Biso   1.000  C
  C5       1.0000 0.09960  0.15030  0.16600  Biso   1.000  C
  H3       1.0000 0.10190  0.18280  0.10440  Biso   1.000  H
  C6       1.0000 0.05800  0.12500  0.06600  Biso   1.000  C
  H4       1.0000 0.03310  0.14030  0.93670  Biso   1.000  H
  C7       1.0000 0.05460  0.07650  0.16400  Biso   1.000  C
  H5       1.0000 0.02690  0.05910  0.10340  Biso   1.000  H
  C8       1.0000 0.09230  0.05370  0.35300  Biso   1.000  C
  H6       1.0000 0.08980  0.02120  0.41490  Biso   1.000  H
  C9       1.0000 0.13410  0.07950  0.45120  Biso   1.000  C
  C10      1.0000 0.17030  0.05430  0.63700  Biso   1.000  C
  H7       1.0000 0.16700  0.02170  0.69540  Biso   1.000  H
  C11      1.0000 0.21180  0.07990  0.73300  Biso   1.000  C
  C12      1.0000 0.24590  0.94600  0.31100  Biso   1.000  C
  H8       1.0000 0.22230  0.92490  0.39950  Biso   1.000  H
  C13      1.0000 0.29420  0.93230  0.31400  Biso   1.000  C
  C14      1.0000 0.32940  0.96380  0.18200  Biso   1.000  C
  H9       1.0000 0.36170  0.95460  0.18410  Biso   1.000  H
  C15      1.0000 0.31630  0.00920  0.04800  Biso   1.000  C
  H10      1.0000 0.33990  0.03030  0.95990  Biso   1.000  H
  C16      1.0000 0.26800  0.02290  0.04540  Biso   1.000  C
  C17      1.0000 0.23280  0.99130  0.17700  Biso   1.000  C
  H11      1.0000 0.20050  0.00050  0.17530  Biso   1.000  H
  C18      1.0000 0.30220  0.88060  0.44500  Biso   1.000  C
  O3       1.0000 0.28610  0.24890  0.35400  Biso   1.000  O
  H12      1.0000 0.30930  0.23660  0.22940  Biso   1.000  H
  O4       1.0000 0.34220  0.87000  0.62000  Biso   1.000  O
  Zn2      1.0000 0.71493  0.78607  0.83940  Biso   1.000  Zn
  N3       1.0000 0.73930  0.85470  0.76900  Biso   1.000  N
  C19      1.0000 0.71850  0.89190  0.92700  Biso   1.000  C
  H13      1.0000 0.68810  0.89050  0.03690  Biso   1.000  H
  N4       1.0000 0.74550  0.93280  0.91500  Biso   1.000  N
  C20      1.0000 0.78460  0.87120  0.63870  Biso   1.000  C
  O5       1.0000 0.72730  0.14180  0.62400  Biso   1.000  O
  C21      1.0000 0.82090  0.84660  0.45200  Biso   1.000  C
  H14      1.0000 0.81750  0.81410  0.39270  Biso   1.000  H
  O6       1.0000 0.65950  0.14120  0.31000  Biso   1.000  O
  C22      1.0000 0.86250  0.87160  0.35400  Biso   1.000  C
  C23      1.0000 0.90040  0.84970  0.16600  Biso   1.000  C
  H15      1.0000 0.89810  0.81720  0.10440  Biso   1.000  H
  C24      1.0000 0.94200  0.87500  0.06600  Biso   1.000  C
  H16      1.0000 0.96690  0.85970  0.93670  Biso   1.000  H
  C25      1.0000 0.94540  0.92350  0.16400  Biso   1.000  C
  H17      1.0000 0.97310  0.94090  0.10340  Biso   1.000  H
  C26      1.0000 0.90770  0.94630  0.35300  Biso   1.000  C
  H18      1.0000 0.91020  0.97880  0.41490  Biso   1.000  H
  C27      1.0000 0.86590  0.92050  0.45120  Biso   1.000  C
  C28      1.0000 0.82970  0.94570  0.63700  Biso   1.000  C
  H19      1.0000 0.83300  0.97830  0.69540  Biso   1.000  H
  C29      1.0000 0.78820  0.92010  0.73300  Biso   1.000  C
  C30      1.0000 0.75410  0.05400  0.31100  Biso   1.000  C
  H20      1.0000 0.77770  0.07510  0.39950  Biso   1.000  H
  C31      1.0000 0.70580  0.06770  0.31400  Biso   1.000  C
  C32      1.0000 0.67060  0.03620  0.18200  Biso   1.000  C
  H21      1.0000 0.63830  0.04540  0.18410  Biso   1.000  H
  C33      1.0000 0.68370  0.99080  0.04800  Biso   1.000  C
  H22      1.0000 0.66010  0.96970  0.95990  Biso   1.000  H
  C34      1.0000 0.73200  0.97710  0.04540  Biso   1.000  C
  C35      1.0000 0.76720  0.00870  0.17700  Biso   1.000  C
  H23      1.0000 0.79950  0.99950  0.17530  Biso   1.000  H
  C36      1.0000 0.69780  0.11940  0.44500  Biso   1.000  C
  O7       1.0000 0.71390  0.75110  0.35400  Biso   1.000  O
  H24      1.0000 0.69070  0.76340  0.22940  Biso   1.000  H
  O8       1.0000 0.65780  0.13000  0.62000  Biso   1.000  O
  Zn3      1.0000 0.71393  0.21493  0.66060  Biso   1.000  Zn
  N5       1.0000 0.64530  0.23930  0.73100  Biso   1.000  N
  C37      1.0000 0.60810  0.21850  0.57300  Biso   1.000  C
  H25      1.0000 0.60950  0.18810  0.46310  Biso   1.000  H
  N6       1.0000 0.56720  0.24550  0.58500  Biso   1.000  N
  C38      1.0000 0.62880  0.28460  0.86130  Biso   1.000  C
  O9       1.0000 0.35820  0.22730  0.87600  Biso   1.000  O
  C39      1.0000 0.65340  0.32090  0.04800  Biso   1.000  C
  H26      1.0000 0.68590  0.31750  0.10730  Biso   1.000  H
  O10      1.0000 0.35880  0.15950  0.19000  Biso   1.000  O
  C40      1.0000 0.62840  0.36250  0.14600  Biso   1.000  C
  C41      1.0000 0.65030  0.40040  0.33400  Biso   1.000  C
  H27      1.0000 0.68280  0.39810  0.39560  Biso   1.000  H
  C42      1.0000 0.62500  0.44200  0.43400  Biso   1.000  C
  H28      1.0000 0.64030  0.46690  0.56330  Biso   1.000  H
  C43      1.0000 0.57650  0.44540  0.33600  Biso   1.000  C
  H29      1.0000 0.55910  0.47310  0.39660  Biso   1.000  H
  C44      1.0000 0.55370  0.40770  0.14700  Biso   1.000  C
  H30      1.0000 0.52120  0.41020  0.08510  Biso   1.000  H
  C45      1.0000 0.57950  0.36590  0.04880  Biso   1.000  C
  C46      1.0000 0.55430  0.32970  0.86300  Biso   1.000  C
  H31      1.0000 0.52170  0.33300  0.80460  Biso   1.000  H
  C47      1.0000 0.57990  0.28820  0.76700  Biso   1.000  C
  C48      1.0000 0.44600  0.25410  0.18900  Biso   1.000  C
  H32      1.0000 0.42490  0.27770  0.10050  Biso   1.000  H
  C49      1.0000 0.43230  0.20580  0.18600  Biso   1.000  C
  C50      1.0000 0.46380  0.17060  0.31800  Biso   1.000  C
  H33      1.0000 0.45460  0.13830  0.31590  Biso   1.000  H
  C51      1.0000 0.50920  0.18370  0.45200  Biso   1.000  C
  H34      1.0000 0.53030  0.16010  0.54010  Biso   1.000  H
  C52      1.0000 0.52290  0.23200  0.45460  Biso   1.000  C
  C53      1.0000 0.49130  0.26720  0.32300  Biso   1.000  C
  H35      1.0000 0.50050  0.29950  0.32470  Biso   1.000  H
  C54      1.0000 0.38060  0.19780  0.05500  Biso   1.000  C
  O11      1.0000 0.74890  0.21390  0.14600  Biso   1.000  O
  H36      1.0000 0.73660  0.19070  0.27060  Biso   1.000  H
  O12      1.0000 0.37000  0.15780  0.88000  Biso   1.000  O
  Zn4      1.0000 0.28607  0.78507  0.66060  Biso   1.000  Zn
  N7       1.0000 0.35470  0.76070  0.73100  Biso   1.000  N
  C55      1.0000 0.39190  0.78150  0.57300  Biso   1.000  C
  H37      1.0000 0.39050  0.81190  0.46310  Biso   1.000  H
  N8       1.0000 0.43280  0.75450  0.58500  Biso   1.000  N
  C56      1.0000 0.37120  0.71540  0.86130  Biso   1.000  C
  O13      1.0000 0.64180  0.77270  0.87600  Biso   1.000  O
  C57      1.0000 0.34660  0.67910  0.04800  Biso   1.000  C
  H38      1.0000 0.31410  0.68250  0.10730  Biso   1.000  H
  O14      1.0000 0.64120  0.84050  0.19000  Biso   1.000  O
  C58      1.0000 0.37160  0.63750  0.14600  Biso   1.000  C
  C59      1.0000 0.34970  0.59960  0.33400  Biso   1.000  C
  H39      1.0000 0.31720  0.60190  0.39560  Biso   1.000  H
  C60      1.0000 0.37500  0.55800  0.43400  Biso   1.000  C
  H40      1.0000 0.35970  0.53310  0.56330  Biso   1.000  H
  C61      1.0000 0.42350  0.55460  0.33600  Biso   1.000  C
  H41      1.0000 0.44090  0.52690  0.39660  Biso   1.000  H
  C62      1.0000 0.44630  0.59230  0.14700  Biso   1.000  C
  H42      1.0000 0.47880  0.58980  0.08510  Biso   1.000  H
  C63      1.0000 0.42050  0.63410  0.04880  Biso   1.000  C
  C64      1.0000 0.44570  0.67030  0.86300  Biso   1.000  C
  H43      1.0000 0.47830  0.66700  0.80460  Biso   1.000  H
  C65      1.0000 0.42010  0.71180  0.76700  Biso   1.000  C
  C66      1.0000 0.55400  0.74590  0.18900  Biso   1.000  C
  H44      1.0000 0.57510  0.72230  0.10050  Biso   1.000  H
  C67      1.0000 0.56770  0.79420  0.18600  Biso   1.000  C
  C68      1.0000 0.53620  0.82940  0.31800  Biso   1.000  C
  H45      1.0000 0.54540  0.86170  0.31590  Biso   1.000  H
  C69      1.0000 0.49080  0.81630  0.45200  Biso   1.000  C
  H46      1.0000 0.46970  0.83990  0.54010  Biso   1.000  H
  C70      1.0000 0.47710  0.76800  0.45460  Biso   1.000  C
  C71      1.0000 0.50870  0.73280  0.32300  Biso   1.000  C
  H47      1.0000 0.49950  0.70050  0.32470  Biso   1.000  H
  C72      1.0000 0.61940  0.80220  0.05500  Biso   1.000  C
  O15      1.0000 0.25110  0.78610  0.14600  Biso   1.000  O
  H48      1.0000 0.26340  0.80930  0.27060  Biso   1.000  H
  O16      1.0000 0.63000  0.84220  0.88000  Biso   1.000  O
  Zn5      1.0000 0.78507  0.71393  0.33940  Biso   1.000  Zn
  N9       1.0000 0.76070  0.64530  0.26900  Biso   1.000  N
  C73      1.0000 0.78150  0.60810  0.42700  Biso   1.000  C
  H49      1.0000 0.81190  0.60950  0.53690  Biso   1.000  H
  N10      1.0000 0.75450  0.56720  0.41500  Biso   1.000  N
  C74      1.0000 0.71540  0.62880  0.13870  Biso   1.000  C
  O17      1.0000 0.77270  0.35820  0.12400  Biso   1.000  O
  C75      1.0000 0.67910  0.65340  0.95200  Biso   1.000  C
  H50      1.0000 0.68250  0.68590  0.89270  Biso   1.000  H
  O18      1.0000 0.84050  0.35880  0.81000  Biso   1.000  O
  C76      1.0000 0.63750  0.62840  0.85400  Biso   1.000  C
  C77      1.0000 0.59960  0.65030  0.66600  Biso   1.000  C
  H51      1.0000 0.60190  0.68280  0.60440  Biso   1.000  H
  C78      1.0000 0.55800  0.62500  0.56600  Biso   1.000  C
  H52      1.0000 0.53310  0.64030  0.43670  Biso   1.000  H
  C79      1.0000 0.55460  0.57650  0.66400  Biso   1.000  C
  H53      1.0000 0.52690  0.55910  0.60340  Biso   1.000  H
  C80      1.0000 0.59230  0.55370  0.85300  Biso   1.000  C
  H54      1.0000 0.58980  0.52120  0.91490  Biso   1.000  H
  C81      1.0000 0.63410  0.57950  0.95120  Biso   1.000  C
  C82      1.0000 0.67030  0.55430  0.13700  Biso   1.000  C
  H55      1.0000 0.66700  0.52170  0.19540  Biso   1.000  H
  C83      1.0000 0.71180  0.57990  0.23300  Biso   1.000  C
  C84      1.0000 0.74590  0.44600  0.81100  Biso   1.000  C
  H56      1.0000 0.72230  0.42490  0.89950  Biso   1.000  H
  C85      1.0000 0.79420  0.43230  0.81400  Biso   1.000  C
  C86      1.0000 0.82940  0.46380  0.68200  Biso   1.000  C
  H57      1.0000 0.86170  0.45460  0.68410  Biso   1.000  H
  C87      1.0000 0.81630  0.50920  0.54800  Biso   1.000  C
  H58      1.0000 0.83990  0.53030  0.45990  Biso   1.000  H
  C88      1.0000 0.76800  0.52290  0.54540  Biso   1.000  C
  C89      1.0000 0.73280  0.49130  0.67700  Biso   1.000  C
  H59      1.0000 0.70050  0.50050  0.67530  Biso   1.000  H
  C90      1.0000 0.80220  0.38060  0.94500  Biso   1.000  C
  O19      1.0000 0.78610  0.74890  0.85400  Biso   1.000  O
  H60      1.0000 0.80930  0.73660  0.72940  Biso   1.000  H
  O20      1.0000 0.84220  0.37000  0.12000  Biso   1.000  O
  Zn6      1.0000 0.21493  0.28607  0.33940  Biso   1.000  Zn
  N11      1.0000 0.23930  0.35470  0.26900  Biso   1.000  N
  C91      1.0000 0.21850  0.39190  0.42700  Biso   1.000  C
  H61      1.0000 0.18810  0.39050  0.53690  Biso   1.000  H
  N12      1.0000 0.24550  0.43280  0.41500  Biso   1.000  N
  C92      1.0000 0.28460  0.37120  0.13870  Biso   1.000  C
  O21      1.0000 0.22730  0.64180  0.12400  Biso   1.000  O
  C93      1.0000 0.32090  0.34660  0.95200  Biso   1.000  C
  H62      1.0000 0.31750  0.31410  0.89270  Biso   1.000  H
  O22      1.0000 0.15950  0.64120  0.81000  Biso   1.000  O
  C94      1.0000 0.36250  0.37160  0.85400  Biso   1.000  C
  C95      1.0000 0.40040  0.34970  0.66600  Biso   1.000  C
  H63      1.0000 0.39810  0.31720  0.60440  Biso   1.000  H
  C96      1.0000 0.44200  0.37500  0.56600  Biso   1.000  C
  H64      1.0000 0.46690  0.35970  0.43670  Biso   1.000  H
  C97      1.0000 0.44540  0.42350  0.66400  Biso   1.000  C
  H65      1.0000 0.47310  0.44090  0.60340  Biso   1.000  H
  C98      1.0000 0.40770  0.44630  0.85300  Biso   1.000  C
  H66      1.0000 0.41020  0.47880  0.91490  Biso   1.000  H
  C99      1.0000 0.36590  0.42050  0.95120  Biso   1.000  C
  C100     1.0000 0.32970  0.44570  0.13700  Biso   1.000  C
  H67      1.0000 0.33300  0.47830  0.19540  Biso   1.000  H
  C101     1.0000 0.28820  0.42010  0.23300  Biso   1.000  C
  C102     1.0000 0.25410  0.55400  0.81100  Biso   1.000  C
  H68      1.0000 0.27770  0.57510  0.89950  Biso   1.000  H
  C103     1.0000 0.20580  0.56770  0.81400  Biso   1.000  C
  C104     1.0000 0.17060  0.53620  0.68200  Biso   1.000  C
  H69      1.0000 0.13830  0.54540  0.68410  Biso   1.000  H
  C105     1.0000 0.18370  0.49080  0.54800  Biso   1.000  C
  H70      1.0000 0.16010  0.46970  0.45990  Biso   1.000  H
  C106     1.0000 0.23200  0.47710  0.54540  Biso   1.000  C
  C107     1.0000 0.26720  0.50870  0.67700  Biso   1.000  C
  H71      1.0000 0.29950  0.49950  0.67530  Biso   1.000  H
  C108     1.0000 0.19780  0.61940  0.94500  Biso   1.000  C
  O23      1.0000 0.21390  0.25110  0.85400  Biso   1.000  O
  H72      1.0000 0.19070  0.26340  0.72940  Biso   1.000  H
  O24      1.0000 0.15780  0.63000  0.12000  Biso   1.000  O
  Zn7      1.0000 0.21393  0.71493  0.16060  Biso   1.000  Zn
  N13      1.0000 0.14530  0.73930  0.23100  Biso   1.000  N
  C109     1.0000 0.10810  0.71850  0.07300  Biso   1.000  C
  H73      1.0000 0.10950  0.68810  0.96310  Biso   1.000  H
  N14      1.0000 0.06720  0.74550  0.08500  Biso   1.000  N
  C110     1.0000 0.12880  0.78460  0.36130  Biso   1.000  C
  O25      1.0000 0.85820  0.72730  0.37600  Biso   1.000  O
  C111     1.0000 0.15340  0.82090  0.54800  Biso   1.000  C
  H74      1.0000 0.18590  0.81750  0.60730  Biso   1.000  H
  O26      1.0000 0.85880  0.65950  0.69000  Biso   1.000  O
  C112     1.0000 0.12840  0.86250  0.64600  Biso   1.000  C
  C113     1.0000 0.15030  0.90040  0.83400  Biso   1.000  C
  H75      1.0000 0.18280  0.89810  0.89560  Biso   1.000  H
  C114     1.0000 0.12500  0.94200  0.93400  Biso   1.000  C
  H76      1.0000 0.14030  0.96690  0.06330  Biso   1.000  H
  C115     1.0000 0.07650  0.94540  0.83600  Biso   1.000  C
  H77      1.0000 0.05910  0.97310  0.89660  Biso   1.000  H
  C116     1.0000 0.05370  0.90770  0.64700  Biso   1.000  C
  H78      1.0000 0.02120  0.91020  0.58510  Biso   1.000  H
  C117     1.0000 0.07950  0.86590  0.54880  Biso   1.000  C
  C118     1.0000 0.05430  0.82970  0.36300  Biso   1.000  C
  H79      1.0000 0.02170  0.83300  0.30460  Biso   1.000  H
  C119     1.0000 0.07990  0.78820  0.26700  Biso   1.000  C
  C120     1.0000 0.94600  0.75410  0.68900  Biso   1.000  C
  H80      1.0000 0.92490  0.77770  0.60050  Biso   1.000  H
  C121     1.0000 0.93230  0.70580  0.68600  Biso   1.000  C
  C122     1.0000 0.96380  0.67060  0.81800  Biso   1.000  C
  H81      1.0000 0.95460  0.63830  0.81590  Biso   1.000  H
  C123     1.0000 0.00920  0.68370  0.95200  Biso   1.000  C
  H82      1.0000 0.03030  0.66010  0.04010  Biso   1.000  H
  C124     1.0000 0.02290  0.73200  0.95460  Biso   1.000  C
  C125     1.0000 0.99130  0.76720  0.82300  Biso   1.000  C
  H83      1.0000 0.00050  0.79950  0.82470  Biso   1.000  H
  C126     1.0000 0.88060  0.69780  0.55500  Biso   1.000  C
  O27      1.0000 0.24890  0.71390  0.64600  Biso   1.000  O
  H84      1.0000 0.23660  0.69070  0.77060  Biso   1.000  H
  O28      1.0000 0.87000  0.65780  0.38000  Biso   1.000  O
  Zn8      1.0000 0.78607  0.28507  0.16060  Biso   1.000  Zn
  N15      1.0000 0.85470  0.26070  0.23100  Biso   1.000  N
  C127     1.0000 0.89190  0.28150  0.07300  Biso   1.000  C
  H85      1.0000 0.89050  0.31190  0.96310  Biso   1.000  H
  N16      1.0000 0.93280  0.25450  0.08500  Biso   1.000  N
  C128     1.0000 0.87120  0.21540  0.36130  Biso   1.000  C
  O29      1.0000 0.14180  0.27270  0.37600  Biso   1.000  O
  C129     1.0000 0.84660  0.17910  0.54800  Biso   1.000  C
  H86      1.0000 0.81410  0.18250  0.60730  Biso   1.000  H
  O30      1.0000 0.14120  0.34050  0.69000  Biso   1.000  O
  C130     1.0000 0.87160  0.13750  0.64600  Biso   1.000  C
  C131     1.0000 0.84970  0.09960  0.83400  Biso   1.000  C
  H87      1.0000 0.81720  0.10190  0.89560  Biso   1.000  H
  C132     1.0000 0.87500  0.05800  0.93400  Biso   1.000  C
  H88      1.0000 0.85970  0.03310  0.06330  Biso   1.000  H
  C133     1.0000 0.92350  0.05460  0.83600  Biso   1.000  C
  H89      1.0000 0.94090  0.02690  0.89660  Biso   1.000  H
  C134     1.0000 0.94630  0.09230  0.64700  Biso   1.000  C
  H90      1.0000 0.97880  0.08980  0.58510  Biso   1.000  H
  C135     1.0000 0.92050  0.13410  0.54880  Biso   1.000  C
  C136     1.0000 0.94570  0.17030  0.36300  Biso   1.000  C
  H91      1.0000 0.97830  0.16700  0.30460  Biso   1.000  H
  C137     1.0000 0.92010  0.21180  0.26700  Biso   1.000  C
  C138     1.0000 0.05400  0.24590  0.68900  Biso   1.000  C
  H92      1.0000 0.07510  0.22230  0.60050  Biso   1.000  H
  C139     1.0000 0.06770  0.29420  0.68600  Biso   1.000  C
  C140     1.0000 0.03620  0.32940  0.81800  Biso   1.000  C
  H93      1.0000 0.04540  0.36170  0.81590  Biso   1.000  H
  C141     1.0000 0.99080  0.31630  0.95200  Biso   1.000  C
  H94      1.0000 0.96970  0.33990  0.04010  Biso   1.000  H
  C142     1.0000 0.97710  0.26800  0.95460  Biso   1.000  C
  C143     1.0000 0.00870  0.23280  0.82300  Biso   1.000  C
  H95      1.0000 0.99950  0.20050  0.82470  Biso   1.000  H
  C144     1.0000 0.11940  0.30220  0.55500  Biso   1.000  C
  O31      1.0000 0.75110  0.28610  0.64600  Biso   1.000  O
  H96      1.0000 0.76340  0.30930  0.77060  Biso   1.000  H
  O32      1.0000 0.13000  0.34220  0.38000  Biso   1.000  O
