data_image0
_cell_length_a       39.073
_cell_length_b       19.229
_cell_length_c       13.798
_cell_angle_alpha    90
_cell_angle_beta     103.6
_cell_angle_gamma    90

_symmetry_space_group_name_H-M    "P 1"
_symmetry_int_tables_number       1

loop_
  _symmetry_equiv_pos_as_xyz
  'x, y, z'

loop_
  _atom_site_label
  _atom_site_occupancy
  _atom_site_fract_x
  _atom_site_fract_y
  _atom_site_fract_z
  _atom_site_thermal_displace_type
  _atom_site_B_iso_or_equiv
  _atom_site_type_symbol
  C1       1.0000 0.12970  0.79680  0.83590  Biso   1.000  C
  H1       1.0000 0.14210  0.76180  0.87570  Biso   1.000  H
  C2       1.0000 0.10210  0.84110  0.68220  Biso   1.000  C
  H2       1.0000 0.09520  0.83840  0.61310  Biso   1.000  H
  C3       1.0000 0.09520  0.89790  0.72910  Biso   1.000  C
  H3       1.0000 0.08270  0.93350  0.69100  Biso   1.000  H
  C4       1.0000 0.12556  0.72290  0.68680  Biso   1.000  C
  C5       1.0000 0.11900  0.78720  0.73550  Biso   1.000  C
  C6       1.0000 0.08920  0.21250  0.20440  Biso   1.000  C
  C7       1.0000 0.07570  0.15660  0.13460  Biso   1.000  C
  C8       1.0000 0.06160  0.44440  0.64960  Biso   1.000  C
  H4       1.0000 0.07340  0.40200  0.65630  Biso   1.000  H
  C9       1.0000 0.02650  0.44290  0.63140  Biso   1.000  C
  H5       1.0000 0.01490  0.40050  0.61840  Biso   1.000  H
  C10      1.0000 0.12240  0.23440  0.21840  Biso   1.000  C
  H6       1.0000 0.13750  0.21470  0.18300  Biso   1.000  H
  C11      1.0000 0.06820  0.24540  0.25460  Biso   1.000  C
  H7       1.0000 0.04470  0.23260  0.24570  Biso   1.000  H
  C12      1.0000 0.13370  0.28590  0.28520  Biso   1.000  C
  H8       1.0000 0.15720  0.29950  0.29640  Biso   1.000  H
  C13      1.0000 0.15150  0.44440  0.01120  Biso   1.000  C
  H9       1.0000 0.15590  0.40220  0.04470  Biso   1.000  H
  C14      1.0000 0.14810  0.44650  0.90500  Biso   1.000  C
  H10      1.0000 0.14810  0.40420  0.87220  Biso   1.000  H
  C15      1.0000 0.08190  0.29760  0.31820  Biso   1.000  C
  H11      1.0000 0.06710  0.32020  0.35190  Biso   1.000  H
  C16      1.0000 0.12240  0.85580  0.87780  Biso   1.000  C
  H12      1.0000 0.13000  0.86060  0.94660  Biso   1.000  H
  Cd1      1.0000 0.13512  0.40686  0.43847  Biso   1.000  Cd
  N1       1.0000 0.13818  0.62080  0.66770  Biso   1.000  N
  N2       1.0000 0.13682  0.66660  0.73580  Biso   1.000  N
  N3       1.0000 0.12821  0.64880  0.58050  Biso   1.000  N
  N4       1.0000 0.12031  0.71450  0.59070  Biso   1.000  N
  N5       1.0000 0.10516  0.90700  0.82650  Biso   1.000  N
  N6       1.0000 0.04330  0.08090  0.05480  Biso   1.000  N
  N7       1.0000 0.11389  0.31730  0.33440  Biso   1.000  N
  N8       1.0000 0.14731  0.53300  0.30370  Biso   1.000  N
  N9       1.0000 0.14851  0.55490  0.21520  Biso   1.000  N
  N10      1.0000 0.07263  0.08070  0.02630  Biso   1.000  N
  N11      1.0000 0.04437  0.12890  0.12400  Biso   1.000  N
  N12      1.0000 0.09360  0.12850  0.07560  Biso   1.000  N
  N13      1.0000 0.91839  0.46610  0.59240  Biso   1.000  N
  N14      1.0000 0.95078  0.44420  0.60680  Biso   1.000  N
  H13      1.0000 0.02850  0.95430  0.29350  Biso   1.000  H
  H14      1.0000 0.02560  0.03250  0.32260  Biso   1.000  H
  H15      1.0000 0.03560  0.01330  0.22230  Biso   1.000  H
  C17      1.0000 0.62970  0.29680  0.83590  Biso   1.000  C
  H16      1.0000 0.64210  0.26180  0.87570  Biso   1.000  H
  C18      1.0000 0.60210  0.34110  0.68220  Biso   1.000  C
  H17      1.0000 0.59520  0.33840  0.61310  Biso   1.000  H
  C19      1.0000 0.59520  0.39790  0.72910  Biso   1.000  C
  H18      1.0000 0.58270  0.43350  0.69100  Biso   1.000  H
  C20      1.0000 0.62556  0.22290  0.68680  Biso   1.000  C
  C21      1.0000 0.61900  0.28720  0.73550  Biso   1.000  C
  C22      1.0000 0.58920  0.71250  0.20440  Biso   1.000  C
  C23      1.0000 0.57570  0.65660  0.13460  Biso   1.000  C
  C24      1.0000 0.56160  0.94440  0.64960  Biso   1.000  C
  H19      1.0000 0.57340  0.90200  0.65630  Biso   1.000  H
  C25      1.0000 0.52650  0.94290  0.63140  Biso   1.000  C
  H20      1.0000 0.51490  0.90050  0.61840  Biso   1.000  H
  C26      1.0000 0.62240  0.73440  0.21840  Biso   1.000  C
  H21      1.0000 0.63750  0.71470  0.18300  Biso   1.000  H
  C27      1.0000 0.56820  0.74540  0.25460  Biso   1.000  C
  H22      1.0000 0.54470  0.73260  0.24570  Biso   1.000  H
  C28      1.0000 0.63370  0.78590  0.28520  Biso   1.000  C
  H23      1.0000 0.65720  0.79950  0.29640  Biso   1.000  H
  C29      1.0000 0.65150  0.94440  0.01120  Biso   1.000  C
  H24      1.0000 0.65590  0.90220  0.04470  Biso   1.000  H
  C30      1.0000 0.64810  0.94650  0.90500  Biso   1.000  C
  H25      1.0000 0.64810  0.90420  0.87220  Biso   1.000  H
  C31      1.0000 0.58190  0.79760  0.31820  Biso   1.000  C
  H26      1.0000 0.56710  0.82020  0.35190  Biso   1.000  H
  C32      1.0000 0.62240  0.35580  0.87780  Biso   1.000  C
  H27      1.0000 0.63000  0.36060  0.94660  Biso   1.000  H
  Cd2      1.0000 0.63512  0.90686  0.43847  Biso   1.000  Cd
  N15      1.0000 0.63818  0.12080  0.66770  Biso   1.000  N
  N16      1.0000 0.63682  0.16660  0.73580  Biso   1.000  N
  N17      1.0000 0.62821  0.14880  0.58050  Biso   1.000  N
  N18      1.0000 0.62031  0.21450  0.59070  Biso   1.000  N
  N19      1.0000 0.60516  0.40700  0.82650  Biso   1.000  N
  N20      1.0000 0.54330  0.58090  0.05480  Biso   1.000  N
  N21      1.0000 0.61389  0.81730  0.33440  Biso   1.000  N
  N22      1.0000 0.64731  0.03300  0.30370  Biso   1.000  N
  N23      1.0000 0.64851  0.05490  0.21520  Biso   1.000  N
  N24      1.0000 0.57263  0.58070  0.02630  Biso   1.000  N
  N25      1.0000 0.54437  0.62890  0.12400  Biso   1.000  N
  N26      1.0000 0.59360  0.62850  0.07560  Biso   1.000  N
  N27      1.0000 0.41839  0.96610  0.59240  Biso   1.000  N
  N28      1.0000 0.45078  0.94420  0.60680  Biso   1.000  N
  H28      1.0000 0.52850  0.45430  0.29350  Biso   1.000  H
  H29      1.0000 0.52560  0.53250  0.32260  Biso   1.000  H
  H30      1.0000 0.53560  0.51330  0.22230  Biso   1.000  H
  C33      1.0000 0.87030  0.79680  0.16410  Biso   1.000  C
  H31      1.0000 0.85790  0.76180  0.12430  Biso   1.000  H
  C34      1.0000 0.89790  0.84110  0.31780  Biso   1.000  C
  H32      1.0000 0.90480  0.83840  0.38690  Biso   1.000  H
  C35      1.0000 0.90480  0.89790  0.27090  Biso   1.000  C
  H33      1.0000 0.91730  0.93350  0.30900  Biso   1.000  H
  C36      1.0000 0.87444  0.72290  0.31320  Biso   1.000  C
  C37      1.0000 0.88100  0.78720  0.26450  Biso   1.000  C
  C38      1.0000 0.91080  0.21250  0.79560  Biso   1.000  C
  C39      1.0000 0.92430  0.15660  0.86540  Biso   1.000  C
  C40      1.0000 0.93840  0.44440  0.35040  Biso   1.000  C
  H34      1.0000 0.92660  0.40200  0.34370  Biso   1.000  H
  C41      1.0000 0.97350  0.44290  0.36860  Biso   1.000  C
  H35      1.0000 0.98510  0.40050  0.38160  Biso   1.000  H
  C42      1.0000 0.87760  0.23440  0.78160  Biso   1.000  C
  H36      1.0000 0.86250  0.21470  0.81700  Biso   1.000  H
  C43      1.0000 0.93180  0.24540  0.74540  Biso   1.000  C
  H37      1.0000 0.95530  0.23260  0.75430  Biso   1.000  H
  C44      1.0000 0.86630  0.28590  0.71480  Biso   1.000  C
  H38      1.0000 0.84280  0.29950  0.70360  Biso   1.000  H
  C45      1.0000 0.84850  0.44440  0.98880  Biso   1.000  C
  H39      1.0000 0.84410  0.40220  0.95530  Biso   1.000  H
  C46      1.0000 0.85190  0.44650  0.09500  Biso   1.000  C
  H40      1.0000 0.85190  0.40420  0.12780  Biso   1.000  H
  C47      1.0000 0.91810  0.29760  0.68180  Biso   1.000  C
  H41      1.0000 0.93290  0.32020  0.64810  Biso   1.000  H
  C48      1.0000 0.87760  0.85580  0.12220  Biso   1.000  C
  H42      1.0000 0.87000  0.86060  0.05340  Biso   1.000  H
  Cd3      1.0000 0.86488  0.40686  0.56153  Biso   1.000  Cd
  N29      1.0000 0.86182  0.62080  0.33230  Biso   1.000  N
  N30      1.0000 0.86318  0.66660  0.26420  Biso   1.000  N
  N31      1.0000 0.87179  0.64880  0.41950  Biso   1.000  N
  N32      1.0000 0.87969  0.71450  0.40930  Biso   1.000  N
  N33      1.0000 0.89484  0.90700  0.17350  Biso   1.000  N
  N34      1.0000 0.95670  0.08090  0.94520  Biso   1.000  N
  N35      1.0000 0.88611  0.31730  0.66560  Biso   1.000  N
  N36      1.0000 0.85269  0.53300  0.69630  Biso   1.000  N
  N37      1.0000 0.85149  0.55490  0.78480  Biso   1.000  N
  N38      1.0000 0.92737  0.08070  0.97370  Biso   1.000  N
  N39      1.0000 0.95563  0.12890  0.87600  Biso   1.000  N
  N40      1.0000 0.90640  0.12850  0.92440  Biso   1.000  N
  N41      1.0000 0.08161  0.46610  0.40760  Biso   1.000  N
  N42      1.0000 0.04922  0.44420  0.39320  Biso   1.000  N
  H43      1.0000 0.97150  0.95430  0.70650  Biso   1.000  H
  H44      1.0000 0.97440  0.03250  0.67740  Biso   1.000  H
  H45      1.0000 0.96440  0.01330  0.77770  Biso   1.000  H
  C49      1.0000 0.37030  0.29680  0.16410  Biso   1.000  C
  H46      1.0000 0.35790  0.26180  0.12430  Biso   1.000  H
  C50      1.0000 0.39790  0.34110  0.31780  Biso   1.000  C
  H47      1.0000 0.40480  0.33840  0.38690  Biso   1.000  H
  C51      1.0000 0.40480  0.39790  0.27090  Biso   1.000  C
  H48      1.0000 0.41730  0.43350  0.30900  Biso   1.000  H
  C52      1.0000 0.37444  0.22290  0.31320  Biso   1.000  C
  C53      1.0000 0.38100  0.28720  0.26450  Biso   1.000  C
  C54      1.0000 0.41080  0.71250  0.79560  Biso   1.000  C
  C55      1.0000 0.42430  0.65660  0.86540  Biso   1.000  C
  C56      1.0000 0.43840  0.94440  0.35040  Biso   1.000  C
  H49      1.0000 0.42660  0.90200  0.34370  Biso   1.000  H
  C57      1.0000 0.47350  0.94290  0.36860  Biso   1.000  C
  H50      1.0000 0.48510  0.90050  0.38160  Biso   1.000  H
  C58      1.0000 0.37760  0.73440  0.78160  Biso   1.000  C
  H51      1.0000 0.36250  0.71470  0.81700  Biso   1.000  H
  C59      1.0000 0.43180  0.74540  0.74540  Biso   1.000  C
  H52      1.0000 0.45530  0.73260  0.75430  Biso   1.000  H
  C60      1.0000 0.36630  0.78590  0.71480  Biso   1.000  C
  H53      1.0000 0.34280  0.79950  0.70360  Biso   1.000  H
  C61      1.0000 0.34850  0.94440  0.98880  Biso   1.000  C
  H54      1.0000 0.34410  0.90220  0.95530  Biso   1.000  H
  C62      1.0000 0.35190  0.94650  0.09500  Biso   1.000  C
  H55      1.0000 0.35190  0.90420  0.12780  Biso   1.000  H
  C63      1.0000 0.41810  0.79760  0.68180  Biso   1.000  C
  H56      1.0000 0.43290  0.82020  0.64810  Biso   1.000  H
  C64      1.0000 0.37760  0.35580  0.12220  Biso   1.000  C
  H57      1.0000 0.37000  0.36060  0.05340  Biso   1.000  H
  Cd4      1.0000 0.36488  0.90686  0.56153  Biso   1.000  Cd
  N43      1.0000 0.36182  0.12080  0.33230  Biso   1.000  N
  N44      1.0000 0.36318  0.16660  0.26420  Biso   1.000  N
  N45      1.0000 0.37179  0.14880  0.41950  Biso   1.000  N
  N46      1.0000 0.37969  0.21450  0.40930  Biso   1.000  N
  N47      1.0000 0.39484  0.40700  0.17350  Biso   1.000  N
  N48      1.0000 0.45670  0.58090  0.94520  Biso   1.000  N
  N49      1.0000 0.38611  0.81730  0.66560  Biso   1.000  N
  N50      1.0000 0.35269  0.03300  0.69630  Biso   1.000  N
  N51      1.0000 0.35149  0.05490  0.78480  Biso   1.000  N
  N52      1.0000 0.42737  0.58070  0.97370  Biso   1.000  N
  N53      1.0000 0.45563  0.62890  0.87600  Biso   1.000  N
  N54      1.0000 0.40640  0.62850  0.92440  Biso   1.000  N
  N55      1.0000 0.58161  0.96610  0.40760  Biso   1.000  N
  N56      1.0000 0.54922  0.94420  0.39320  Biso   1.000  N
  H58      1.0000 0.47150  0.45430  0.70650  Biso   1.000  H
  H59      1.0000 0.47440  0.53250  0.67740  Biso   1.000  H
  H60      1.0000 0.46440  0.51330  0.77770  Biso   1.000  H
  C65      1.0000 0.87030  0.20320  0.16410  Biso   1.000  C
  H61      1.0000 0.85790  0.23820  0.12430  Biso   1.000  H
  C66      1.0000 0.89790  0.15890  0.31780  Biso   1.000  C
  H62      1.0000 0.90480  0.16160  0.38690  Biso   1.000  H
  C67      1.0000 0.90480  0.10210  0.27090  Biso   1.000  C
  H63      1.0000 0.91730  0.06650  0.30900  Biso   1.000  H
  C68      1.0000 0.87444  0.27710  0.31320  Biso   1.000  C
  C69      1.0000 0.88100  0.21280  0.26450  Biso   1.000  C
  C70      1.0000 0.91080  0.78750  0.79560  Biso   1.000  C
  C71      1.0000 0.92430  0.84340  0.86540  Biso   1.000  C
  C72      1.0000 0.93840  0.55560  0.35040  Biso   1.000  C
  H64      1.0000 0.92660  0.59800  0.34370  Biso   1.000  H
  C73      1.0000 0.97350  0.55710  0.36860  Biso   1.000  C
  H65      1.0000 0.98510  0.59950  0.38160  Biso   1.000  H
  C74      1.0000 0.87760  0.76560  0.78160  Biso   1.000  C
  H66      1.0000 0.86250  0.78530  0.81700  Biso   1.000  H
  C75      1.0000 0.93180  0.75460  0.74540  Biso   1.000  C
  H67      1.0000 0.95530  0.76740  0.75430  Biso   1.000  H
  C76      1.0000 0.86630  0.71410  0.71480  Biso   1.000  C
  H68      1.0000 0.84280  0.70050  0.70360  Biso   1.000  H
  C77      1.0000 0.84850  0.55560  0.98880  Biso   1.000  C
  H69      1.0000 0.84410  0.59780  0.95530  Biso   1.000  H
  C78      1.0000 0.85190  0.55350  0.09500  Biso   1.000  C
  H70      1.0000 0.85190  0.59580  0.12780  Biso   1.000  H
  C79      1.0000 0.91810  0.70240  0.68180  Biso   1.000  C
  H71      1.0000 0.93290  0.67980  0.64810  Biso   1.000  H
  C80      1.0000 0.87760  0.14420  0.12220  Biso   1.000  C
  H72      1.0000 0.87000  0.13940  0.05340  Biso   1.000  H
  Cd5      1.0000 0.86488  0.59314  0.56153  Biso   1.000  Cd
  N57      1.0000 0.86182  0.37920  0.33230  Biso   1.000  N
  N58      1.0000 0.86318  0.33340  0.26420  Biso   1.000  N
  N59      1.0000 0.87179  0.35120  0.41950  Biso   1.000  N
  N60      1.0000 0.87969  0.28550  0.40930  Biso   1.000  N
  N61      1.0000 0.89484  0.09300  0.17350  Biso   1.000  N
  N62      1.0000 0.95670  0.91910  0.94520  Biso   1.000  N
  N63      1.0000 0.88611  0.68270  0.66560  Biso   1.000  N
  N64      1.0000 0.85269  0.46700  0.69630  Biso   1.000  N
  N65      1.0000 0.85149  0.44510  0.78480  Biso   1.000  N
  N66      1.0000 0.92737  0.91930  0.97370  Biso   1.000  N
  N67      1.0000 0.95563  0.87110  0.87600  Biso   1.000  N
  N68      1.0000 0.90640  0.87150  0.92440  Biso   1.000  N
  N69      1.0000 0.08161  0.53390  0.40760  Biso   1.000  N
  N70      1.0000 0.04922  0.55580  0.39320  Biso   1.000  N
  H73      1.0000 0.97150  0.04570  0.70650  Biso   1.000  H
  H74      1.0000 0.97440  0.96750  0.67740  Biso   1.000  H
  H75      1.0000 0.96440  0.98670  0.77770  Biso   1.000  H
  C81      1.0000 0.37030  0.70320  0.16410  Biso   1.000  C
  H76      1.0000 0.35790  0.73820  0.12430  Biso   1.000  H
  C82      1.0000 0.39790  0.65890  0.31780  Biso   1.000  C
  H77      1.0000 0.40480  0.66160  0.38690  Biso   1.000  H
  C83      1.0000 0.40480  0.60210  0.27090  Biso   1.000  C
  H78      1.0000 0.41730  0.56650  0.30900  Biso   1.000  H
  C84      1.0000 0.37444  0.77710  0.31320  Biso   1.000  C
  C85      1.0000 0.38100  0.71280  0.26450  Biso   1.000  C
  C86      1.0000 0.41080  0.28750  0.79560  Biso   1.000  C
  C87      1.0000 0.42430  0.34340  0.86540  Biso   1.000  C
  C88      1.0000 0.43840  0.05560  0.35040  Biso   1.000  C
  H79      1.0000 0.42660  0.09800  0.34370  Biso   1.000  H
  C89      1.0000 0.47350  0.05710  0.36860  Biso   1.000  C
  H80      1.0000 0.48510  0.09950  0.38160  Biso   1.000  H
  C90      1.0000 0.37760  0.26560  0.78160  Biso   1.000  C
  H81      1.0000 0.36250  0.28530  0.81700  Biso   1.000  H
  C91      1.0000 0.43180  0.25460  0.74540  Biso   1.000  C
  H82      1.0000 0.45530  0.26740  0.75430  Biso   1.000  H
  C92      1.0000 0.36630  0.21410  0.71480  Biso   1.000  C
  H83      1.0000 0.34280  0.20050  0.70360  Biso   1.000  H
  C93      1.0000 0.34850  0.05560  0.98880  Biso   1.000  C
  H84      1.0000 0.34410  0.09780  0.95530  Biso   1.000  H
  C94      1.0000 0.35190  0.05350  0.09500  Biso   1.000  C
  H85      1.0000 0.35190  0.09580  0.12780  Biso   1.000  H
  C95      1.0000 0.41810  0.20240  0.68180  Biso   1.000  C
  H86      1.0000 0.43290  0.17980  0.64810  Biso   1.000  H
  C96      1.0000 0.37760  0.64420  0.12220  Biso   1.000  C
  H87      1.0000 0.37000  0.63940  0.05340  Biso   1.000  H
  Cd6      1.0000 0.36488  0.09314  0.56153  Biso   1.000  Cd
  N71      1.0000 0.36182  0.87920  0.33230  Biso   1.000  N
  N72      1.0000 0.36318  0.83340  0.26420  Biso   1.000  N
  N73      1.0000 0.37179  0.85120  0.41950  Biso   1.000  N
  N74      1.0000 0.37969  0.78550  0.40930  Biso   1.000  N
  N75      1.0000 0.39484  0.59300  0.17350  Biso   1.000  N
  N76      1.0000 0.45670  0.41910  0.94520  Biso   1.000  N
  N77      1.0000 0.38611  0.18270  0.66560  Biso   1.000  N
  N78      1.0000 0.35269  0.96700  0.69630  Biso   1.000  N
  N79      1.0000 0.35149  0.94510  0.78480  Biso   1.000  N
  N80      1.0000 0.42737  0.41930  0.97370  Biso   1.000  N
  N81      1.0000 0.45563  0.37110  0.87600  Biso   1.000  N
  N82      1.0000 0.40640  0.37150  0.92440  Biso   1.000  N
  N83      1.0000 0.58161  0.03390  0.40760  Biso   1.000  N
  N84      1.0000 0.54922  0.05580  0.39320  Biso   1.000  N
  H88      1.0000 0.47150  0.54570  0.70650  Biso   1.000  H
  H89      1.0000 0.47440  0.46750  0.67740  Biso   1.000  H
  H90      1.0000 0.46440  0.48670  0.77770  Biso   1.000  H
  C97      1.0000 0.12970  0.20320  0.83590  Biso   1.000  C
  H91      1.0000 0.14210  0.23820  0.87570  Biso   1.000  H
  C98      1.0000 0.10210  0.15890  0.68220  Biso   1.000  C
  H92      1.0000 0.09520  0.16160  0.61310  Biso   1.000  H
  C99      1.0000 0.09520  0.10210  0.72910  Biso   1.000  C
  H93      1.0000 0.08270  0.06650  0.69100  Biso   1.000  H
  C100     1.0000 0.12556  0.27710  0.68680  Biso   1.000  C
  C101     1.0000 0.11900  0.21280  0.73550  Biso   1.000  C
  C102     1.0000 0.08920  0.78750  0.20440  Biso   1.000  C
  C103     1.0000 0.07570  0.84340  0.13460  Biso   1.000  C
  C104     1.0000 0.06160  0.55560  0.64960  Biso   1.000  C
  H94      1.0000 0.07340  0.59800  0.65630  Biso   1.000  H
  C105     1.0000 0.02650  0.55710  0.63140  Biso   1.000  C
  H95      1.0000 0.01490  0.59950  0.61840  Biso   1.000  H
  C106     1.0000 0.12240  0.76560  0.21840  Biso   1.000  C
  H96      1.0000 0.13750  0.78530  0.18300  Biso   1.000  H
  C107     1.0000 0.06820  0.75460  0.25460  Biso   1.000  C
  H97      1.0000 0.04470  0.76740  0.24570  Biso   1.000  H
  C108     1.0000 0.13370  0.71410  0.28520  Biso   1.000  C
  H98      1.0000 0.15720  0.70050  0.29640  Biso   1.000  H
  C109     1.0000 0.15150  0.55560  0.01120  Biso   1.000  C
  H99      1.0000 0.15590  0.59780  0.04470  Biso   1.000  H
  C110     1.0000 0.14810  0.55350  0.90500  Biso   1.000  C
  H100     1.0000 0.14810  0.59580  0.87220  Biso   1.000  H
  C111     1.0000 0.08190  0.70240  0.31820  Biso   1.000  C
  H101     1.0000 0.06710  0.67980  0.35190  Biso   1.000  H
  C112     1.0000 0.12240  0.14420  0.87780  Biso   1.000  C
  H102     1.0000 0.13000  0.13940  0.94660  Biso   1.000  H
  Cd7      1.0000 0.13512  0.59314  0.43847  Biso   1.000  Cd
  N85      1.0000 0.13818  0.37920  0.66770  Biso   1.000  N
  N86      1.0000 0.13682  0.33340  0.73580  Biso   1.000  N
  N87      1.0000 0.12821  0.35120  0.58050  Biso   1.000  N
  N88      1.0000 0.12031  0.28550  0.59070  Biso   1.000  N
  N89      1.0000 0.10516  0.09300  0.82650  Biso   1.000  N
  N90      1.0000 0.04330  0.91910  0.05480  Biso   1.000  N
  N91      1.0000 0.11389  0.68270  0.33440  Biso   1.000  N
  N92      1.0000 0.14731  0.46700  0.30370  Biso   1.000  N
  N93      1.0000 0.14851  0.44510  0.21520  Biso   1.000  N
  N94      1.0000 0.07263  0.91930  0.02630  Biso   1.000  N
  N95      1.0000 0.04437  0.87110  0.12400  Biso   1.000  N
  N96      1.0000 0.09360  0.87150  0.07560  Biso   1.000  N
  N97      1.0000 0.91839  0.53390  0.59240  Biso   1.000  N
  N98      1.0000 0.95078  0.55580  0.60680  Biso   1.000  N
  H103     1.0000 0.02850  0.04570  0.29350  Biso   1.000  H
  H104     1.0000 0.02560  0.96750  0.32260  Biso   1.000  H
  H105     1.0000 0.03560  0.98670  0.22230  Biso   1.000  H
  C113     1.0000 0.62970  0.70320  0.83590  Biso   1.000  C
  H106     1.0000 0.64210  0.73820  0.87570  Biso   1.000  H
  C114     1.0000 0.60210  0.65890  0.68220  Biso   1.000  C
  H107     1.0000 0.59520  0.66160  0.61310  Biso   1.000  H
  C115     1.0000 0.59520  0.60210  0.72910  Biso   1.000  C
  H108     1.0000 0.58270  0.56650  0.69100  Biso   1.000  H
  C116     1.0000 0.62556  0.77710  0.68680  Biso   1.000  C
  C117     1.0000 0.61900  0.71280  0.73550  Biso   1.000  C
  C118     1.0000 0.58920  0.28750  0.20440  Biso   1.000  C
  C119     1.0000 0.57570  0.34340  0.13460  Biso   1.000  C
  C120     1.0000 0.56160  0.05560  0.64960  Biso   1.000  C
  H109     1.0000 0.57340  0.09800  0.65630  Biso   1.000  H
  C121     1.0000 0.52650  0.05710  0.63140  Biso   1.000  C
  H110     1.0000 0.51490  0.09950  0.61840  Biso   1.000  H
  C122     1.0000 0.62240  0.26560  0.21840  Biso   1.000  C
  H111     1.0000 0.63750  0.28530  0.18300  Biso   1.000  H
  C123     1.0000 0.56820  0.25460  0.25460  Biso   1.000  C
  H112     1.0000 0.54470  0.26740  0.24570  Biso   1.000  H
  C124     1.0000 0.63370  0.21410  0.28520  Biso   1.000  C
  H113     1.0000 0.65720  0.20050  0.29640  Biso   1.000  H
  C125     1.0000 0.65150  0.05560  0.01120  Biso   1.000  C
  H114     1.0000 0.65590  0.09780  0.04470  Biso   1.000  H
  C126     1.0000 0.64810  0.05350  0.90500  Biso   1.000  C
  H115     1.0000 0.64810  0.09580  0.87220  Biso   1.000  H
  C127     1.0000 0.58190  0.20240  0.31820  Biso   1.000  C
  H116     1.0000 0.56710  0.17980  0.35190  Biso   1.000  H
  C128     1.0000 0.62240  0.64420  0.87780  Biso   1.000  C
  H117     1.0000 0.63000  0.63940  0.94660  Biso   1.000  H
  Cd8      1.0000 0.63512  0.09314  0.43847  Biso   1.000  Cd
  N99      1.0000 0.63818  0.87920  0.66770  Biso   1.000  N
  N100     1.0000 0.63682  0.83340  0.73580  Biso   1.000  N
  N101     1.0000 0.62821  0.85120  0.58050  Biso   1.000  N
  N102     1.0000 0.62031  0.78550  0.59070  Biso   1.000  N
  N103     1.0000 0.60516  0.59300  0.82650  Biso   1.000  N
  N104     1.0000 0.54330  0.41910  0.05480  Biso   1.000  N
  N105     1.0000 0.61389  0.18270  0.33440  Biso   1.000  N
  N106     1.0000 0.64731  0.96700  0.30370  Biso   1.000  N
  N107     1.0000 0.64851  0.94510  0.21520  Biso   1.000  N
  N108     1.0000 0.57263  0.41930  0.02630  Biso   1.000  N
  N109     1.0000 0.54437  0.37110  0.12400  Biso   1.000  N
  N110     1.0000 0.59360  0.37150  0.07560  Biso   1.000  N
  N111     1.0000 0.41839  0.03390  0.59240  Biso   1.000  N
  N112     1.0000 0.45078  0.05580  0.60680  Biso   1.000  N
  H118     1.0000 0.52850  0.54570  0.29350  Biso   1.000  H
  H119     1.0000 0.52560  0.46750  0.32260  Biso   1.000  H
  H120     1.0000 0.53560  0.48670  0.22230  Biso   1.000  H
  C129     1.0000 0.29580  0.50000  0.96190  Biso   1.000  C
  H121     1.0000 0.27640  0.50000  0.99030  Biso   1.000  H
  C130     1.0000 0.35270  0.50000  0.88970  Biso   1.000  C
  H122     1.0000 0.37270  0.50000  0.86400  Biso   1.000  H
  C131     1.0000 0.96970  0.50000  0.61490  Biso   1.000  C
  C132     1.0000 0.32860  0.50000  0.02000  Biso   1.000  C
  H123     1.0000 0.33090  0.50000  0.08860  Biso   1.000  H
  C133     1.0000 0.29110  0.50000  0.86000  Biso   1.000  C
  C134     1.0000 0.32070  0.50000  0.82590  Biso   1.000  C
  H124     1.0000 0.31900  0.50000  0.75750  Biso   1.000  H
  C135     1.0000 0.00800  0.50000  0.63140  Biso   1.000  C
  C136     1.0000 0.14860  0.50000  0.06030  Biso   1.000  C
  C137     1.0000 0.25760  0.50000  0.79270  Biso   1.000  C
  Cd9      1.0000 0.14264  0.50000  0.68680  Biso   1.000  Cd
  N113     1.0000 0.35673  0.50000  0.98880  Biso   1.000  N
  N114     1.0000 0.22710  0.50000  0.81710  Biso   1.000  N
  N115     1.0000 0.25340  0.50000  0.69560  Biso   1.000  N
  N116     1.0000 0.08020  0.50000  0.65850  Biso   1.000  N
  N117     1.0000 0.20330  0.50000  0.73030  Biso   1.000  N
  N118     1.0000 0.14530  0.50000  0.85420  Biso   1.000  N
  N119     1.0000 0.21850  0.50000  0.66000  Biso   1.000  N
  O1       1.0000 0.15298  0.50000  0.53170  Biso   1.000  O
  C138     1.0000 0.14830  0.50000  0.16260  Biso   1.000  C
  C139     1.0000 0.79580  0.00000  0.96190  Biso   1.000  C
  H125     1.0000 0.77640  0.00000  0.99030  Biso   1.000  H
  C140     1.0000 0.85270  0.00000  0.88970  Biso   1.000  C
  H126     1.0000 0.87270  0.00000  0.86400  Biso   1.000  H
  C141     1.0000 0.46970  0.00000  0.61490  Biso   1.000  C
  C142     1.0000 0.82860  0.00000  0.02000  Biso   1.000  C
  H127     1.0000 0.83090  0.00000  0.08860  Biso   1.000  H
  C143     1.0000 0.79110  0.00000  0.86000  Biso   1.000  C
  C144     1.0000 0.82070  0.00000  0.82590  Biso   1.000  C
  H128     1.0000 0.81900  0.00000  0.75750  Biso   1.000  H
  C145     1.0000 0.50800  0.00000  0.63140  Biso   1.000  C
  C146     1.0000 0.64860  0.00000  0.06030  Biso   1.000  C
  C147     1.0000 0.75760  0.00000  0.79270  Biso   1.000  C
  Cd10     1.0000 0.64264  0.00000  0.68680  Biso   1.000  Cd
  N120     1.0000 0.85673  0.00000  0.98880  Biso   1.000  N
  N121     1.0000 0.72710  0.00000  0.81710  Biso   1.000  N
  N122     1.0000 0.75340  0.00000  0.69560  Biso   1.000  N
  N123     1.0000 0.58020  0.00000  0.65850  Biso   1.000  N
  N124     1.0000 0.70330  0.00000  0.73030  Biso   1.000  N
  N125     1.0000 0.64530  0.00000  0.85420  Biso   1.000  N
  N126     1.0000 0.71850  0.00000  0.66000  Biso   1.000  N
  O2       1.0000 0.65298  0.00000  0.53170  Biso   1.000  O
  C148     1.0000 0.64830  0.00000  0.16260  Biso   1.000  C
  C149     1.0000 0.70420  0.50000  0.03810  Biso   1.000  C
  H129     1.0000 0.72360  0.50000  0.00970  Biso   1.000  H
  C150     1.0000 0.64730  0.50000  0.11030  Biso   1.000  C
  H130     1.0000 0.62730  0.50000  0.13600  Biso   1.000  H
  C151     1.0000 0.03030  0.50000  0.38510  Biso   1.000  C
  C152     1.0000 0.67140  0.50000  0.98000  Biso   1.000  C
  H131     1.0000 0.66910  0.50000  0.91140  Biso   1.000  H
  C153     1.0000 0.70890  0.50000  0.14000  Biso   1.000  C
  C154     1.0000 0.67930  0.50000  0.17410  Biso   1.000  C
  H132     1.0000 0.68100  0.50000  0.24250  Biso   1.000  H
  C155     1.0000 0.99200  0.50000  0.36860  Biso   1.000  C
  C156     1.0000 0.85140  0.50000  0.93970  Biso   1.000  C
  C157     1.0000 0.74240  0.50000  0.20730  Biso   1.000  C
  Cd11     1.0000 0.85736  0.50000  0.31320  Biso   1.000  Cd
  N127     1.0000 0.64327  0.50000  0.01120  Biso   1.000  N
  N128     1.0000 0.77290  0.50000  0.18290  Biso   1.000  N
  N129     1.0000 0.74660  0.50000  0.30440  Biso   1.000  N
  N130     1.0000 0.91980  0.50000  0.34150  Biso   1.000  N
  N131     1.0000 0.79670  0.50000  0.26970  Biso   1.000  N
  N132     1.0000 0.85470  0.50000  0.14580  Biso   1.000  N
  N133     1.0000 0.78150  0.50000  0.34000  Biso   1.000  N
  O3       1.0000 0.84702  0.50000  0.46830  Biso   1.000  O
  C158     1.0000 0.85170  0.50000  0.83740  Biso   1.000  C
  C159     1.0000 0.20420  0.00000  0.03810  Biso   1.000  C
  H133     1.0000 0.22360  0.00000  0.00970  Biso   1.000  H
  C160     1.0000 0.14730  0.00000  0.11030  Biso   1.000  C
  H134     1.0000 0.12730  0.00000  0.13600  Biso   1.000  H
  C161     1.0000 0.53030  0.00000  0.38510  Biso   1.000  C
  C162     1.0000 0.17140  0.00000  0.98000  Biso   1.000  C
  H135     1.0000 0.16910  0.00000  0.91140  Biso   1.000  H
  C163     1.0000 0.20890  0.00000  0.14000  Biso   1.000  C
  C164     1.0000 0.17930  0.00000  0.17410  Biso   1.000  C
  H136     1.0000 0.18100  0.00000  0.24250  Biso   1.000  H
  C165     1.0000 0.49200  0.00000  0.36860  Biso   1.000  C
  C166     1.0000 0.35140  0.00000  0.93970  Biso   1.000  C
  C167     1.0000 0.24240  0.00000  0.20730  Biso   1.000  C
  Cd12     1.0000 0.35736  0.00000  0.31320  Biso   1.000  Cd
  N134     1.0000 0.14327  0.00000  0.01120  Biso   1.000  N
  N135     1.0000 0.27290  0.00000  0.18290  Biso   1.000  N
  N136     1.0000 0.24660  0.00000  0.30440  Biso   1.000  N
  N137     1.0000 0.41980  0.00000  0.34150  Biso   1.000  N
  N138     1.0000 0.29670  0.00000  0.26970  Biso   1.000  N
  N139     1.0000 0.35470  0.00000  0.14580  Biso   1.000  N
  N140     1.0000 0.28150  0.00000  0.34000  Biso   1.000  N
  O4       1.0000 0.34702  0.00000  0.46830  Biso   1.000  O
  C168     1.0000 0.35170  0.00000  0.83740  Biso   1.000  C
  C169     1.0000 0.02170  0.00000  0.26830  Biso   1.000  C
  C170     1.0000 0.98270  0.00000  0.21470  Biso   1.000  C
  O5       1.0000 0.97471  0.00000  0.13140  Biso   1.000  O
  O6       1.0000 0.96220  0.00000  0.27060  Biso   1.000  O
  C171     1.0000 0.52170  0.50000  0.26830  Biso   1.000  C
  C172     1.0000 0.48270  0.50000  0.21470  Biso   1.000  C
  O7       1.0000 0.47471  0.50000  0.13140  Biso   1.000  O
  O8       1.0000 0.46220  0.50000  0.27060  Biso   1.000  O
  C173     1.0000 0.97830  0.00000  0.73170  Biso   1.000  C
  C174     1.0000 0.01730  0.00000  0.78530  Biso   1.000  C
  O9       1.0000 0.02529  0.00000  0.86860  Biso   1.000  O
  O10      1.0000 0.03780  0.00000  0.72940  Biso   1.000  O
  C175     1.0000 0.47830  0.50000  0.73170  Biso   1.000  C
  C176     1.0000 0.51730  0.50000  0.78530  Biso   1.000  C
  O11      1.0000 0.52529  0.50000  0.86860  Biso   1.000  O
  O12      1.0000 0.53780  0.50000  0.72940  Biso   1.000  O
  Cd13     1.0000 0.00000  0.00000  0.00000  Biso   1.000  Cd
  Cd14     1.0000 0.50000  0.50000  0.00000  Biso   1.000  Cd
  Cd15     1.0000 0.08573  0.00000  0.90764  Biso   1.000  Cd
  Cd16     1.0000 0.58573  0.50000  0.90764  Biso   1.000  Cd
  Cd17     1.0000 0.91427  0.00000  0.09236  Biso   1.000  Cd
  Cd18     1.0000 0.41427  0.50000  0.09236  Biso   1.000  Cd
