data_image0
_cell_length_a       18.639
_cell_length_b       18.639
_cell_length_c       38.614
_cell_angle_alpha    90
_cell_angle_beta     90
_cell_angle_gamma    120

_symmetry_space_group_name_H-M    "P 1"
_symmetry_int_tables_number       1

loop_
  _symmetry_equiv_pos_as_xyz
  'x, y, z'

loop_
  _atom_site_label
  _atom_site_occupancy
  _atom_site_fract_x
  _atom_site_fract_y
  _atom_site_fract_z
  _atom_site_thermal_displace_type
  _atom_site_B_iso_or_equiv
  _atom_site_type_symbol
  O1       1.0000 0.48144  0.37127  0.99670  Biso   1.000  O
  O2       1.0000 0.44153  0.41089  0.04401  Biso   1.000  O
  C1       1.0000 0.45210  0.35990  0.02694  Biso   1.000  C
  C2       1.0000 0.26790  0.17910  0.17738  Biso   1.000  C
  C3       1.0000 0.40180  0.26500  0.07756  Biso   1.000  C
  H1       1.0000 0.39190  0.30340  0.08870  Biso   1.000  H
  C4       1.0000 0.43120  0.27990  0.04398  Biso   1.000  C
  N1       1.0000 0.24340  0.21170  0.11930  Biso   1.000  N
  H2       1.0000 0.25260  0.21710  0.09730  Biso   1.000  H
  H3       1.0000 0.20440  0.21800  0.12790  Biso   1.000  H
  C5       1.0000 0.29560  0.19110  0.14250  Biso   1.000  C
  O3       1.0000 0.14811  0.70460  0.33003  Biso   1.000  O
  O4       1.0000 0.10820  0.74422  0.37734  Biso   1.000  O
  C6       1.0000 0.11877  0.69323  0.36027  Biso   1.000  C
  C7       1.0000 0.93457  0.51243  0.51071  Biso   1.000  C
  C8       1.0000 0.06847  0.59833  0.41089  Biso   1.000  C
  H4       1.0000 0.05857  0.63673  0.42203  Biso   1.000  H
  C9       1.0000 0.09787  0.61323  0.37731  Biso   1.000  C
  N2       1.0000 0.91007  0.54503  0.45263  Biso   1.000  N
  H5       1.0000 0.91927  0.55043  0.43063  Biso   1.000  H
  H6       1.0000 0.87107  0.55133  0.46123  Biso   1.000  H
  C10      1.0000 0.96227  0.52443  0.47583  Biso   1.000  C
  O5       1.0000 0.81477  0.03794  0.66337  Biso   1.000  O
  O6       1.0000 0.77486  0.07756  0.71068  Biso   1.000  O
  C11      1.0000 0.78543  0.02657  0.69361  Biso   1.000  C
  C12      1.0000 0.60123  0.84577  0.84405  Biso   1.000  C
  C13      1.0000 0.73513  0.93167  0.74423  Biso   1.000  C
  H7       1.0000 0.72523  0.97007  0.75537  Biso   1.000  H
  C14      1.0000 0.76453  0.94657  0.71065  Biso   1.000  C
  N3       1.0000 0.57673  0.87837  0.78597  Biso   1.000  N
  H8       1.0000 0.58593  0.88377  0.76397  Biso   1.000  H
  H9       1.0000 0.53773  0.88467  0.79457  Biso   1.000  H
  C15      1.0000 0.62893  0.85777  0.80917  Biso   1.000  C
  O7       1.0000 0.62873  0.11017  0.99670  Biso   1.000  O
  O8       1.0000 0.58911  0.03064  0.04401  Biso   1.000  O
  C16      1.0000 0.64010  0.09220  0.02694  Biso   1.000  C
  C17      1.0000 0.82090  0.08880  0.17738  Biso   1.000  C
  C18      1.0000 0.73500  0.13680  0.07756  Biso   1.000  C
  H10      1.0000 0.69660  0.08850  0.08870  Biso   1.000  H
  C19      1.0000 0.72010  0.15130  0.04398  Biso   1.000  C
  N4       1.0000 0.78830  0.03170  0.11930  Biso   1.000  N
  H11      1.0000 0.78290  0.03550  0.09730  Biso   1.000  H
  H12      1.0000 0.78200  0.98640  0.12790  Biso   1.000  H
  C20      1.0000 0.80890  0.10450  0.14250  Biso   1.000  C
  O9       1.0000 0.29540  0.44350  0.33003  Biso   1.000  O
  O10      1.0000 0.25578  0.36397  0.37734  Biso   1.000  O
  C21      1.0000 0.30677  0.42553  0.36027  Biso   1.000  C
  C22      1.0000 0.48757  0.42213  0.51071  Biso   1.000  C
  C23      1.0000 0.40167  0.47013  0.41089  Biso   1.000  C
  H13      1.0000 0.36327  0.42183  0.42203  Biso   1.000  H
  C24      1.0000 0.38677  0.48463  0.37731  Biso   1.000  C
  N5       1.0000 0.45497  0.36503  0.45263  Biso   1.000  N
  H14      1.0000 0.44957  0.36883  0.43063  Biso   1.000  H
  H15      1.0000 0.44867  0.31973  0.46123  Biso   1.000  H
  C25      1.0000 0.47557  0.43783  0.47583  Biso   1.000  C
  O11      1.0000 0.96206  0.77684  0.66337  Biso   1.000  O
  O12      1.0000 0.92244  0.69731  0.71068  Biso   1.000  O
  C26      1.0000 0.97343  0.75887  0.69361  Biso   1.000  C
  C27      1.0000 0.15423  0.75547  0.84405  Biso   1.000  C
  C28      1.0000 0.06833  0.80347  0.74423  Biso   1.000  C
  H16      1.0000 0.02993  0.75517  0.75537  Biso   1.000  H
  C29      1.0000 0.05343  0.81797  0.71065  Biso   1.000  C
  N6       1.0000 0.12163  0.69837  0.78597  Biso   1.000  N
  H17      1.0000 0.11623  0.70217  0.76397  Biso   1.000  H
  H18      1.0000 0.11533  0.65307  0.79457  Biso   1.000  H
  C30      1.0000 0.14223  0.77117  0.80917  Biso   1.000  C
  O13      1.0000 0.88983  0.51856  0.99670  Biso   1.000  O
  O14      1.0000 0.96936  0.55847  0.04401  Biso   1.000  O
  C31      1.0000 0.90780  0.54790  0.02694  Biso   1.000  C
  C32      1.0000 0.91120  0.73210  0.17738  Biso   1.000  C
  C33      1.0000 0.86320  0.59820  0.07756  Biso   1.000  C
  H19      1.0000 0.91150  0.60810  0.08870  Biso   1.000  H
  C34      1.0000 0.84870  0.56880  0.04398  Biso   1.000  C
  N7       1.0000 0.96830  0.75660  0.11930  Biso   1.000  N
  H20      1.0000 0.96450  0.74740  0.09730  Biso   1.000  H
  H21      1.0000 0.01360  0.79560  0.12790  Biso   1.000  H
  C35      1.0000 0.89550  0.70440  0.14250  Biso   1.000  C
  O15      1.0000 0.55650  0.85189  0.33003  Biso   1.000  O
  O16      1.0000 0.63603  0.89180  0.37734  Biso   1.000  O
  C36      1.0000 0.57447  0.88123  0.36027  Biso   1.000  C
  C37      1.0000 0.57787  0.06543  0.51071  Biso   1.000  C
  C38      1.0000 0.52987  0.93153  0.41089  Biso   1.000  C
  H22      1.0000 0.57817  0.94143  0.42203  Biso   1.000  H
  C39      1.0000 0.51537  0.90213  0.37731  Biso   1.000  C
  N8       1.0000 0.63497  0.08993  0.45263  Biso   1.000  N
  H23      1.0000 0.63117  0.08073  0.43063  Biso   1.000  H
  H24      1.0000 0.68027  0.12893  0.46123  Biso   1.000  H
  C40      1.0000 0.56217  0.03773  0.47583  Biso   1.000  C
  O17      1.0000 0.22316  0.18523  0.66337  Biso   1.000  O
  O18      1.0000 0.30269  0.22514  0.71068  Biso   1.000  O
  C41      1.0000 0.24113  0.21457  0.69361  Biso   1.000  C
  C42      1.0000 0.24453  0.39877  0.84405  Biso   1.000  C
  C43      1.0000 0.19653  0.26487  0.74423  Biso   1.000  C
  H25      1.0000 0.24483  0.27477  0.75537  Biso   1.000  H
  C44      1.0000 0.18203  0.23547  0.71065  Biso   1.000  C
  N9       1.0000 0.30163  0.42327  0.78597  Biso   1.000  N
  H26      1.0000 0.29783  0.41407  0.76397  Biso   1.000  H
  H27      1.0000 0.34693  0.46227  0.79457  Biso   1.000  H
  C45      1.0000 0.22883  0.37107  0.80917  Biso   1.000  C
  O19      1.0000 0.37127  0.48144  0.00330  Biso   1.000  O
  O20      1.0000 0.41089  0.44153  0.95599  Biso   1.000  O
  C46      1.0000 0.35990  0.45210  0.97306  Biso   1.000  C
  C47      1.0000 0.17910  0.26790  0.82262  Biso   1.000  C
  C48      1.0000 0.26500  0.40180  0.92244  Biso   1.000  C
  H28      1.0000 0.30340  0.39190  0.91130  Biso   1.000  H
  C49      1.0000 0.27990  0.43120  0.95602  Biso   1.000  C
  N10      1.0000 0.21170  0.24340  0.88070  Biso   1.000  N
  H29      1.0000 0.21710  0.25260  0.90270  Biso   1.000  H
  H30      1.0000 0.21800  0.20440  0.87210  Biso   1.000  H
  C50      1.0000 0.19110  0.29560  0.85750  Biso   1.000  C
  O21      1.0000 0.03794  0.81477  0.33663  Biso   1.000  O
  O22      1.0000 0.07756  0.77486  0.28932  Biso   1.000  O
  C51      1.0000 0.02657  0.78543  0.30639  Biso   1.000  C
  C52      1.0000 0.84577  0.60123  0.15595  Biso   1.000  C
  C53      1.0000 0.93167  0.73513  0.25577  Biso   1.000  C
  H31      1.0000 0.97007  0.72523  0.24463  Biso   1.000  H
  C54      1.0000 0.94657  0.76453  0.28935  Biso   1.000  C
  N11      1.0000 0.87837  0.57673  0.21403  Biso   1.000  N
  H32      1.0000 0.88377  0.58593  0.23603  Biso   1.000  H
  H33      1.0000 0.88467  0.53773  0.20543  Biso   1.000  H
  C55      1.0000 0.85777  0.62893  0.19083  Biso   1.000  C
  O23      1.0000 0.70460  0.14811  0.66997  Biso   1.000  O
  O24      1.0000 0.74422  0.10820  0.62266  Biso   1.000  O
  C56      1.0000 0.69323  0.11877  0.63973  Biso   1.000  C
  C57      1.0000 0.51243  0.93457  0.48929  Biso   1.000  C
  C58      1.0000 0.59833  0.06847  0.58911  Biso   1.000  C
  H34      1.0000 0.63673  0.05857  0.57797  Biso   1.000  H
  C59      1.0000 0.61323  0.09787  0.62269  Biso   1.000  C
  N12      1.0000 0.54503  0.91007  0.54737  Biso   1.000  N
  H35      1.0000 0.55043  0.91927  0.56937  Biso   1.000  H
  H36      1.0000 0.55133  0.87107  0.53877  Biso   1.000  H
  C60      1.0000 0.52443  0.96227  0.52417  Biso   1.000  C
  O25      1.0000 0.11017  0.62873  0.00330  Biso   1.000  O
  O26      1.0000 0.03064  0.58911  0.95599  Biso   1.000  O
  C61      1.0000 0.09220  0.64010  0.97306  Biso   1.000  C
  C62      1.0000 0.08880  0.82090  0.82262  Biso   1.000  C
  C63      1.0000 0.13680  0.73500  0.92244  Biso   1.000  C
  H37      1.0000 0.08850  0.69660  0.91130  Biso   1.000  H
  C64      1.0000 0.15130  0.72010  0.95602  Biso   1.000  C
  N13      1.0000 0.03170  0.78830  0.88070  Biso   1.000  N
  H38      1.0000 0.03550  0.78290  0.90270  Biso   1.000  H
  H39      1.0000 0.98640  0.78200  0.87210  Biso   1.000  H
  C65      1.0000 0.10450  0.80890  0.85750  Biso   1.000  C
  O27      1.0000 0.77684  0.96206  0.33663  Biso   1.000  O
  O28      1.0000 0.69731  0.92244  0.28932  Biso   1.000  O
  C66      1.0000 0.75887  0.97343  0.30639  Biso   1.000  C
  C67      1.0000 0.75547  0.15423  0.15595  Biso   1.000  C
  C68      1.0000 0.80347  0.06833  0.25577  Biso   1.000  C
  H40      1.0000 0.75517  0.02993  0.24463  Biso   1.000  H
  C69      1.0000 0.81797  0.05343  0.28935  Biso   1.000  C
  N14      1.0000 0.69837  0.12163  0.21403  Biso   1.000  N
  H41      1.0000 0.70217  0.11623  0.23603  Biso   1.000  H
  H42      1.0000 0.65307  0.11533  0.20543  Biso   1.000  H
  C70      1.0000 0.77117  0.14223  0.19083  Biso   1.000  C
  O29      1.0000 0.44350  0.29540  0.66997  Biso   1.000  O
  O30      1.0000 0.36397  0.25578  0.62266  Biso   1.000  O
  C71      1.0000 0.42553  0.30677  0.63973  Biso   1.000  C
  C72      1.0000 0.42213  0.48757  0.48929  Biso   1.000  C
  C73      1.0000 0.47013  0.40167  0.58911  Biso   1.000  C
  H43      1.0000 0.42183  0.36327  0.57797  Biso   1.000  H
  C74      1.0000 0.48463  0.38677  0.62269  Biso   1.000  C
  N15      1.0000 0.36503  0.45497  0.54737  Biso   1.000  N
  H44      1.0000 0.36883  0.44957  0.56937  Biso   1.000  H
  H45      1.0000 0.31973  0.44867  0.53877  Biso   1.000  H
  C75      1.0000 0.43783  0.47557  0.52417  Biso   1.000  C
  O31      1.0000 0.51856  0.88983  0.00330  Biso   1.000  O
  O32      1.0000 0.55847  0.96936  0.95599  Biso   1.000  O
  C76      1.0000 0.54790  0.90780  0.97306  Biso   1.000  C
  C77      1.0000 0.73210  0.91120  0.82262  Biso   1.000  C
  C78      1.0000 0.59820  0.86320  0.92244  Biso   1.000  C
  H46      1.0000 0.60810  0.91150  0.91130  Biso   1.000  H
  C79      1.0000 0.56880  0.84870  0.95602  Biso   1.000  C
  N16      1.0000 0.75660  0.96830  0.88070  Biso   1.000  N
  H47      1.0000 0.74740  0.96450  0.90270  Biso   1.000  H
  H48      1.0000 0.79560  0.01360  0.87210  Biso   1.000  H
  C80      1.0000 0.70440  0.89550  0.85750  Biso   1.000  C
  O33      1.0000 0.18523  0.22316  0.33663  Biso   1.000  O
  O34      1.0000 0.22514  0.30269  0.28932  Biso   1.000  O
  C81      1.0000 0.21457  0.24113  0.30639  Biso   1.000  C
  C82      1.0000 0.39877  0.24453  0.15595  Biso   1.000  C
  C83      1.0000 0.26487  0.19653  0.25577  Biso   1.000  C
  H49      1.0000 0.27477  0.24483  0.24463  Biso   1.000  H
  C84      1.0000 0.23547  0.18203  0.28935  Biso   1.000  C
  N17      1.0000 0.42327  0.30163  0.21403  Biso   1.000  N
  H50      1.0000 0.41407  0.29783  0.23603  Biso   1.000  H
  H51      1.0000 0.46227  0.34693  0.20543  Biso   1.000  H
  C85      1.0000 0.37107  0.22883  0.19083  Biso   1.000  C
  O35      1.0000 0.85189  0.55650  0.66997  Biso   1.000  O
  O36      1.0000 0.89180  0.63603  0.62266  Biso   1.000  O
  C86      1.0000 0.88123  0.57447  0.63973  Biso   1.000  C
  C87      1.0000 0.06543  0.57787  0.48929  Biso   1.000  C
  C88      1.0000 0.93153  0.52987  0.58911  Biso   1.000  C
  H52      1.0000 0.94143  0.57817  0.57797  Biso   1.000  H
  C89      1.0000 0.90213  0.51537  0.62269  Biso   1.000  C
  N18      1.0000 0.08993  0.63497  0.54737  Biso   1.000  N
  H53      1.0000 0.08073  0.63117  0.56937  Biso   1.000  H
  H54      1.0000 0.12893  0.68027  0.53877  Biso   1.000  H
  C90      1.0000 0.03773  0.56217  0.52417  Biso   1.000  C
  O37      1.0000 0.51856  0.62873  0.00330  Biso   1.000  O
  O38      1.0000 0.55847  0.58911  0.95599  Biso   1.000  O
  C91      1.0000 0.54790  0.64010  0.97306  Biso   1.000  C
  C92      1.0000 0.73210  0.82090  0.82262  Biso   1.000  C
  C93      1.0000 0.59820  0.73500  0.92244  Biso   1.000  C
  H55      1.0000 0.60810  0.69660  0.91130  Biso   1.000  H
  C94      1.0000 0.56880  0.72010  0.95602  Biso   1.000  C
  N19      1.0000 0.75660  0.78830  0.88070  Biso   1.000  N
  H56      1.0000 0.74740  0.78290  0.90270  Biso   1.000  H
  H57      1.0000 0.79560  0.78200  0.87210  Biso   1.000  H
  C95      1.0000 0.70440  0.80890  0.85750  Biso   1.000  C
  O39      1.0000 0.18523  0.96206  0.33663  Biso   1.000  O
  O40      1.0000 0.22514  0.92244  0.28932  Biso   1.000  O
  C96      1.0000 0.21457  0.97343  0.30639  Biso   1.000  C
  C97      1.0000 0.39877  0.15423  0.15595  Biso   1.000  C
  C98      1.0000 0.26487  0.06833  0.25577  Biso   1.000  C
  H58      1.0000 0.27477  0.02993  0.24463  Biso   1.000  H
  C99      1.0000 0.23547  0.05343  0.28935  Biso   1.000  C
  N20      1.0000 0.42327  0.12163  0.21403  Biso   1.000  N
  H59      1.0000 0.41407  0.11623  0.23603  Biso   1.000  H
  H60      1.0000 0.46227  0.11533  0.20543  Biso   1.000  H
  C100     1.0000 0.37107  0.14223  0.19083  Biso   1.000  C
  O41      1.0000 0.85189  0.29540  0.66997  Biso   1.000  O
  O42      1.0000 0.89180  0.25578  0.62266  Biso   1.000  O
  C101     1.0000 0.88123  0.30677  0.63973  Biso   1.000  C
  C102     1.0000 0.06543  0.48757  0.48929  Biso   1.000  C
  C103     1.0000 0.93153  0.40167  0.58911  Biso   1.000  C
  H61      1.0000 0.94143  0.36327  0.57797  Biso   1.000  H
  C104     1.0000 0.90213  0.38677  0.62269  Biso   1.000  C
  N21      1.0000 0.08993  0.45497  0.54737  Biso   1.000  N
  H62      1.0000 0.08073  0.44957  0.56937  Biso   1.000  H
  H63      1.0000 0.12893  0.44867  0.53877  Biso   1.000  H
  C105     1.0000 0.03773  0.47557  0.52417  Biso   1.000  C
  O43      1.0000 0.37127  0.88983  0.00330  Biso   1.000  O
  O44      1.0000 0.41089  0.96936  0.95599  Biso   1.000  O
  C106     1.0000 0.35990  0.90780  0.97306  Biso   1.000  C
  C107     1.0000 0.17910  0.91120  0.82262  Biso   1.000  C
  C108     1.0000 0.26500  0.86320  0.92244  Biso   1.000  C
  H64      1.0000 0.30340  0.91150  0.91130  Biso   1.000  H
  C109     1.0000 0.27990  0.84870  0.95602  Biso   1.000  C
  N22      1.0000 0.21170  0.96830  0.88070  Biso   1.000  N
  H65      1.0000 0.21710  0.96450  0.90270  Biso   1.000  H
  H66      1.0000 0.21800  0.01360  0.87210  Biso   1.000  H
  C110     1.0000 0.19110  0.89550  0.85750  Biso   1.000  C
  O45      1.0000 0.03794  0.22316  0.33663  Biso   1.000  O
  O46      1.0000 0.07756  0.30269  0.28932  Biso   1.000  O
  C111     1.0000 0.02657  0.24113  0.30639  Biso   1.000  C
  C112     1.0000 0.84577  0.24453  0.15595  Biso   1.000  C
  C113     1.0000 0.93167  0.19653  0.25577  Biso   1.000  C
  H67      1.0000 0.97007  0.24483  0.24463  Biso   1.000  H
  C114     1.0000 0.94657  0.18203  0.28935  Biso   1.000  C
  N23      1.0000 0.87837  0.30163  0.21403  Biso   1.000  N
  H68      1.0000 0.88377  0.29783  0.23603  Biso   1.000  H
  H69      1.0000 0.88467  0.34693  0.20543  Biso   1.000  H
  C115     1.0000 0.85777  0.22883  0.19083  Biso   1.000  C
  O47      1.0000 0.70460  0.55650  0.66997  Biso   1.000  O
  O48      1.0000 0.74422  0.63603  0.62266  Biso   1.000  O
  C116     1.0000 0.69323  0.57447  0.63973  Biso   1.000  C
  C117     1.0000 0.51243  0.57787  0.48929  Biso   1.000  C
  C118     1.0000 0.59833  0.52987  0.58911  Biso   1.000  C
  H70      1.0000 0.63673  0.57817  0.57797  Biso   1.000  H
  C119     1.0000 0.61323  0.51537  0.62269  Biso   1.000  C
  N24      1.0000 0.54503  0.63497  0.54737  Biso   1.000  N
  H71      1.0000 0.55043  0.63117  0.56937  Biso   1.000  H
  H72      1.0000 0.55133  0.68027  0.53877  Biso   1.000  H
  C120     1.0000 0.52443  0.56217  0.52417  Biso   1.000  C
  O49      1.0000 0.11017  0.48144  0.00330  Biso   1.000  O
  O50      1.0000 0.03064  0.44153  0.95599  Biso   1.000  O
  C121     1.0000 0.09220  0.45210  0.97306  Biso   1.000  C
  C122     1.0000 0.08880  0.26790  0.82262  Biso   1.000  C
  C123     1.0000 0.13680  0.40180  0.92244  Biso   1.000  C
  H73      1.0000 0.08850  0.39190  0.91130  Biso   1.000  H
  C124     1.0000 0.15130  0.43120  0.95602  Biso   1.000  C
  N25      1.0000 0.03170  0.24340  0.88070  Biso   1.000  N
  H74      1.0000 0.03550  0.25260  0.90270  Biso   1.000  H
  H75      1.0000 0.98640  0.20440  0.87210  Biso   1.000  H
  C125     1.0000 0.10450  0.29560  0.85750  Biso   1.000  C
  O51      1.0000 0.77684  0.81477  0.33663  Biso   1.000  O
  O52      1.0000 0.69731  0.77486  0.28932  Biso   1.000  O
  C126     1.0000 0.75887  0.78543  0.30639  Biso   1.000  C
  C127     1.0000 0.75547  0.60123  0.15595  Biso   1.000  C
  C128     1.0000 0.80347  0.73513  0.25577  Biso   1.000  C
  H76      1.0000 0.75517  0.72523  0.24463  Biso   1.000  H
  C129     1.0000 0.81797  0.76453  0.28935  Biso   1.000  C
  N26      1.0000 0.69837  0.57673  0.21403  Biso   1.000  N
  H77      1.0000 0.70217  0.58593  0.23603  Biso   1.000  H
  H78      1.0000 0.65307  0.53773  0.20543  Biso   1.000  H
  C130     1.0000 0.77117  0.62893  0.19083  Biso   1.000  C
  O53      1.0000 0.44350  0.14811  0.66997  Biso   1.000  O
  O54      1.0000 0.36397  0.10820  0.62266  Biso   1.000  O
  C131     1.0000 0.42553  0.11877  0.63973  Biso   1.000  C
  C132     1.0000 0.42213  0.93457  0.48929  Biso   1.000  C
  C133     1.0000 0.47013  0.06847  0.58911  Biso   1.000  C
  H79      1.0000 0.42183  0.05857  0.57797  Biso   1.000  H
  C134     1.0000 0.48463  0.09787  0.62269  Biso   1.000  C
  N27      1.0000 0.36503  0.91007  0.54737  Biso   1.000  N
  H80      1.0000 0.36883  0.91927  0.56937  Biso   1.000  H
  H81      1.0000 0.31973  0.87107  0.53877  Biso   1.000  H
  C135     1.0000 0.43783  0.96227  0.52417  Biso   1.000  C
  O55      1.0000 0.62873  0.51856  0.99670  Biso   1.000  O
  O56      1.0000 0.58911  0.55847  0.04401  Biso   1.000  O
  C136     1.0000 0.64010  0.54790  0.02694  Biso   1.000  C
  C137     1.0000 0.82090  0.73210  0.17738  Biso   1.000  C
  C138     1.0000 0.73500  0.59820  0.07756  Biso   1.000  C
  H82      1.0000 0.69660  0.60810  0.08870  Biso   1.000  H
  C139     1.0000 0.72010  0.56880  0.04398  Biso   1.000  C
  N28      1.0000 0.78830  0.75660  0.11930  Biso   1.000  N
  H83      1.0000 0.78290  0.74740  0.09730  Biso   1.000  H
  H84      1.0000 0.78200  0.79560  0.12790  Biso   1.000  H
  C140     1.0000 0.80890  0.70440  0.14250  Biso   1.000  C
  O57      1.0000 0.29540  0.85189  0.33003  Biso   1.000  O
  O58      1.0000 0.25578  0.89180  0.37734  Biso   1.000  O
  C141     1.0000 0.30677  0.88123  0.36027  Biso   1.000  C
  C142     1.0000 0.48757  0.06543  0.51071  Biso   1.000  C
  C143     1.0000 0.40167  0.93153  0.41089  Biso   1.000  C
  H85      1.0000 0.36327  0.94143  0.42203  Biso   1.000  H
  C144     1.0000 0.38677  0.90213  0.37731  Biso   1.000  C
  N29      1.0000 0.45497  0.08993  0.45263  Biso   1.000  N
  H86      1.0000 0.44957  0.08073  0.43063  Biso   1.000  H
  H87      1.0000 0.44867  0.12893  0.46123  Biso   1.000  H
  C145     1.0000 0.47557  0.03773  0.47583  Biso   1.000  C
  O59      1.0000 0.96206  0.18523  0.66337  Biso   1.000  O
  O60      1.0000 0.92244  0.22514  0.71068  Biso   1.000  O
  C146     1.0000 0.97343  0.21457  0.69361  Biso   1.000  C
  C147     1.0000 0.15423  0.39877  0.84405  Biso   1.000  C
  C148     1.0000 0.06833  0.26487  0.74423  Biso   1.000  C
  H88      1.0000 0.02993  0.27477  0.75537  Biso   1.000  H
  C149     1.0000 0.05343  0.23547  0.71065  Biso   1.000  C
  N30      1.0000 0.12163  0.42327  0.78597  Biso   1.000  N
  H89      1.0000 0.11623  0.41407  0.76397  Biso   1.000  H
  H90      1.0000 0.11533  0.46227  0.79457  Biso   1.000  H
  C150     1.0000 0.14223  0.37107  0.80917  Biso   1.000  C
  O61      1.0000 0.88983  0.37127  0.99670  Biso   1.000  O
  O62      1.0000 0.96936  0.41089  0.04401  Biso   1.000  O
  C151     1.0000 0.90780  0.35990  0.02694  Biso   1.000  C
  C152     1.0000 0.91120  0.17910  0.17738  Biso   1.000  C
  C153     1.0000 0.86320  0.26500  0.07756  Biso   1.000  C
  H91      1.0000 0.91150  0.30340  0.08870  Biso   1.000  H
  C154     1.0000 0.84870  0.27990  0.04398  Biso   1.000  C
  N31      1.0000 0.96830  0.21170  0.11930  Biso   1.000  N
  H92      1.0000 0.96450  0.21710  0.09730  Biso   1.000  H
  H93      1.0000 0.01360  0.21800  0.12790  Biso   1.000  H
  C155     1.0000 0.89550  0.19110  0.14250  Biso   1.000  C
  O63      1.0000 0.55650  0.70460  0.33003  Biso   1.000  O
  O64      1.0000 0.63603  0.74422  0.37734  Biso   1.000  O
  C156     1.0000 0.57447  0.69323  0.36027  Biso   1.000  C
  C157     1.0000 0.57787  0.51243  0.51071  Biso   1.000  C
  C158     1.0000 0.52987  0.59833  0.41089  Biso   1.000  C
  H94      1.0000 0.57817  0.63673  0.42203  Biso   1.000  H
  C159     1.0000 0.51537  0.61323  0.37731  Biso   1.000  C
  N32      1.0000 0.63497  0.54503  0.45263  Biso   1.000  N
  H95      1.0000 0.63117  0.55043  0.43063  Biso   1.000  H
  H96      1.0000 0.68027  0.55133  0.46123  Biso   1.000  H
  C160     1.0000 0.56217  0.52443  0.47583  Biso   1.000  C
  O65      1.0000 0.22316  0.03794  0.66337  Biso   1.000  O
  O66      1.0000 0.30269  0.07756  0.71068  Biso   1.000  O
  C161     1.0000 0.24113  0.02657  0.69361  Biso   1.000  C
  C162     1.0000 0.24453  0.84577  0.84405  Biso   1.000  C
  C163     1.0000 0.19653  0.93167  0.74423  Biso   1.000  C
  H97      1.0000 0.24483  0.97007  0.75537  Biso   1.000  H
  C164     1.0000 0.18203  0.94657  0.71065  Biso   1.000  C
  N33      1.0000 0.30163  0.87837  0.78597  Biso   1.000  N
  H98      1.0000 0.29783  0.88377  0.76397  Biso   1.000  H
  H99      1.0000 0.34693  0.88467  0.79457  Biso   1.000  H
  C165     1.0000 0.22883  0.85777  0.80917  Biso   1.000  C
  O67      1.0000 0.48144  0.11017  0.99670  Biso   1.000  O
  O68      1.0000 0.44153  0.03064  0.04401  Biso   1.000  O
  C166     1.0000 0.45210  0.09220  0.02694  Biso   1.000  C
  C167     1.0000 0.26790  0.08880  0.17738  Biso   1.000  C
  C168     1.0000 0.40180  0.13680  0.07756  Biso   1.000  C
  H100     1.0000 0.39190  0.08850  0.08870  Biso   1.000  H
  C169     1.0000 0.43120  0.15130  0.04398  Biso   1.000  C
  N34      1.0000 0.24340  0.03170  0.11930  Biso   1.000  N
  H101     1.0000 0.25260  0.03550  0.09730  Biso   1.000  H
  H102     1.0000 0.20440  0.98640  0.12790  Biso   1.000  H
  C170     1.0000 0.29560  0.10450  0.14250  Biso   1.000  C
  O69      1.0000 0.14811  0.44350  0.33003  Biso   1.000  O
  O70      1.0000 0.10820  0.36397  0.37734  Biso   1.000  O
  C171     1.0000 0.11877  0.42553  0.36027  Biso   1.000  C
  C172     1.0000 0.93457  0.42213  0.51071  Biso   1.000  C
  C173     1.0000 0.06847  0.47013  0.41089  Biso   1.000  C
  H103     1.0000 0.05857  0.42183  0.42203  Biso   1.000  H
  C174     1.0000 0.09787  0.48463  0.37731  Biso   1.000  C
  N35      1.0000 0.91007  0.36503  0.45263  Biso   1.000  N
  H104     1.0000 0.91927  0.36883  0.43063  Biso   1.000  H
  H105     1.0000 0.87107  0.31973  0.46123  Biso   1.000  H
  C175     1.0000 0.96227  0.43783  0.47583  Biso   1.000  C
  O71      1.0000 0.81477  0.77684  0.66337  Biso   1.000  O
  O72      1.0000 0.77486  0.69731  0.71068  Biso   1.000  O
  C176     1.0000 0.78543  0.75887  0.69361  Biso   1.000  C
  C177     1.0000 0.60123  0.75547  0.84405  Biso   1.000  C
  C178     1.0000 0.73513  0.80347  0.74423  Biso   1.000  C
  H106     1.0000 0.72523  0.75517  0.75537  Biso   1.000  H
  C179     1.0000 0.76453  0.81797  0.71065  Biso   1.000  C
  N36      1.0000 0.57673  0.69837  0.78597  Biso   1.000  N
  H107     1.0000 0.58593  0.70217  0.76397  Biso   1.000  H
  H108     1.0000 0.53773  0.65307  0.79457  Biso   1.000  H
  C180     1.0000 0.62893  0.77117  0.80917  Biso   1.000  C
  Cu1      1.0000 0.52351  0.47649  0.97186  Biso   1.000  Cu
  Cu2      1.0000 0.19018  0.80982  0.30519  Biso   1.000  Cu
  Cu3      1.0000 0.85684  0.14316  0.63853  Biso   1.000  Cu
  Cu4      1.0000 0.52351  0.04702  0.97186  Biso   1.000  Cu
  Cu5      1.0000 0.19018  0.38035  0.30519  Biso   1.000  Cu
  Cu6      1.0000 0.85684  0.71369  0.63853  Biso   1.000  Cu
  Cu7      1.0000 0.95298  0.47649  0.97186  Biso   1.000  Cu
  Cu8      1.0000 0.61965  0.80982  0.30519  Biso   1.000  Cu
  Cu9      1.0000 0.28631  0.14316  0.63853  Biso   1.000  Cu
  Cu10     1.0000 0.47649  0.52351  0.02814  Biso   1.000  Cu
  Cu11     1.0000 0.14316  0.85684  0.36147  Biso   1.000  Cu
  Cu12     1.0000 0.80982  0.19018  0.69481  Biso   1.000  Cu
  Cu13     1.0000 0.04702  0.52351  0.02814  Biso   1.000  Cu
  Cu14     1.0000 0.71369  0.85684  0.36147  Biso   1.000  Cu
  Cu15     1.0000 0.38035  0.19018  0.69481  Biso   1.000  Cu
  Cu16     1.0000 0.47649  0.95298  0.02814  Biso   1.000  Cu
  Cu17     1.0000 0.14316  0.28631  0.36147  Biso   1.000  Cu
  Cu18     1.0000 0.80982  0.61965  0.69481  Biso   1.000  Cu
  C181     1.0000 0.38660  0.19330  0.09515  Biso   1.000  C
  C182     1.0000 0.44580  0.22290  0.02717  Biso   1.000  C
  H109     1.0000 0.46550  0.23275  0.00450  Biso   1.000  H
  C183     1.0000 0.35900  0.17950  0.13207  Biso   1.000  C
  C184     1.0000 0.05327  0.52663  0.42848  Biso   1.000  C
  C185     1.0000 0.11247  0.55623  0.36050  Biso   1.000  C
  H110     1.0000 0.13217  0.56608  0.33783  Biso   1.000  H
  C186     1.0000 0.02567  0.51283  0.46540  Biso   1.000  C
  C187     1.0000 0.71993  0.85997  0.76182  Biso   1.000  C
  C188     1.0000 0.77913  0.88957  0.69384  Biso   1.000  C
  H111     1.0000 0.79883  0.89942  0.67117  Biso   1.000  H
  C189     1.0000 0.69233  0.84617  0.79874  Biso   1.000  C
  C190     1.0000 0.80670  0.19330  0.09515  Biso   1.000  C
  C191     1.0000 0.77710  0.22290  0.02717  Biso   1.000  C
  H112     1.0000 0.76725  0.23275  0.00450  Biso   1.000  H
  C192     1.0000 0.82050  0.17950  0.13207  Biso   1.000  C
  C193     1.0000 0.47337  0.52663  0.42848  Biso   1.000  C
  C194     1.0000 0.44377  0.55623  0.36050  Biso   1.000  C
  H113     1.0000 0.43392  0.56608  0.33783  Biso   1.000  H
  C195     1.0000 0.48717  0.51283  0.46540  Biso   1.000  C
  C196     1.0000 0.14003  0.85997  0.76182  Biso   1.000  C
  C197     1.0000 0.11043  0.88957  0.69384  Biso   1.000  C
  H114     1.0000 0.10058  0.89942  0.67117  Biso   1.000  H
  C198     1.0000 0.15383  0.84617  0.79874  Biso   1.000  C
  C199     1.0000 0.80670  0.61340  0.09515  Biso   1.000  C
  C200     1.0000 0.77710  0.55420  0.02717  Biso   1.000  C
  H115     1.0000 0.76725  0.53450  0.00450  Biso   1.000  H
  C201     1.0000 0.82050  0.64100  0.13207  Biso   1.000  C
  C202     1.0000 0.47337  0.94673  0.42848  Biso   1.000  C
  C203     1.0000 0.44377  0.88753  0.36050  Biso   1.000  C
  H116     1.0000 0.43392  0.86783  0.33783  Biso   1.000  H
  C204     1.0000 0.48717  0.97433  0.46540  Biso   1.000  C
  C205     1.0000 0.14003  0.28007  0.76182  Biso   1.000  C
  C206     1.0000 0.11043  0.22087  0.69384  Biso   1.000  C
  H117     1.0000 0.10058  0.20117  0.67117  Biso   1.000  H
  C207     1.0000 0.15383  0.30767  0.79874  Biso   1.000  C
  C208     1.0000 0.19330  0.38660  0.90485  Biso   1.000  C
  C209     1.0000 0.22290  0.44580  0.97283  Biso   1.000  C
  H118     1.0000 0.23275  0.46550  0.99550  Biso   1.000  H
  C210     1.0000 0.17950  0.35900  0.86793  Biso   1.000  C
  C211     1.0000 0.85997  0.71993  0.23818  Biso   1.000  C
  C212     1.0000 0.88957  0.77913  0.30616  Biso   1.000  C
  H119     1.0000 0.89942  0.79883  0.32883  Biso   1.000  H
  C213     1.0000 0.84617  0.69233  0.20126  Biso   1.000  C
  C214     1.0000 0.52663  0.05327  0.57152  Biso   1.000  C
  C215     1.0000 0.55623  0.11247  0.63950  Biso   1.000  C
  H120     1.0000 0.56608  0.13217  0.66217  Biso   1.000  H
  C216     1.0000 0.51283  0.02567  0.53460  Biso   1.000  C
  C217     1.0000 0.19330  0.80670  0.90485  Biso   1.000  C
  C218     1.0000 0.22290  0.77710  0.97283  Biso   1.000  C
  H121     1.0000 0.23275  0.76725  0.99550  Biso   1.000  H
  C219     1.0000 0.17950  0.82050  0.86793  Biso   1.000  C
  C220     1.0000 0.85997  0.14003  0.23818  Biso   1.000  C
  C221     1.0000 0.88957  0.11043  0.30616  Biso   1.000  C
  H122     1.0000 0.89942  0.10058  0.32883  Biso   1.000  H
  C222     1.0000 0.84617  0.15383  0.20126  Biso   1.000  C
  C223     1.0000 0.52663  0.47337  0.57152  Biso   1.000  C
  C224     1.0000 0.55623  0.44377  0.63950  Biso   1.000  C
  H123     1.0000 0.56608  0.43392  0.66217  Biso   1.000  H
  C225     1.0000 0.51283  0.48717  0.53460  Biso   1.000  C
  C226     1.0000 0.61340  0.80670  0.90485  Biso   1.000  C
  C227     1.0000 0.55420  0.77710  0.97283  Biso   1.000  C
  H124     1.0000 0.53450  0.76725  0.99550  Biso   1.000  H
  C228     1.0000 0.64100  0.82050  0.86793  Biso   1.000  C
  C229     1.0000 0.28007  0.14003  0.23818  Biso   1.000  C
  C230     1.0000 0.22087  0.11043  0.30616  Biso   1.000  C
  H125     1.0000 0.20117  0.10058  0.32883  Biso   1.000  H
  C231     1.0000 0.30767  0.15383  0.20126  Biso   1.000  C
  C232     1.0000 0.94673  0.47337  0.57152  Biso   1.000  C
  C233     1.0000 0.88753  0.44377  0.63950  Biso   1.000  C
  H126     1.0000 0.86783  0.43392  0.66217  Biso   1.000  H
  C234     1.0000 0.97433  0.48717  0.53460  Biso   1.000  C
