data_image0
_cell_length_a       17.8048
_cell_length_b       17.8048
_cell_length_c       17.8048
_cell_angle_alpha    90
_cell_angle_beta     90
_cell_angle_gamma    90

_symmetry_space_group_name_H-M    "P 1"
_symmetry_int_tables_number       1

loop_
  _symmetry_equiv_pos_as_xyz
  'x, y, z'

loop_
  _atom_site_label
  _atom_site_occupancy
  _atom_site_fract_x
  _atom_site_fract_y
  _atom_site_fract_z
  _atom_site_thermal_displace_type
  _atom_site_B_iso_or_equiv
  _atom_site_type_symbol
  O1       1.0000 0.26327  0.29289  0.62666  Biso   1.000  O
  O2       1.0000 0.19218  0.41758  0.59307  Biso   1.000  O
  O3       1.0000 0.09560  0.46180  0.46430  Biso   1.000  O
  C1       1.0000 0.28720  0.33040  0.56480  Biso   1.000  C
  C2       1.0000 0.24720  0.39640  0.54560  Biso   1.000  C
  S1       1.0000 0.05630  0.47750  0.40580  Biso   1.000  S
  C3       1.0000 0.34740  0.30840  0.52190  Biso   1.000  C
  C4       1.0000 0.26630  0.43540  0.48130  Biso   1.000  C
  O4       1.0000 0.09720  0.45420  0.33920  Biso   1.000  O
  C5       1.0000 0.36970  0.34960  0.45630  Biso   1.000  C
  H1       1.0000 0.37490  0.26480  0.53590  Biso   1.000  H
  H2       1.0000 0.23740  0.47800  0.46720  Biso   1.000  H
  C6       1.0000 0.32810  0.41320  0.43570  Biso   1.000  C
  O5       1.0000 0.06530  0.41710  0.44740  Biso   1.000  O
  O6       1.0000 0.23673  0.70711  0.12666  Biso   1.000  O
  O7       1.0000 0.30782  0.58242  0.09307  Biso   1.000  O
  O8       1.0000 0.40440  0.53820  0.96430  Biso   1.000  O
  C7       1.0000 0.21280  0.66960  0.06480  Biso   1.000  C
  C8       1.0000 0.25280  0.60360  0.04560  Biso   1.000  C
  S2       1.0000 0.44370  0.52250  0.90580  Biso   1.000  S
  C9       1.0000 0.15260  0.69160  0.02190  Biso   1.000  C
  C10      1.0000 0.23370  0.56460  0.98130  Biso   1.000  C
  O9       1.0000 0.40280  0.54580  0.83920  Biso   1.000  O
  C11      1.0000 0.13030  0.65040  0.95630  Biso   1.000  C
  H3       1.0000 0.12510  0.73520  0.03590  Biso   1.000  H
  H4       1.0000 0.26260  0.52200  0.96720  Biso   1.000  H
  C12      1.0000 0.17190  0.58680  0.93570  Biso   1.000  C
  O10      1.0000 0.43470  0.58290  0.94740  Biso   1.000  O
  O11      1.0000 0.73673  0.79289  0.87334  Biso   1.000  O
  O12      1.0000 0.80782  0.91758  0.90693  Biso   1.000  O
  O13      1.0000 0.90440  0.96180  0.03570  Biso   1.000  O
  C13      1.0000 0.71280  0.83040  0.93520  Biso   1.000  C
  C14      1.0000 0.75280  0.89640  0.95440  Biso   1.000  C
  S3       1.0000 0.94370  0.97750  0.09420  Biso   1.000  S
  C15      1.0000 0.65260  0.80840  0.97810  Biso   1.000  C
  C16      1.0000 0.73370  0.93540  0.01870  Biso   1.000  C
  O14      1.0000 0.90280  0.95420  0.16080  Biso   1.000  O
  C17      1.0000 0.63030  0.84960  0.04370  Biso   1.000  C
  H5       1.0000 0.62510  0.76480  0.96410  Biso   1.000  H
  H6       1.0000 0.76260  0.97800  0.03280  Biso   1.000  H
  C18      1.0000 0.67190  0.91320  0.06430  Biso   1.000  C
  O15      1.0000 0.93470  0.91710  0.05260  Biso   1.000  O
  O16      1.0000 0.76327  0.20711  0.37334  Biso   1.000  O
  O17      1.0000 0.69218  0.08242  0.40693  Biso   1.000  O
  O18      1.0000 0.59560  0.03820  0.53570  Biso   1.000  O
  C19      1.0000 0.78720  0.16960  0.43520  Biso   1.000  C
  C20      1.0000 0.74720  0.10360  0.45440  Biso   1.000  C
  S4       1.0000 0.55630  0.02250  0.59420  Biso   1.000  S
  C21      1.0000 0.84740  0.19160  0.47810  Biso   1.000  C
  C22      1.0000 0.76630  0.06460  0.51870  Biso   1.000  C
  O19      1.0000 0.59720  0.04580  0.66080  Biso   1.000  O
  C23      1.0000 0.86970  0.15040  0.54370  Biso   1.000  C
  H7       1.0000 0.87490  0.23520  0.46410  Biso   1.000  H
  H8       1.0000 0.73740  0.02200  0.53280  Biso   1.000  H
  C24      1.0000 0.82810  0.08680  0.56430  Biso   1.000  C
  O20      1.0000 0.56530  0.08290  0.55260  Biso   1.000  O
  O21      1.0000 0.62666  0.26327  0.29289  Biso   1.000  O
  O22      1.0000 0.59307  0.19218  0.41758  Biso   1.000  O
  O23      1.0000 0.46430  0.09560  0.46180  Biso   1.000  O
  C25      1.0000 0.56480  0.28720  0.33040  Biso   1.000  C
  C26      1.0000 0.54560  0.24720  0.39640  Biso   1.000  C
  S5       1.0000 0.40580  0.05630  0.47750  Biso   1.000  S
  C27      1.0000 0.52190  0.34740  0.30840  Biso   1.000  C
  C28      1.0000 0.48130  0.26630  0.43540  Biso   1.000  C
  O24      1.0000 0.33920  0.09720  0.45420  Biso   1.000  O
  C29      1.0000 0.45630  0.36970  0.34960  Biso   1.000  C
  H9       1.0000 0.53590  0.37490  0.26480  Biso   1.000  H
  H10      1.0000 0.46720  0.23740  0.47800  Biso   1.000  H
  C30      1.0000 0.43570  0.32810  0.41320  Biso   1.000  C
  O25      1.0000 0.44740  0.06530  0.41710  Biso   1.000  O
  O26      1.0000 0.12666  0.23673  0.70711  Biso   1.000  O
  O27      1.0000 0.09307  0.30782  0.58242  Biso   1.000  O
  O28      1.0000 0.96430  0.40440  0.53820  Biso   1.000  O
  C31      1.0000 0.06480  0.21280  0.66960  Biso   1.000  C
  C32      1.0000 0.04560  0.25280  0.60360  Biso   1.000  C
  S6       1.0000 0.90580  0.44370  0.52250  Biso   1.000  S
  C33      1.0000 0.02190  0.15260  0.69160  Biso   1.000  C
  C34      1.0000 0.98130  0.23370  0.56460  Biso   1.000  C
  O29      1.0000 0.83920  0.40280  0.54580  Biso   1.000  O
  C35      1.0000 0.95630  0.13030  0.65040  Biso   1.000  C
  H11      1.0000 0.03590  0.12510  0.73520  Biso   1.000  H
  H12      1.0000 0.96720  0.26260  0.52200  Biso   1.000  H
  C36      1.0000 0.93570  0.17190  0.58680  Biso   1.000  C
  O30      1.0000 0.94740  0.43470  0.58290  Biso   1.000  O
  O31      1.0000 0.87334  0.73673  0.79289  Biso   1.000  O
  O32      1.0000 0.90693  0.80782  0.91758  Biso   1.000  O
  O33      1.0000 0.03570  0.90440  0.96180  Biso   1.000  O
  C37      1.0000 0.93520  0.71280  0.83040  Biso   1.000  C
  C38      1.0000 0.95440  0.75280  0.89640  Biso   1.000  C
  S7       1.0000 0.09420  0.94370  0.97750  Biso   1.000  S
  C39      1.0000 0.97810  0.65260  0.80840  Biso   1.000  C
  C40      1.0000 0.01870  0.73370  0.93540  Biso   1.000  C
  O34      1.0000 0.16080  0.90280  0.95420  Biso   1.000  O
  C41      1.0000 0.04370  0.63030  0.84960  Biso   1.000  C
  H13      1.0000 0.96410  0.62510  0.76480  Biso   1.000  H
  H14      1.0000 0.03280  0.76260  0.97800  Biso   1.000  H
  C42      1.0000 0.06430  0.67190  0.91320  Biso   1.000  C
  O35      1.0000 0.05260  0.93470  0.91710  Biso   1.000  O
  O36      1.0000 0.37334  0.76327  0.20711  Biso   1.000  O
  O37      1.0000 0.40693  0.69218  0.08242  Biso   1.000  O
  O38      1.0000 0.53570  0.59560  0.03820  Biso   1.000  O
  C43      1.0000 0.43520  0.78720  0.16960  Biso   1.000  C
  C44      1.0000 0.45440  0.74720  0.10360  Biso   1.000  C
  S8       1.0000 0.59420  0.55630  0.02250  Biso   1.000  S
  C45      1.0000 0.47810  0.84740  0.19160  Biso   1.000  C
  C46      1.0000 0.51870  0.76630  0.06460  Biso   1.000  C
  O39      1.0000 0.66080  0.59720  0.04580  Biso   1.000  O
  C47      1.0000 0.54370  0.86970  0.15040  Biso   1.000  C
  H15      1.0000 0.46410  0.87490  0.23520  Biso   1.000  H
  H16      1.0000 0.53280  0.73740  0.02200  Biso   1.000  H
  C48      1.0000 0.56430  0.82810  0.08680  Biso   1.000  C
  O40      1.0000 0.55260  0.56530  0.08290  Biso   1.000  O
  O41      1.0000 0.29289  0.62666  0.26327  Biso   1.000  O
  O42      1.0000 0.41758  0.59307  0.19218  Biso   1.000  O
  O43      1.0000 0.46180  0.46430  0.09560  Biso   1.000  O
  C49      1.0000 0.33040  0.56480  0.28720  Biso   1.000  C
  C50      1.0000 0.39640  0.54560  0.24720  Biso   1.000  C
  S9       1.0000 0.47750  0.40580  0.05630  Biso   1.000  S
  C51      1.0000 0.30840  0.52190  0.34740  Biso   1.000  C
  C52      1.0000 0.43540  0.48130  0.26630  Biso   1.000  C
  O44      1.0000 0.45420  0.33920  0.09720  Biso   1.000  O
  C53      1.0000 0.34960  0.45630  0.36970  Biso   1.000  C
  H17      1.0000 0.26480  0.53590  0.37490  Biso   1.000  H
  H18      1.0000 0.47800  0.46720  0.23740  Biso   1.000  H
  C54      1.0000 0.41320  0.43570  0.32810  Biso   1.000  C
  O45      1.0000 0.41710  0.44740  0.06530  Biso   1.000  O
  O46      1.0000 0.70711  0.12666  0.23673  Biso   1.000  O
  O47      1.0000 0.58242  0.09307  0.30782  Biso   1.000  O
  O48      1.0000 0.53820  0.96430  0.40440  Biso   1.000  O
  C55      1.0000 0.66960  0.06480  0.21280  Biso   1.000  C
  C56      1.0000 0.60360  0.04560  0.25280  Biso   1.000  C
  S10      1.0000 0.52250  0.90580  0.44370  Biso   1.000  S
  C57      1.0000 0.69160  0.02190  0.15260  Biso   1.000  C
  C58      1.0000 0.56460  0.98130  0.23370  Biso   1.000  C
  O49      1.0000 0.54580  0.83920  0.40280  Biso   1.000  O
  C59      1.0000 0.65040  0.95630  0.13030  Biso   1.000  C
  H19      1.0000 0.73520  0.03590  0.12510  Biso   1.000  H
  H20      1.0000 0.52200  0.96720  0.26260  Biso   1.000  H
  C60      1.0000 0.58680  0.93570  0.17190  Biso   1.000  C
  O50      1.0000 0.58290  0.94740  0.43470  Biso   1.000  O
  O51      1.0000 0.79289  0.87334  0.73673  Biso   1.000  O
  O52      1.0000 0.91758  0.90693  0.80782  Biso   1.000  O
  O53      1.0000 0.96180  0.03570  0.90440  Biso   1.000  O
  C61      1.0000 0.83040  0.93520  0.71280  Biso   1.000  C
  C62      1.0000 0.89640  0.95440  0.75280  Biso   1.000  C
  S11      1.0000 0.97750  0.09420  0.94370  Biso   1.000  S
  C63      1.0000 0.80840  0.97810  0.65260  Biso   1.000  C
  C64      1.0000 0.93540  0.01870  0.73370  Biso   1.000  C
  O54      1.0000 0.95420  0.16080  0.90280  Biso   1.000  O
  C65      1.0000 0.84960  0.04370  0.63030  Biso   1.000  C
  H21      1.0000 0.76480  0.96410  0.62510  Biso   1.000  H
  H22      1.0000 0.97800  0.03280  0.76260  Biso   1.000  H
  C66      1.0000 0.91320  0.06430  0.67190  Biso   1.000  C
  O55      1.0000 0.91710  0.05260  0.93470  Biso   1.000  O
  O56      1.0000 0.20711  0.37334  0.76327  Biso   1.000  O
  O57      1.0000 0.08242  0.40693  0.69218  Biso   1.000  O
  O58      1.0000 0.03820  0.53570  0.59560  Biso   1.000  O
  C67      1.0000 0.16960  0.43520  0.78720  Biso   1.000  C
  C68      1.0000 0.10360  0.45440  0.74720  Biso   1.000  C
  S12      1.0000 0.02250  0.59420  0.55630  Biso   1.000  S
  C69      1.0000 0.19160  0.47810  0.84740  Biso   1.000  C
  C70      1.0000 0.06460  0.51870  0.76630  Biso   1.000  C
  O59      1.0000 0.04580  0.66080  0.59720  Biso   1.000  O
  C71      1.0000 0.15040  0.54370  0.86970  Biso   1.000  C
  H23      1.0000 0.23520  0.46410  0.87490  Biso   1.000  H
  H24      1.0000 0.02200  0.53280  0.73740  Biso   1.000  H
  C72      1.0000 0.08680  0.56430  0.82810  Biso   1.000  C
  O60      1.0000 0.08290  0.55260  0.56530  Biso   1.000  O
  O61      1.0000 0.73673  0.70711  0.37334  Biso   1.000  O
  O62      1.0000 0.80782  0.58242  0.40693  Biso   1.000  O
  O63      1.0000 0.90440  0.53820  0.53570  Biso   1.000  O
  C73      1.0000 0.71280  0.66960  0.43520  Biso   1.000  C
  C74      1.0000 0.75280  0.60360  0.45440  Biso   1.000  C
  S13      1.0000 0.94370  0.52250  0.59420  Biso   1.000  S
  C75      1.0000 0.65260  0.69160  0.47810  Biso   1.000  C
  C76      1.0000 0.73370  0.56460  0.51870  Biso   1.000  C
  O64      1.0000 0.90280  0.54580  0.66080  Biso   1.000  O
  C77      1.0000 0.63030  0.65040  0.54370  Biso   1.000  C
  H25      1.0000 0.62510  0.73520  0.46410  Biso   1.000  H
  H26      1.0000 0.76260  0.52200  0.53280  Biso   1.000  H
  C78      1.0000 0.67190  0.58680  0.56430  Biso   1.000  C
  O65      1.0000 0.93470  0.58290  0.55260  Biso   1.000  O
  O66      1.0000 0.76327  0.29289  0.87334  Biso   1.000  O
  O67      1.0000 0.69218  0.41758  0.90693  Biso   1.000  O
  O68      1.0000 0.59560  0.46180  0.03570  Biso   1.000  O
  C79      1.0000 0.78720  0.33040  0.93520  Biso   1.000  C
  C80      1.0000 0.74720  0.39640  0.95440  Biso   1.000  C
  S14      1.0000 0.55630  0.47750  0.09420  Biso   1.000  S
  C81      1.0000 0.84740  0.30840  0.97810  Biso   1.000  C
  C82      1.0000 0.76630  0.43540  0.01870  Biso   1.000  C
  O69      1.0000 0.59720  0.45420  0.16080  Biso   1.000  O
  C83      1.0000 0.86970  0.34960  0.04370  Biso   1.000  C
  H27      1.0000 0.87490  0.26480  0.96410  Biso   1.000  H
  H28      1.0000 0.73740  0.47800  0.03280  Biso   1.000  H
  C84      1.0000 0.82810  0.41320  0.06430  Biso   1.000  C
  O70      1.0000 0.56530  0.41710  0.05260  Biso   1.000  O
  O71      1.0000 0.26327  0.20711  0.12666  Biso   1.000  O
  O72      1.0000 0.19218  0.08242  0.09307  Biso   1.000  O
  O73      1.0000 0.09560  0.03820  0.96430  Biso   1.000  O
  C85      1.0000 0.28720  0.16960  0.06480  Biso   1.000  C
  C86      1.0000 0.24720  0.10360  0.04560  Biso   1.000  C
  S15      1.0000 0.05630  0.02250  0.90580  Biso   1.000  S
  C87      1.0000 0.34740  0.19160  0.02190  Biso   1.000  C
  C88      1.0000 0.26630  0.06460  0.98130  Biso   1.000  C
  O74      1.0000 0.09720  0.04580  0.83920  Biso   1.000  O
  C89      1.0000 0.36970  0.15040  0.95630  Biso   1.000  C
  H29      1.0000 0.37490  0.23520  0.03590  Biso   1.000  H
  H30      1.0000 0.23740  0.02200  0.96720  Biso   1.000  H
  C90      1.0000 0.32810  0.08680  0.93570  Biso   1.000  C
  O75      1.0000 0.06530  0.08290  0.94740  Biso   1.000  O
  O76      1.0000 0.23673  0.79289  0.62666  Biso   1.000  O
  O77      1.0000 0.30782  0.91758  0.59307  Biso   1.000  O
  O78      1.0000 0.40440  0.96180  0.46430  Biso   1.000  O
  C91      1.0000 0.21280  0.83040  0.56480  Biso   1.000  C
  C92      1.0000 0.25280  0.89640  0.54560  Biso   1.000  C
  S16      1.0000 0.44370  0.97750  0.40580  Biso   1.000  S
  C93      1.0000 0.15260  0.80840  0.52190  Biso   1.000  C
  C94      1.0000 0.23370  0.93540  0.48130  Biso   1.000  C
  O79      1.0000 0.40280  0.95420  0.33920  Biso   1.000  O
  C95      1.0000 0.13030  0.84960  0.45630  Biso   1.000  C
  H31      1.0000 0.12510  0.76480  0.53590  Biso   1.000  H
  H32      1.0000 0.26260  0.97800  0.46720  Biso   1.000  H
  C96      1.0000 0.17190  0.91320  0.43570  Biso   1.000  C
  O80      1.0000 0.43470  0.91710  0.44740  Biso   1.000  O
  O81      1.0000 0.37334  0.73673  0.70711  Biso   1.000  O
  O82      1.0000 0.40693  0.80782  0.58242  Biso   1.000  O
  O83      1.0000 0.53570  0.90440  0.53820  Biso   1.000  O
  C97      1.0000 0.43520  0.71280  0.66960  Biso   1.000  C
  C98      1.0000 0.45440  0.75280  0.60360  Biso   1.000  C
  S17      1.0000 0.59420  0.94370  0.52250  Biso   1.000  S
  C99      1.0000 0.47810  0.65260  0.69160  Biso   1.000  C
  C100     1.0000 0.51870  0.73370  0.56460  Biso   1.000  C
  O84      1.0000 0.66080  0.90280  0.54580  Biso   1.000  O
  C101     1.0000 0.54370  0.63030  0.65040  Biso   1.000  C
  H33      1.0000 0.46410  0.62510  0.73520  Biso   1.000  H
  H34      1.0000 0.53280  0.76260  0.52200  Biso   1.000  H
  C102     1.0000 0.56430  0.67190  0.58680  Biso   1.000  C
  O85      1.0000 0.55260  0.93470  0.58290  Biso   1.000  O
  O86      1.0000 0.87334  0.76327  0.29289  Biso   1.000  O
  O87      1.0000 0.90693  0.69218  0.41758  Biso   1.000  O
  O88      1.0000 0.03570  0.59560  0.46180  Biso   1.000  O
  C103     1.0000 0.93520  0.78720  0.33040  Biso   1.000  C
  C104     1.0000 0.95440  0.74720  0.39640  Biso   1.000  C
  S18      1.0000 0.09420  0.55630  0.47750  Biso   1.000  S
  C105     1.0000 0.97810  0.84740  0.30840  Biso   1.000  C
  C106     1.0000 0.01870  0.76630  0.43540  Biso   1.000  C
  O89      1.0000 0.16080  0.59720  0.45420  Biso   1.000  O
  C107     1.0000 0.04370  0.86970  0.34960  Biso   1.000  C
  H35      1.0000 0.96410  0.87490  0.26480  Biso   1.000  H
  H36      1.0000 0.03280  0.73740  0.47800  Biso   1.000  H
  C108     1.0000 0.06430  0.82810  0.41320  Biso   1.000  C
  O90      1.0000 0.05260  0.56530  0.41710  Biso   1.000  O
  O91      1.0000 0.12666  0.26327  0.20711  Biso   1.000  O
  O92      1.0000 0.09307  0.19218  0.08242  Biso   1.000  O
  O93      1.0000 0.96430  0.09560  0.03820  Biso   1.000  O
  C109     1.0000 0.06480  0.28720  0.16960  Biso   1.000  C
  C110     1.0000 0.04560  0.24720  0.10360  Biso   1.000  C
  S19      1.0000 0.90580  0.05630  0.02250  Biso   1.000  S
  C111     1.0000 0.02190  0.34740  0.19160  Biso   1.000  C
  C112     1.0000 0.98130  0.26630  0.06460  Biso   1.000  C
  O94      1.0000 0.83920  0.09720  0.04580  Biso   1.000  O
  C113     1.0000 0.95630  0.36970  0.15040  Biso   1.000  C
  H37      1.0000 0.03590  0.37490  0.23520  Biso   1.000  H
  H38      1.0000 0.96720  0.23740  0.02200  Biso   1.000  H
  C114     1.0000 0.93570  0.32810  0.08680  Biso   1.000  C
  O95      1.0000 0.94740  0.06530  0.08290  Biso   1.000  O
  O96      1.0000 0.62666  0.23673  0.79289  Biso   1.000  O
  O97      1.0000 0.59307  0.30782  0.91758  Biso   1.000  O
  O98      1.0000 0.46430  0.40440  0.96180  Biso   1.000  O
  C115     1.0000 0.56480  0.21280  0.83040  Biso   1.000  C
  C116     1.0000 0.54560  0.25280  0.89640  Biso   1.000  C
  S20      1.0000 0.40580  0.44370  0.97750  Biso   1.000  S
  C117     1.0000 0.52190  0.15260  0.80840  Biso   1.000  C
  C118     1.0000 0.48130  0.23370  0.93540  Biso   1.000  C
  O99      1.0000 0.33920  0.40280  0.95420  Biso   1.000  O
  C119     1.0000 0.45630  0.13030  0.84960  Biso   1.000  C
  H39      1.0000 0.53590  0.12510  0.76480  Biso   1.000  H
  H40      1.0000 0.46720  0.26260  0.97800  Biso   1.000  H
  C120     1.0000 0.43570  0.17190  0.91320  Biso   1.000  C
  O100     1.0000 0.44740  0.43470  0.91710  Biso   1.000  O
  O101     1.0000 0.70711  0.37334  0.73673  Biso   1.000  O
  O102     1.0000 0.58242  0.40693  0.80782  Biso   1.000  O
  O103     1.0000 0.53820  0.53570  0.90440  Biso   1.000  O
  C121     1.0000 0.66960  0.43520  0.71280  Biso   1.000  C
  C122     1.0000 0.60360  0.45440  0.75280  Biso   1.000  C
  S21      1.0000 0.52250  0.59420  0.94370  Biso   1.000  S
  C123     1.0000 0.69160  0.47810  0.65260  Biso   1.000  C
  C124     1.0000 0.56460  0.51870  0.73370  Biso   1.000  C
  O104     1.0000 0.54580  0.66080  0.90280  Biso   1.000  O
  C125     1.0000 0.65040  0.54370  0.63030  Biso   1.000  C
  H41      1.0000 0.73520  0.46410  0.62510  Biso   1.000  H
  H42      1.0000 0.52200  0.53280  0.76260  Biso   1.000  H
  C126     1.0000 0.58680  0.56430  0.67190  Biso   1.000  C
  O105     1.0000 0.58290  0.55260  0.93470  Biso   1.000  O
  O106     1.0000 0.29289  0.87334  0.76327  Biso   1.000  O
  O107     1.0000 0.41758  0.90693  0.69218  Biso   1.000  O
  O108     1.0000 0.46180  0.03570  0.59560  Biso   1.000  O
  C127     1.0000 0.33040  0.93520  0.78720  Biso   1.000  C
  C128     1.0000 0.39640  0.95440  0.74720  Biso   1.000  C
  S22      1.0000 0.47750  0.09420  0.55630  Biso   1.000  S
  C129     1.0000 0.30840  0.97810  0.84740  Biso   1.000  C
  C130     1.0000 0.43540  0.01870  0.76630  Biso   1.000  C
  O109     1.0000 0.45420  0.16080  0.59720  Biso   1.000  O
  C131     1.0000 0.34960  0.04370  0.86970  Biso   1.000  C
  H43      1.0000 0.26480  0.96410  0.87490  Biso   1.000  H
  H44      1.0000 0.47800  0.03280  0.73740  Biso   1.000  H
  C132     1.0000 0.41320  0.06430  0.82810  Biso   1.000  C
  O110     1.0000 0.41710  0.05260  0.56530  Biso   1.000  O
  O111     1.0000 0.20711  0.12666  0.26327  Biso   1.000  O
  O112     1.0000 0.08242  0.09307  0.19218  Biso   1.000  O
  O113     1.0000 0.03820  0.96430  0.09560  Biso   1.000  O
  C133     1.0000 0.16960  0.06480  0.28720  Biso   1.000  C
  C134     1.0000 0.10360  0.04560  0.24720  Biso   1.000  C
  S23      1.0000 0.02250  0.90580  0.05630  Biso   1.000  S
  C135     1.0000 0.19160  0.02190  0.34740  Biso   1.000  C
  C136     1.0000 0.06460  0.98130  0.26630  Biso   1.000  C
  O114     1.0000 0.04580  0.83920  0.09720  Biso   1.000  O
  C137     1.0000 0.15040  0.95630  0.36970  Biso   1.000  C
  H45      1.0000 0.23520  0.03590  0.37490  Biso   1.000  H
  H46      1.0000 0.02200  0.96720  0.23740  Biso   1.000  H
  C138     1.0000 0.08680  0.93570  0.32810  Biso   1.000  C
  O115     1.0000 0.08290  0.94740  0.06530  Biso   1.000  O
  O116     1.0000 0.79289  0.62666  0.23673  Biso   1.000  O
  O117     1.0000 0.91758  0.59307  0.30782  Biso   1.000  O
  O118     1.0000 0.96180  0.46430  0.40440  Biso   1.000  O
  C139     1.0000 0.83040  0.56480  0.21280  Biso   1.000  C
  C140     1.0000 0.89640  0.54560  0.25280  Biso   1.000  C
  S24      1.0000 0.97750  0.40580  0.44370  Biso   1.000  S
  C141     1.0000 0.80840  0.52190  0.15260  Biso   1.000  C
  C142     1.0000 0.93540  0.48130  0.23370  Biso   1.000  C
  O119     1.0000 0.95420  0.33920  0.40280  Biso   1.000  O
  C143     1.0000 0.84960  0.45630  0.13030  Biso   1.000  C
  H47      1.0000 0.76480  0.53590  0.12510  Biso   1.000  H
  H48      1.0000 0.97800  0.46720  0.26260  Biso   1.000  H
  C144     1.0000 0.91320  0.43570  0.17190  Biso   1.000  C
  O120     1.0000 0.91710  0.44740  0.43470  Biso   1.000  O
  Fe1      1.0000 0.16756  0.33244  0.66756  Biso   1.000  Fe
  Fe2      1.0000 0.07385  0.42615  0.57385  Biso   1.000  Fe
  Fe3      1.0000 0.33244  0.66756  0.16756  Biso   1.000  Fe
  Fe4      1.0000 0.42615  0.57385  0.07385  Biso   1.000  Fe
  Fe5      1.0000 0.83244  0.83244  0.83244  Biso   1.000  Fe
  Fe6      1.0000 0.92615  0.92615  0.92615  Biso   1.000  Fe
  Fe7      1.0000 0.66756  0.16756  0.33244  Biso   1.000  Fe
  Fe8      1.0000 0.57385  0.07385  0.42615  Biso   1.000  Fe
  Fe9      1.0000 0.83244  0.66756  0.33244  Biso   1.000  Fe
  Fe10     1.0000 0.92615  0.57385  0.42615  Biso   1.000  Fe
  Fe11     1.0000 0.66756  0.33244  0.83244  Biso   1.000  Fe
  Fe12     1.0000 0.57385  0.42615  0.92615  Biso   1.000  Fe
  Fe13     1.0000 0.16756  0.16756  0.16756  Biso   1.000  Fe
  Fe14     1.0000 0.07385  0.07385  0.07385  Biso   1.000  Fe
  Fe15     1.0000 0.33244  0.83244  0.66756  Biso   1.000  Fe
  Fe16     1.0000 0.42615  0.92615  0.57385  Biso   1.000  Fe
