data_image0
_cell_length_a       17.7875
_cell_length_b       17.7875
_cell_length_c       32.8115
_cell_angle_alpha    90
_cell_angle_beta     90
_cell_angle_gamma    90

_symmetry_space_group_name_H-M    "P 1"
_symmetry_int_tables_number       1

loop_
  _symmetry_equiv_pos_as_xyz
  'x, y, z'

loop_
  _atom_site_label
  _atom_site_occupancy
  _atom_site_fract_x
  _atom_site_fract_y
  _atom_site_fract_z
  _atom_site_thermal_displace_type
  _atom_site_B_iso_or_equiv
  _atom_site_type_symbol
  O1       1.0000 0.42646  0.63049  0.21158  Biso   1.000  O
  O2       1.0000 0.36300  0.55860  0.16677  Biso   1.000  O
  C1       1.0000 0.42200  0.59230  0.17939  Biso   1.000  C
  C2       1.0000 0.48900  0.58520  0.15314  Biso   1.000  C
  C3       1.0000 0.49010  0.53980  0.12031  Biso   1.000  C
  H1       1.0000 0.44660  0.51350  0.11360  Biso   1.000  H
  C4       1.0000 0.55220  0.53060  0.09642  Biso   1.000  C
  H2       1.0000 0.55100  0.49660  0.07490  Biso   1.000  H
  C5       1.0000 0.61760  0.57170  0.10406  Biso   1.000  C
  C6       1.0000 0.61720  0.62220  0.13678  Biso   1.000  C
  H3       1.0000 0.65940  0.65120  0.14260  Biso   1.000  H
  C7       1.0000 0.55400  0.62810  0.16004  Biso   1.000  C
  H4       1.0000 0.55400  0.66220  0.18150  Biso   1.000  H
  C8       1.0000 0.68490  0.56440  0.07895  Biso   1.000  C
  C9       1.0000 0.68290  0.54580  0.03671  Biso   1.000  C
  H5       1.0000 0.63710  0.54080  0.02330  Biso   1.000  H
  C10      1.0000 0.70210  0.45880  0.95940  Biso   1.000  C
  H6       1.0000 0.67630  0.42930  0.97820  Biso   1.000  H
  C11      1.0000 0.70220  0.43780  0.91800  Biso   1.000  C
  H7       1.0000 0.67730  0.39390  0.91050  Biso   1.000  H
  C12      1.0000 0.70680  0.54550  0.94550  Biso   1.000  C
  C13      1.0000 0.70830  0.52580  0.90370  Biso   1.000  C
  H8       1.0000 0.68220  0.58960  0.95290  Biso   1.000  H
  H9       1.0000 0.68200  0.55450  0.88470  Biso   1.000  H
  O3       1.0000 0.07354  0.86951  0.21158  Biso   1.000  O
  O4       1.0000 0.13700  0.94140  0.16677  Biso   1.000  O
  C14      1.0000 0.07800  0.90770  0.17939  Biso   1.000  C
  C15      1.0000 0.01100  0.91480  0.15314  Biso   1.000  C
  C16      1.0000 0.00990  0.96020  0.12031  Biso   1.000  C
  H10      1.0000 0.05340  0.98650  0.11360  Biso   1.000  H
  C17      1.0000 0.94780  0.96940  0.09642  Biso   1.000  C
  H11      1.0000 0.94900  0.00340  0.07490  Biso   1.000  H
  C18      1.0000 0.88240  0.92830  0.10406  Biso   1.000  C
  C19      1.0000 0.88280  0.87780  0.13678  Biso   1.000  C
  H12      1.0000 0.84060  0.84880  0.14260  Biso   1.000  H
  C20      1.0000 0.94600  0.87190  0.16004  Biso   1.000  C
  H13      1.0000 0.94600  0.83780  0.18150  Biso   1.000  H
  C21      1.0000 0.81510  0.93560  0.07895  Biso   1.000  C
  C22      1.0000 0.81710  0.95420  0.03671  Biso   1.000  C
  H14      1.0000 0.86290  0.95920  0.02330  Biso   1.000  H
  C23      1.0000 0.79790  0.04120  0.95940  Biso   1.000  C
  H15      1.0000 0.82370  0.07070  0.97820  Biso   1.000  H
  C24      1.0000 0.79780  0.06220  0.91800  Biso   1.000  C
  H16      1.0000 0.82270  0.10610  0.91050  Biso   1.000  H
  C25      1.0000 0.79320  0.95450  0.94550  Biso   1.000  C
  C26      1.0000 0.79170  0.97420  0.90370  Biso   1.000  C
  H17      1.0000 0.81780  0.91040  0.95290  Biso   1.000  H
  H18      1.0000 0.81800  0.94550  0.88470  Biso   1.000  H
  O5       1.0000 0.86951  0.42646  0.71158  Biso   1.000  O
  O6       1.0000 0.94140  0.36300  0.66677  Biso   1.000  O
  C27      1.0000 0.90770  0.42200  0.67939  Biso   1.000  C
  C28      1.0000 0.91480  0.48900  0.65314  Biso   1.000  C
  C29      1.0000 0.96020  0.49010  0.62031  Biso   1.000  C
  H19      1.0000 0.98650  0.44660  0.61360  Biso   1.000  H
  C30      1.0000 0.96940  0.55220  0.59642  Biso   1.000  C
  H20      1.0000 0.00340  0.55100  0.57490  Biso   1.000  H
  C31      1.0000 0.92830  0.61760  0.60406  Biso   1.000  C
  C32      1.0000 0.87780  0.61720  0.63678  Biso   1.000  C
  H21      1.0000 0.84880  0.65940  0.64260  Biso   1.000  H
  C33      1.0000 0.87190  0.55400  0.66004  Biso   1.000  C
  H22      1.0000 0.83780  0.55400  0.68150  Biso   1.000  H
  C34      1.0000 0.93560  0.68490  0.57895  Biso   1.000  C
  C35      1.0000 0.95420  0.68290  0.53671  Biso   1.000  C
  H23      1.0000 0.95920  0.63710  0.52330  Biso   1.000  H
  C36      1.0000 0.04120  0.70210  0.45940  Biso   1.000  C
  H24      1.0000 0.07070  0.67630  0.47820  Biso   1.000  H
  C37      1.0000 0.06220  0.70220  0.41800  Biso   1.000  C
  H25      1.0000 0.10610  0.67730  0.41050  Biso   1.000  H
  C38      1.0000 0.95450  0.70680  0.44550  Biso   1.000  C
  C39      1.0000 0.97420  0.70830  0.40370  Biso   1.000  C
  H26      1.0000 0.91040  0.68220  0.45290  Biso   1.000  H
  H27      1.0000 0.94550  0.68200  0.38470  Biso   1.000  H
  O7       1.0000 0.63049  0.07354  0.71158  Biso   1.000  O
  O8       1.0000 0.55860  0.13700  0.66677  Biso   1.000  O
  C40      1.0000 0.59230  0.07800  0.67939  Biso   1.000  C
  C41      1.0000 0.58520  0.01100  0.65314  Biso   1.000  C
  C42      1.0000 0.53980  0.00990  0.62031  Biso   1.000  C
  H28      1.0000 0.51350  0.05340  0.61360  Biso   1.000  H
  C43      1.0000 0.53060  0.94780  0.59642  Biso   1.000  C
  H29      1.0000 0.49660  0.94900  0.57490  Biso   1.000  H
  C44      1.0000 0.57170  0.88240  0.60406  Biso   1.000  C
  C45      1.0000 0.62220  0.88280  0.63678  Biso   1.000  C
  H30      1.0000 0.65120  0.84060  0.64260  Biso   1.000  H
  C46      1.0000 0.62810  0.94600  0.66004  Biso   1.000  C
  H31      1.0000 0.66220  0.94600  0.68150  Biso   1.000  H
  C47      1.0000 0.56440  0.81510  0.57895  Biso   1.000  C
  C48      1.0000 0.54580  0.81710  0.53671  Biso   1.000  C
  H32      1.0000 0.54080  0.86290  0.52330  Biso   1.000  H
  C49      1.0000 0.45880  0.79790  0.45940  Biso   1.000  C
  H33      1.0000 0.42930  0.82370  0.47820  Biso   1.000  H
  C50      1.0000 0.43780  0.79780  0.41800  Biso   1.000  C
  H34      1.0000 0.39390  0.82270  0.41050  Biso   1.000  H
  C51      1.0000 0.54550  0.79320  0.44550  Biso   1.000  C
  C52      1.0000 0.52580  0.79170  0.40370  Biso   1.000  C
  H35      1.0000 0.58960  0.81780  0.45290  Biso   1.000  H
  H36      1.0000 0.55450  0.81800  0.38470  Biso   1.000  H
  O9       1.0000 0.57354  0.13049  0.78842  Biso   1.000  O
  O10      1.0000 0.63700  0.05860  0.83323  Biso   1.000  O
  C53      1.0000 0.57800  0.09230  0.82061  Biso   1.000  C
  C54      1.0000 0.51100  0.08520  0.84686  Biso   1.000  C
  C55      1.0000 0.50990  0.03980  0.87969  Biso   1.000  C
  H37      1.0000 0.55340  0.01350  0.88640  Biso   1.000  H
  C56      1.0000 0.44780  0.03060  0.90358  Biso   1.000  C
  H38      1.0000 0.44900  0.99660  0.92510  Biso   1.000  H
  C57      1.0000 0.38240  0.07170  0.89594  Biso   1.000  C
  C58      1.0000 0.38280  0.12220  0.86322  Biso   1.000  C
  H39      1.0000 0.34060  0.15120  0.85740  Biso   1.000  H
  C59      1.0000 0.44600  0.12810  0.83996  Biso   1.000  C
  H40      1.0000 0.44600  0.16220  0.81850  Biso   1.000  H
  C60      1.0000 0.31510  0.06440  0.92105  Biso   1.000  C
  C61      1.0000 0.31710  0.04580  0.96329  Biso   1.000  C
  H41      1.0000 0.36290  0.04080  0.97670  Biso   1.000  H
  C62      1.0000 0.29790  0.95880  0.04060  Biso   1.000  C
  H42      1.0000 0.32370  0.92930  0.02180  Biso   1.000  H
  C63      1.0000 0.29780  0.93780  0.08200  Biso   1.000  C
  H43      1.0000 0.32270  0.89390  0.08950  Biso   1.000  H
  C64      1.0000 0.29320  0.04550  0.05450  Biso   1.000  C
  C65      1.0000 0.29170  0.02580  0.09630  Biso   1.000  C
  H44      1.0000 0.31780  0.08960  0.04710  Biso   1.000  H
  H45      1.0000 0.31800  0.05450  0.11530  Biso   1.000  H
  O11      1.0000 0.92646  0.36951  0.78842  Biso   1.000  O
  O12      1.0000 0.86300  0.44140  0.83323  Biso   1.000  O
  C66      1.0000 0.92200  0.40770  0.82061  Biso   1.000  C
  C67      1.0000 0.98900  0.41480  0.84686  Biso   1.000  C
  C68      1.0000 0.99010  0.46020  0.87969  Biso   1.000  C
  H46      1.0000 0.94660  0.48650  0.88640  Biso   1.000  H
  C69      1.0000 0.05220  0.46940  0.90358  Biso   1.000  C
  H47      1.0000 0.05100  0.50340  0.92510  Biso   1.000  H
  C70      1.0000 0.11760  0.42830  0.89594  Biso   1.000  C
  C71      1.0000 0.11720  0.37780  0.86322  Biso   1.000  C
  H48      1.0000 0.15940  0.34880  0.85740  Biso   1.000  H
  C72      1.0000 0.05400  0.37190  0.83996  Biso   1.000  C
  H49      1.0000 0.05400  0.33780  0.81850  Biso   1.000  H
  C73      1.0000 0.18490  0.43560  0.92105  Biso   1.000  C
  C74      1.0000 0.18290  0.45420  0.96329  Biso   1.000  C
  H50      1.0000 0.13710  0.45920  0.97670  Biso   1.000  H
  C75      1.0000 0.20210  0.54120  0.04060  Biso   1.000  C
  H51      1.0000 0.17630  0.57070  0.02180  Biso   1.000  H
  C76      1.0000 0.20220  0.56220  0.08200  Biso   1.000  C
  H52      1.0000 0.17730  0.60610  0.08950  Biso   1.000  H
  C77      1.0000 0.20680  0.45450  0.05450  Biso   1.000  C
  C78      1.0000 0.20830  0.47420  0.09630  Biso   1.000  C
  H53      1.0000 0.18220  0.41040  0.04710  Biso   1.000  H
  H54      1.0000 0.18200  0.44550  0.11530  Biso   1.000  H
  O13      1.0000 0.13049  0.92646  0.28842  Biso   1.000  O
  O14      1.0000 0.05860  0.86300  0.33323  Biso   1.000  O
  C79      1.0000 0.09230  0.92200  0.32061  Biso   1.000  C
  C80      1.0000 0.08520  0.98900  0.34686  Biso   1.000  C
  C81      1.0000 0.03980  0.99010  0.37969  Biso   1.000  C
  H55      1.0000 0.01350  0.94660  0.38640  Biso   1.000  H
  C82      1.0000 0.03060  0.05220  0.40358  Biso   1.000  C
  H56      1.0000 0.99660  0.05100  0.42510  Biso   1.000  H
  C83      1.0000 0.07170  0.11760  0.39594  Biso   1.000  C
  C84      1.0000 0.12220  0.11720  0.36322  Biso   1.000  C
  H57      1.0000 0.15120  0.15940  0.35740  Biso   1.000  H
  C85      1.0000 0.12810  0.05400  0.33996  Biso   1.000  C
  H58      1.0000 0.16220  0.05400  0.31850  Biso   1.000  H
  C86      1.0000 0.06440  0.18490  0.42105  Biso   1.000  C
  C87      1.0000 0.04580  0.18290  0.46329  Biso   1.000  C
  H59      1.0000 0.04080  0.13710  0.47670  Biso   1.000  H
  C88      1.0000 0.95880  0.20210  0.54060  Biso   1.000  C
  H60      1.0000 0.92930  0.17630  0.52180  Biso   1.000  H
  C89      1.0000 0.93780  0.20220  0.58200  Biso   1.000  C
  H61      1.0000 0.89390  0.17730  0.58950  Biso   1.000  H
  C90      1.0000 0.04550  0.20680  0.55450  Biso   1.000  C
  C91      1.0000 0.02580  0.20830  0.59630  Biso   1.000  C
  H62      1.0000 0.08960  0.18220  0.54710  Biso   1.000  H
  H63      1.0000 0.05450  0.18200  0.61530  Biso   1.000  H
  O15      1.0000 0.36951  0.57354  0.28842  Biso   1.000  O
  O16      1.0000 0.44140  0.63700  0.33323  Biso   1.000  O
  C92      1.0000 0.40770  0.57800  0.32061  Biso   1.000  C
  C93      1.0000 0.41480  0.51100  0.34686  Biso   1.000  C
  C94      1.0000 0.46020  0.50990  0.37969  Biso   1.000  C
  H64      1.0000 0.48650  0.55340  0.38640  Biso   1.000  H
  C95      1.0000 0.46940  0.44780  0.40358  Biso   1.000  C
  H65      1.0000 0.50340  0.44900  0.42510  Biso   1.000  H
  C96      1.0000 0.42830  0.38240  0.39594  Biso   1.000  C
  C97      1.0000 0.37780  0.38280  0.36322  Biso   1.000  C
  H66      1.0000 0.34880  0.34060  0.35740  Biso   1.000  H
  C98      1.0000 0.37190  0.44600  0.33996  Biso   1.000  C
  H67      1.0000 0.33780  0.44600  0.31850  Biso   1.000  H
  C99      1.0000 0.43560  0.31510  0.42105  Biso   1.000  C
  C100     1.0000 0.45420  0.31710  0.46329  Biso   1.000  C
  H68      1.0000 0.45920  0.36290  0.47670  Biso   1.000  H
  C101     1.0000 0.54120  0.29790  0.54060  Biso   1.000  C
  H69      1.0000 0.57070  0.32370  0.52180  Biso   1.000  H
  C102     1.0000 0.56220  0.29780  0.58200  Biso   1.000  C
  H70      1.0000 0.60610  0.32270  0.58950  Biso   1.000  H
  C103     1.0000 0.45450  0.29320  0.55450  Biso   1.000  C
  C104     1.0000 0.47420  0.29170  0.59630  Biso   1.000  C
  H71      1.0000 0.41040  0.31780  0.54710  Biso   1.000  H
  H72      1.0000 0.44550  0.31800  0.61530  Biso   1.000  H
  O17      1.0000 0.57354  0.36951  0.78842  Biso   1.000  O
  O18      1.0000 0.63700  0.44140  0.83323  Biso   1.000  O
  C105     1.0000 0.57800  0.40770  0.82061  Biso   1.000  C
  C106     1.0000 0.51100  0.41480  0.84686  Biso   1.000  C
  C107     1.0000 0.50990  0.46020  0.87969  Biso   1.000  C
  H73      1.0000 0.55340  0.48650  0.88640  Biso   1.000  H
  C108     1.0000 0.44780  0.46940  0.90358  Biso   1.000  C
  H74      1.0000 0.44900  0.50340  0.92510  Biso   1.000  H
  C109     1.0000 0.38240  0.42830  0.89594  Biso   1.000  C
  C110     1.0000 0.38280  0.37780  0.86322  Biso   1.000  C
  H75      1.0000 0.34060  0.34880  0.85740  Biso   1.000  H
  C111     1.0000 0.44600  0.37190  0.83996  Biso   1.000  C
  H76      1.0000 0.44600  0.33780  0.81850  Biso   1.000  H
  C112     1.0000 0.31510  0.43560  0.92105  Biso   1.000  C
  C113     1.0000 0.31710  0.45420  0.96329  Biso   1.000  C
  H77      1.0000 0.36290  0.45920  0.97670  Biso   1.000  H
  C114     1.0000 0.29790  0.54120  0.04060  Biso   1.000  C
  H78      1.0000 0.32370  0.57070  0.02180  Biso   1.000  H
  C115     1.0000 0.29780  0.56220  0.08200  Biso   1.000  C
  H79      1.0000 0.32270  0.60610  0.08950  Biso   1.000  H
  C116     1.0000 0.29320  0.45450  0.05450  Biso   1.000  C
  C117     1.0000 0.29170  0.47420  0.09630  Biso   1.000  C
  H80      1.0000 0.31780  0.41040  0.04710  Biso   1.000  H
  H81      1.0000 0.31800  0.44550  0.11530  Biso   1.000  H
  O19      1.0000 0.92646  0.13049  0.78842  Biso   1.000  O
  O20      1.0000 0.86300  0.05860  0.83323  Biso   1.000  O
  C118     1.0000 0.92200  0.09230  0.82061  Biso   1.000  C
  C119     1.0000 0.98900  0.08520  0.84686  Biso   1.000  C
  C120     1.0000 0.99010  0.03980  0.87969  Biso   1.000  C
  H82      1.0000 0.94660  0.01350  0.88640  Biso   1.000  H
  C121     1.0000 0.05220  0.03060  0.90358  Biso   1.000  C
  H83      1.0000 0.05100  0.99660  0.92510  Biso   1.000  H
  C122     1.0000 0.11760  0.07170  0.89594  Biso   1.000  C
  C123     1.0000 0.11720  0.12220  0.86322  Biso   1.000  C
  H84      1.0000 0.15940  0.15120  0.85740  Biso   1.000  H
  C124     1.0000 0.05400  0.12810  0.83996  Biso   1.000  C
  H85      1.0000 0.05400  0.16220  0.81850  Biso   1.000  H
  C125     1.0000 0.18490  0.06440  0.92105  Biso   1.000  C
  C126     1.0000 0.18290  0.04580  0.96329  Biso   1.000  C
  H86      1.0000 0.13710  0.04080  0.97670  Biso   1.000  H
  C127     1.0000 0.20210  0.95880  0.04060  Biso   1.000  C
  H87      1.0000 0.17630  0.92930  0.02180  Biso   1.000  H
  C128     1.0000 0.20220  0.93780  0.08200  Biso   1.000  C
  H88      1.0000 0.17730  0.89390  0.08950  Biso   1.000  H
  C129     1.0000 0.20680  0.04550  0.05450  Biso   1.000  C
  C130     1.0000 0.20830  0.02580  0.09630  Biso   1.000  C
  H89      1.0000 0.18220  0.08960  0.04710  Biso   1.000  H
  H90      1.0000 0.18200  0.05450  0.11530  Biso   1.000  H
  O21      1.0000 0.13049  0.57354  0.28842  Biso   1.000  O
  O22      1.0000 0.05860  0.63700  0.33323  Biso   1.000  O
  C131     1.0000 0.09230  0.57800  0.32061  Biso   1.000  C
  C132     1.0000 0.08520  0.51100  0.34686  Biso   1.000  C
  C133     1.0000 0.03980  0.50990  0.37969  Biso   1.000  C
  H91      1.0000 0.01350  0.55340  0.38640  Biso   1.000  H
  C134     1.0000 0.03060  0.44780  0.40358  Biso   1.000  C
  H92      1.0000 0.99660  0.44900  0.42510  Biso   1.000  H
  C135     1.0000 0.07170  0.38240  0.39594  Biso   1.000  C
  C136     1.0000 0.12220  0.38280  0.36322  Biso   1.000  C
  H93      1.0000 0.15120  0.34060  0.35740  Biso   1.000  H
  C137     1.0000 0.12810  0.44600  0.33996  Biso   1.000  C
  H94      1.0000 0.16220  0.44600  0.31850  Biso   1.000  H
  C138     1.0000 0.06440  0.31510  0.42105  Biso   1.000  C
  C139     1.0000 0.04580  0.31710  0.46329  Biso   1.000  C
  H95      1.0000 0.04080  0.36290  0.47670  Biso   1.000  H
  C140     1.0000 0.95880  0.29790  0.54060  Biso   1.000  C
  H96      1.0000 0.92930  0.32370  0.52180  Biso   1.000  H
  C141     1.0000 0.93780  0.29780  0.58200  Biso   1.000  C
  H97      1.0000 0.89390  0.32270  0.58950  Biso   1.000  H
  C142     1.0000 0.04550  0.29320  0.55450  Biso   1.000  C
  C143     1.0000 0.02580  0.29170  0.59630  Biso   1.000  C
  H98      1.0000 0.08960  0.31780  0.54710  Biso   1.000  H
  H99      1.0000 0.05450  0.31800  0.61530  Biso   1.000  H
  O23      1.0000 0.36951  0.92646  0.28842  Biso   1.000  O
  O24      1.0000 0.44140  0.86300  0.33323  Biso   1.000  O
  C144     1.0000 0.40770  0.92200  0.32061  Biso   1.000  C
  C145     1.0000 0.41480  0.98900  0.34686  Biso   1.000  C
  C146     1.0000 0.46020  0.99010  0.37969  Biso   1.000  C
  H100     1.0000 0.48650  0.94660  0.38640  Biso   1.000  H
  C147     1.0000 0.46940  0.05220  0.40358  Biso   1.000  C
  H101     1.0000 0.50340  0.05100  0.42510  Biso   1.000  H
  C148     1.0000 0.42830  0.11760  0.39594  Biso   1.000  C
  C149     1.0000 0.37780  0.11720  0.36322  Biso   1.000  C
  H102     1.0000 0.34880  0.15940  0.35740  Biso   1.000  H
  C150     1.0000 0.37190  0.05400  0.33996  Biso   1.000  C
  H103     1.0000 0.33780  0.05400  0.31850  Biso   1.000  H
  C151     1.0000 0.43560  0.18490  0.42105  Biso   1.000  C
  C152     1.0000 0.45420  0.18290  0.46329  Biso   1.000  C
  H104     1.0000 0.45920  0.13710  0.47670  Biso   1.000  H
  C153     1.0000 0.54120  0.20210  0.54060  Biso   1.000  C
  H105     1.0000 0.57070  0.17630  0.52180  Biso   1.000  H
  C154     1.0000 0.56220  0.20220  0.58200  Biso   1.000  C
  H106     1.0000 0.60610  0.17730  0.58950  Biso   1.000  H
  C155     1.0000 0.45450  0.20680  0.55450  Biso   1.000  C
  C156     1.0000 0.47420  0.20830  0.59630  Biso   1.000  C
  H107     1.0000 0.41040  0.18220  0.54710  Biso   1.000  H
  H108     1.0000 0.44550  0.18200  0.61530  Biso   1.000  H
  O25      1.0000 0.42646  0.86951  0.21158  Biso   1.000  O
  O26      1.0000 0.36300  0.94140  0.16677  Biso   1.000  O
  C157     1.0000 0.42200  0.90770  0.17939  Biso   1.000  C
  C158     1.0000 0.48900  0.91480  0.15314  Biso   1.000  C
  C159     1.0000 0.49010  0.96020  0.12031  Biso   1.000  C
  H109     1.0000 0.44660  0.98650  0.11360  Biso   1.000  H
  C160     1.0000 0.55220  0.96940  0.09642  Biso   1.000  C
  H110     1.0000 0.55100  0.00340  0.07490  Biso   1.000  H
  C161     1.0000 0.61760  0.92830  0.10406  Biso   1.000  C
  C162     1.0000 0.61720  0.87780  0.13678  Biso   1.000  C
  H111     1.0000 0.65940  0.84880  0.14260  Biso   1.000  H
  C163     1.0000 0.55400  0.87190  0.16004  Biso   1.000  C
  H112     1.0000 0.55400  0.83780  0.18150  Biso   1.000  H
  C164     1.0000 0.68490  0.93560  0.07895  Biso   1.000  C
  C165     1.0000 0.68290  0.95420  0.03671  Biso   1.000  C
  H113     1.0000 0.63710  0.95920  0.02330  Biso   1.000  H
  C166     1.0000 0.70210  0.04120  0.95940  Biso   1.000  C
  H114     1.0000 0.67630  0.07070  0.97820  Biso   1.000  H
  C167     1.0000 0.70220  0.06220  0.91800  Biso   1.000  C
  H115     1.0000 0.67730  0.10610  0.91050  Biso   1.000  H
  C168     1.0000 0.70680  0.95450  0.94550  Biso   1.000  C
  C169     1.0000 0.70830  0.97420  0.90370  Biso   1.000  C
  H116     1.0000 0.68220  0.91040  0.95290  Biso   1.000  H
  H117     1.0000 0.68200  0.94550  0.88470  Biso   1.000  H
  O27      1.0000 0.07354  0.63049  0.21158  Biso   1.000  O
  O28      1.0000 0.13700  0.55860  0.16677  Biso   1.000  O
  C170     1.0000 0.07800  0.59230  0.17939  Biso   1.000  C
  C171     1.0000 0.01100  0.58520  0.15314  Biso   1.000  C
  C172     1.0000 0.00990  0.53980  0.12031  Biso   1.000  C
  H118     1.0000 0.05340  0.51350  0.11360  Biso   1.000  H
  C173     1.0000 0.94780  0.53060  0.09642  Biso   1.000  C
  H119     1.0000 0.94900  0.49660  0.07490  Biso   1.000  H
  C174     1.0000 0.88240  0.57170  0.10406  Biso   1.000  C
  C175     1.0000 0.88280  0.62220  0.13678  Biso   1.000  C
  H120     1.0000 0.84060  0.65120  0.14260  Biso   1.000  H
  C176     1.0000 0.94600  0.62810  0.16004  Biso   1.000  C
  H121     1.0000 0.94600  0.66220  0.18150  Biso   1.000  H
  C177     1.0000 0.81510  0.56440  0.07895  Biso   1.000  C
  C178     1.0000 0.81710  0.54580  0.03671  Biso   1.000  C
  H122     1.0000 0.86290  0.54080  0.02330  Biso   1.000  H
  C179     1.0000 0.79790  0.45880  0.95940  Biso   1.000  C
  H123     1.0000 0.82370  0.42930  0.97820  Biso   1.000  H
  C180     1.0000 0.79780  0.43780  0.91800  Biso   1.000  C
  H124     1.0000 0.82270  0.39390  0.91050  Biso   1.000  H
  C181     1.0000 0.79320  0.54550  0.94550  Biso   1.000  C
  C182     1.0000 0.79170  0.52580  0.90370  Biso   1.000  C
  H125     1.0000 0.81780  0.58960  0.95290  Biso   1.000  H
  H126     1.0000 0.81800  0.55450  0.88470  Biso   1.000  H
  O29      1.0000 0.86951  0.07354  0.71158  Biso   1.000  O
  O30      1.0000 0.94140  0.13700  0.66677  Biso   1.000  O
  C183     1.0000 0.90770  0.07800  0.67939  Biso   1.000  C
  C184     1.0000 0.91480  0.01100  0.65314  Biso   1.000  C
  C185     1.0000 0.96020  0.00990  0.62031  Biso   1.000  C
  H127     1.0000 0.98650  0.05340  0.61360  Biso   1.000  H
  C186     1.0000 0.96940  0.94780  0.59642  Biso   1.000  C
  H128     1.0000 0.00340  0.94900  0.57490  Biso   1.000  H
  C187     1.0000 0.92830  0.88240  0.60406  Biso   1.000  C
  C188     1.0000 0.87780  0.88280  0.63678  Biso   1.000  C
  H129     1.0000 0.84880  0.84060  0.64260  Biso   1.000  H
  C189     1.0000 0.87190  0.94600  0.66004  Biso   1.000  C
  H130     1.0000 0.83780  0.94600  0.68150  Biso   1.000  H
  C190     1.0000 0.93560  0.81510  0.57895  Biso   1.000  C
  C191     1.0000 0.95420  0.81710  0.53671  Biso   1.000  C
  H131     1.0000 0.95920  0.86290  0.52330  Biso   1.000  H
  C192     1.0000 0.04120  0.79790  0.45940  Biso   1.000  C
  H132     1.0000 0.07070  0.82370  0.47820  Biso   1.000  H
  C193     1.0000 0.06220  0.79780  0.41800  Biso   1.000  C
  H133     1.0000 0.10610  0.82270  0.41050  Biso   1.000  H
  C194     1.0000 0.95450  0.79320  0.44550  Biso   1.000  C
  C195     1.0000 0.97420  0.79170  0.40370  Biso   1.000  C
  H134     1.0000 0.91040  0.81780  0.45290  Biso   1.000  H
  H135     1.0000 0.94550  0.81800  0.38470  Biso   1.000  H
  O31      1.0000 0.63049  0.42646  0.71158  Biso   1.000  O
  O32      1.0000 0.55860  0.36300  0.66677  Biso   1.000  O
  C196     1.0000 0.59230  0.42200  0.67939  Biso   1.000  C
  C197     1.0000 0.58520  0.48900  0.65314  Biso   1.000  C
  C198     1.0000 0.53980  0.49010  0.62031  Biso   1.000  C
  H136     1.0000 0.51350  0.44660  0.61360  Biso   1.000  H
  C199     1.0000 0.53060  0.55220  0.59642  Biso   1.000  C
  H137     1.0000 0.49660  0.55100  0.57490  Biso   1.000  H
  C200     1.0000 0.57170  0.61760  0.60406  Biso   1.000  C
  C201     1.0000 0.62220  0.61720  0.63678  Biso   1.000  C
  H138     1.0000 0.65120  0.65940  0.64260  Biso   1.000  H
  C202     1.0000 0.62810  0.55400  0.66004  Biso   1.000  C
  H139     1.0000 0.66220  0.55400  0.68150  Biso   1.000  H
  C203     1.0000 0.56440  0.68490  0.57895  Biso   1.000  C
  C204     1.0000 0.54580  0.68290  0.53671  Biso   1.000  C
  H140     1.0000 0.54080  0.63710  0.52330  Biso   1.000  H
  C205     1.0000 0.45880  0.70210  0.45940  Biso   1.000  C
  H141     1.0000 0.42930  0.67630  0.47820  Biso   1.000  H
  C206     1.0000 0.43780  0.70220  0.41800  Biso   1.000  C
  H142     1.0000 0.39390  0.67730  0.41050  Biso   1.000  H
  C207     1.0000 0.54550  0.70680  0.44550  Biso   1.000  C
  C208     1.0000 0.52580  0.70830  0.40370  Biso   1.000  C
  H143     1.0000 0.58960  0.68220  0.45290  Biso   1.000  H
  H144     1.0000 0.55450  0.68200  0.38470  Biso   1.000  H
  S1       1.0000 0.25000  0.75000  0.17836  Biso   1.000  S
  S2       1.0000 0.75000  0.25000  0.67836  Biso   1.000  S
  S3       1.0000 0.75000  0.25000  0.82164  Biso   1.000  S
  S4       1.0000 0.25000  0.75000  0.32164  Biso   1.000  S
  Co1      1.0000 0.34092  0.65908  0.25000  Biso   1.000  Co
  Co2      1.0000 0.15908  0.84092  0.25000  Biso   1.000  Co
  Co3      1.0000 0.84092  0.34092  0.75000  Biso   1.000  Co
  Co4      1.0000 0.65908  0.15908  0.75000  Biso   1.000  Co
  Co5      1.0000 0.65908  0.34092  0.75000  Biso   1.000  Co
  Co6      1.0000 0.84092  0.15908  0.75000  Biso   1.000  Co
  Co7      1.0000 0.15908  0.65908  0.25000  Biso   1.000  Co
  Co8      1.0000 0.34092  0.84092  0.25000  Biso   1.000  Co
  Co9      1.0000 0.25000  0.56464  0.17123  Biso   1.000  Co
  O33      1.0000 0.25000  0.59830  0.22933  Biso   1.000  O
  H145     1.0000 0.25000  0.55950  0.24280  Biso   1.000  H
  O34      1.0000 0.25000  0.68250  0.15293  Biso   1.000  O
  Co10     1.0000 0.25000  0.93536  0.17123  Biso   1.000  Co
  O35      1.0000 0.25000  0.90170  0.22933  Biso   1.000  O
  H146     1.0000 0.25000  0.94050  0.24280  Biso   1.000  H
  O36      1.0000 0.25000  0.81750  0.15293  Biso   1.000  O
  Co11     1.0000 0.93536  0.25000  0.67123  Biso   1.000  Co
  O37      1.0000 0.90170  0.25000  0.72933  Biso   1.000  O
  H147     1.0000 0.94050  0.25000  0.74280  Biso   1.000  H
  O38      1.0000 0.81750  0.25000  0.65293  Biso   1.000  O
  Co12     1.0000 0.56464  0.25000  0.67123  Biso   1.000  Co
  O39      1.0000 0.59830  0.25000  0.72933  Biso   1.000  O
  H148     1.0000 0.55950  0.25000  0.74280  Biso   1.000  H
  O40      1.0000 0.68250  0.25000  0.65293  Biso   1.000  O
  Co13     1.0000 0.75000  0.06464  0.82877  Biso   1.000  Co
  O41      1.0000 0.75000  0.09830  0.77067  Biso   1.000  O
  H149     1.0000 0.75000  0.05950  0.75720  Biso   1.000  H
  O42      1.0000 0.75000  0.18250  0.84707  Biso   1.000  O
  Co14     1.0000 0.75000  0.43536  0.82877  Biso   1.000  Co
  O43      1.0000 0.75000  0.40170  0.77067  Biso   1.000  O
  H150     1.0000 0.75000  0.44050  0.75720  Biso   1.000  H
  O44      1.0000 0.75000  0.31750  0.84707  Biso   1.000  O
  Co15     1.0000 0.06464  0.75000  0.32877  Biso   1.000  Co
  O45      1.0000 0.09830  0.75000  0.27067  Biso   1.000  O
  H151     1.0000 0.05950  0.75000  0.25720  Biso   1.000  H
  O46      1.0000 0.18250  0.75000  0.34707  Biso   1.000  O
  Co16     1.0000 0.43536  0.75000  0.32877  Biso   1.000  Co
  O47      1.0000 0.40170  0.75000  0.27067  Biso   1.000  O
  H152     1.0000 0.44050  0.75000  0.25720  Biso   1.000  H
  O48      1.0000 0.31750  0.75000  0.34707  Biso   1.000  O
  O49      1.0000 0.31690  0.75000  0.20580  Biso   1.000  O
  O50      1.0000 0.18310  0.75000  0.20580  Biso   1.000  O
  O51      1.0000 0.75000  0.31690  0.70580  Biso   1.000  O
  O52      1.0000 0.75000  0.18310  0.70580  Biso   1.000  O
  O53      1.0000 0.68310  0.25000  0.79420  Biso   1.000  O
  O54      1.0000 0.81690  0.25000  0.79420  Biso   1.000  O
  O55      1.0000 0.25000  0.81690  0.29420  Biso   1.000  O
  O56      1.0000 0.25000  0.68310  0.29420  Biso   1.000  O
  C209     1.0000 0.75000  0.53540  0.01570  Biso   1.000  C
  C210     1.0000 0.75000  0.51260  0.97280  Biso   1.000  C
  N1       1.0000 0.75000  0.46860  0.89145  Biso   1.000  N
  N2       1.0000 0.75000  0.57340  0.09882  Biso   1.000  N
  C211     1.0000 0.75000  0.96460  0.01570  Biso   1.000  C
  C212     1.0000 0.75000  0.98740  0.97280  Biso   1.000  C
  N3       1.0000 0.75000  0.03140  0.89145  Biso   1.000  N
  N4       1.0000 0.75000  0.92660  0.09882  Biso   1.000  N
  C213     1.0000 0.96460  0.75000  0.51570  Biso   1.000  C
  C214     1.0000 0.98740  0.75000  0.47280  Biso   1.000  C
  N5       1.0000 0.03140  0.75000  0.39145  Biso   1.000  N
  N6       1.0000 0.92660  0.75000  0.59882  Biso   1.000  N
  C215     1.0000 0.53540  0.75000  0.51570  Biso   1.000  C
  C216     1.0000 0.51260  0.75000  0.47280  Biso   1.000  C
  N7       1.0000 0.46860  0.75000  0.39145  Biso   1.000  N
  N8       1.0000 0.57340  0.75000  0.59882  Biso   1.000  N
  C217     1.0000 0.25000  0.03540  0.98430  Biso   1.000  C
  C218     1.0000 0.25000  0.01260  0.02720  Biso   1.000  C
  N9       1.0000 0.25000  0.96860  0.10855  Biso   1.000  N
  N10      1.0000 0.25000  0.07340  0.90118  Biso   1.000  N
  C219     1.0000 0.25000  0.46460  0.98430  Biso   1.000  C
  C220     1.0000 0.25000  0.48740  0.02720  Biso   1.000  C
  N11      1.0000 0.25000  0.53140  0.10855  Biso   1.000  N
  N12      1.0000 0.25000  0.42660  0.90118  Biso   1.000  N
  C221     1.0000 0.03540  0.25000  0.48430  Biso   1.000  C
  C222     1.0000 0.01260  0.25000  0.52720  Biso   1.000  C
  N13      1.0000 0.96860  0.25000  0.60855  Biso   1.000  N
  N14      1.0000 0.07340  0.25000  0.40118  Biso   1.000  N
  C223     1.0000 0.46460  0.25000  0.48430  Biso   1.000  C
  C224     1.0000 0.48740  0.25000  0.52720  Biso   1.000  C
  N15      1.0000 0.53140  0.25000  0.60855  Biso   1.000  N
  N16      1.0000 0.42660  0.25000  0.40118  Biso   1.000  N
