data_image0
_cell_length_a       24.4031
_cell_length_b       17.1178
_cell_length_c       16.0742
_cell_angle_alpha    90
_cell_angle_beta     94.521
_cell_angle_gamma    90

_symmetry_space_group_name_H-M    "P 1"
_symmetry_int_tables_number       1

loop_
  _symmetry_equiv_pos_as_xyz
  'x, y, z'

loop_
  _atom_site_label
  _atom_site_occupancy
  _atom_site_fract_x
  _atom_site_fract_y
  _atom_site_fract_z
  _atom_site_thermal_displace_type
  _atom_site_B_iso_or_equiv
  _atom_site_type_symbol
  Zn1      1.0000 0.43142  0.28480  0.80330  Biso   1.000  Zn
  Zn2      1.0000 0.07741  0.30486  0.20304  Biso   1.000  Zn
  Zn3      1.0000 0.74124  0.34069  0.46968  Biso   1.000  Zn
  N1       1.0000 0.44480  0.30680  0.92640  Biso   1.000  N
  N2       1.0000 0.48330  0.35420  0.04180  Biso   1.000  N
  N3       1.0000 0.62780  0.36020  0.26930  Biso   1.000  N
  N4       1.0000 0.68810  0.32020  0.37240  Biso   1.000  N
  N5       1.0000 0.36360  0.32320  0.73810  Biso   1.000  N
  N6       1.0000 0.30680  0.38010  0.64450  Biso   1.000  N
  N7       1.0000 0.20010  0.38900  0.37230  Biso   1.000  N
  N8       1.0000 0.14400  0.33570  0.27630  Biso   1.000  N
  N9       1.0000 0.78030  0.25450  0.53420  Biso   1.000  N
  N10      1.0000 0.84590  0.17720  0.58250  Biso   1.000  N
  N11      1.0000 0.92270  0.92540  0.51800  Biso   1.000  N
  N12      1.0000 0.91730  0.84360  0.41420  Biso   1.000  N
  O1       1.0000 0.43438  0.17010  0.78580  Biso   1.000  O
  O2       1.0000 0.36151  0.16390  0.85990  Biso   1.000  O
  O3       1.0000 0.53101  0.93320  0.71500  Biso   1.000  O
  O4       1.0000 0.50317  0.81740  0.75380  Biso   1.000  O
  O5       1.0000 0.34670  0.80200  0.93280  Biso   1.000  O
  O6       1.0000 0.29743  0.90750  0.95390  Biso   1.000  O
  O7       1.0000 0.00978  0.34380  0.24850  Biso   1.000  O
  O8       1.0000 0.04426  0.46130  0.23480  Biso   1.000  O
  O9       1.0000 0.82570  0.31400  0.35990  Biso   1.000  O
  O10      1.0000 0.79587  0.41430  0.43020  Biso   1.000  O
  O11      1.0000 0.85554  0.67880  0.35190  Biso   1.000  O
  O12      1.0000 0.93464  0.69180  0.29340  Biso   1.000  O
  C1       1.0000 0.48200  0.35380  0.95850  Biso   1.000  C
  H1       1.0000 0.50490  0.38360  0.92770  Biso   1.000  H
  C2       1.0000 0.41970  0.27610  0.99250  Biso   1.000  C
  H2       1.0000 0.39060  0.24080  0.98870  Biso   1.000  H
  C3       1.0000 0.44410  0.30530  0.06320  Biso   1.000  C
  H3       1.0000 0.43530  0.29390  0.11720  Biso   1.000  H
  C4       1.0000 0.52070  0.40240  0.09740  Biso   1.000  C
  H4       1.0000 0.49930  0.43760  0.12930  Biso   1.000  H
  H5       1.0000 0.54400  0.43360  0.06430  Biso   1.000  H
  C5       1.0000 0.55520  0.35170  0.15520  Biso   1.000  C
  H6       1.0000 0.53080  0.32120  0.18730  Biso   1.000  H
  H7       1.0000 0.57440  0.31520  0.12160  Biso   1.000  H
  C6       1.0000 0.59150  0.38460  0.20750  Biso   1.000  C
  H8       1.0000 0.57030  0.42380  0.23440  Biso   1.000  H
  H9       1.0000 0.61420  0.41370  0.17140  Biso   1.000  H
  C7       1.0000 0.65030  0.37690  0.34760  Biso   1.000  C
  H10      1.0000 0.64140  0.41980  0.37930  Biso   1.000  H
  C8       1.0000 0.70460  0.28790  0.29670  Biso   1.000  C
  H11      1.0000 0.73660  0.25980  0.29020  Biso   1.000  H
  C9       1.0000 0.66330  0.30640  0.23350  Biso   1.000  C
  H12      1.0000 0.66000  0.28720  0.17920  Biso   1.000  H
  C10      1.0000 0.31100  0.30260  0.75080  Biso   1.000  C
  H13      1.0000 0.30110  0.26920  0.79260  Biso   1.000  H
  C11      1.0000 0.35880  0.37080  0.67530  Biso   1.000  C
  H14      1.0000 0.38840  0.39590  0.65380  Biso   1.000  H
  C12      1.0000 0.27560  0.33750  0.69420  Biso   1.000  C
  H15      1.0000 0.23740  0.33330  0.69000  Biso   1.000  H
  C13      1.0000 0.28510  0.42960  0.57470  Biso   1.000  C
  H16      1.0000 0.31530  0.45680  0.55160  Biso   1.000  H
  H17      1.0000 0.26060  0.46850  0.59520  Biso   1.000  H
  C14      1.0000 0.25440  0.38180  0.50690  Biso   1.000  C
  H18      1.0000 0.28050  0.35210  0.47710  Biso   1.000  H
  H19      1.0000 0.23030  0.34510  0.53210  Biso   1.000  H
  C15      1.0000 0.22090  0.43320  0.44630  Biso   1.000  C
  H20      1.0000 0.19010  0.45490  0.47350  Biso   1.000  H
  H21      1.0000 0.24340  0.47630  0.42950  Biso   1.000  H
  C16      1.0000 0.23080  0.36240  0.31320  Biso   1.000  C
  H22      1.0000 0.26880  0.36700  0.31260  Biso   1.000  H
  C17      1.0000 0.19650  0.32750  0.25440  Biso   1.000  C
  H23      1.0000 0.20700  0.30230  0.20700  Biso   1.000  H
  C18      1.0000 0.14880  0.37440  0.34530  Biso   1.000  C
  H24      1.0000 0.11880  0.39060  0.37320  Biso   1.000  H
  C19      1.0000 0.82570  0.21990  0.51960  Biso   1.000  C
  H25      1.0000 0.84230  0.22490  0.46980  Biso   1.000  H
  C20      1.0000 0.77580  0.23910  0.61520  Biso   1.000  C
  H26      1.0000 0.74900  0.25960  0.64690  Biso   1.000  H
  C21      1.0000 0.81570  0.18970  0.64400  Biso   1.000  C
  H27      1.0000 0.82070  0.16870  0.69740  Biso   1.000  H
  C22      1.0000 0.89670  0.13040  0.58660  Biso   1.000  C
  H28      1.0000 0.91620  0.13590  0.64120  Biso   1.000  H
  H29      1.0000 0.92040  0.14870  0.54510  Biso   1.000  H
  C23      1.0000 0.88160  0.04130  0.57000  Biso   1.000  C
  H30      1.0000 0.86270  0.02030  0.61600  Biso   1.000  H
  H31      1.0000 0.85760  0.03620  0.51920  Biso   1.000  H
  C24      1.0000 0.93380  0.99890  0.56190  Biso   1.000  C
  H32      1.0000 0.95820  0.03070  0.53140  Biso   1.000  H
  H33      1.0000 0.95160  0.98860  0.61690  Biso   1.000  H
  C25      1.0000 0.91530  0.85500  0.55080  Biso   1.000  C
  H34      1.0000 0.91250  0.84350  0.60690  Biso   1.000  H
  C26      1.0000 0.91260  0.80370  0.48660  Biso   1.000  C
  H35      1.0000 0.90820  0.74990  0.49110  Biso   1.000  H
  C27      1.0000 0.92390  0.91480  0.43630  Biso   1.000  C
  H36      1.0000 0.92900  0.95510  0.39900  Biso   1.000  H
  C28      1.0000 0.39870  0.13310  0.82300  Biso   1.000  C
  C29      1.0000 0.40350  0.04520  0.82340  Biso   1.000  C
  C30      1.0000 0.44490  0.00850  0.78580  Biso   1.000  C
  H37      1.0000 0.46940  0.03840  0.75770  Biso   1.000  H
  C31      1.0000 0.45120  0.92850  0.78830  Biso   1.000  C
  C32      1.0000 0.49890  0.89210  0.74930  Biso   1.000  C
  C33      1.0000 0.41530  0.88450  0.83090  Biso   1.000  C
  H38      1.0000 0.41920  0.83050  0.83310  Biso   1.000  H
  C34      1.0000 0.37300  0.92040  0.87090  Biso   1.000  C
  C35      1.0000 0.33690  0.87140  0.92230  Biso   1.000  C
  C36      1.0000 0.36730  0.00070  0.86550  Biso   1.000  C
  H39      1.0000 0.33870  0.02500  0.89050  Biso   1.000  H
  C37      1.0000 0.00760  0.41680  0.25420  Biso   1.000  C
  C38      1.0000 0.95640  0.45080  0.28750  Biso   1.000  C
  C39      1.0000 0.91620  0.40360  0.31500  Biso   1.000  C
  H40      1.0000 0.91980  0.34960  0.31200  Biso   1.000  H
  C40      1.0000 0.87020  0.43560  0.34730  Biso   1.000  C
  C41      1.0000 0.82770  0.38290  0.38010  Biso   1.000  C
  C42      1.0000 0.86490  0.51620  0.34990  Biso   1.000  C
  H41      1.0000 0.83440  0.53790  0.37240  Biso   1.000  H
  C43      1.0000 0.90370  0.56500  0.31990  Biso   1.000  C
  C44      1.0000 0.95050  0.53150  0.28890  Biso   1.000  C
  H42      1.0000 0.97750  0.56330  0.26930  Biso   1.000  H
  C45      1.0000 0.89660  0.65180  0.32250  Biso   1.000  C
  C46      1.0000 0.67960  0.37010  0.30770  Biso   1.000  C
  H43      1.0000 0.70520  0.40600  0.29140  Biso   1.000  H
  C47      1.0000 0.63930  0.27520  0.38090  Biso   1.000  C
  H44      1.0000 0.63320  0.23890  0.42220  Biso   1.000  H
  C48      1.0000 0.60260  0.29790  0.31320  Biso   1.000  C
  H45      1.0000 0.56810  0.27650  0.29930  Biso   1.000  H
  Zn4      1.0000 0.56858  0.78480  0.69670  Biso   1.000  Zn
  Zn5      1.0000 0.92259  0.80486  0.29696  Biso   1.000  Zn
  Zn6      1.0000 0.25876  0.84069  0.03032  Biso   1.000  Zn
  N13      1.0000 0.55520  0.80680  0.57360  Biso   1.000  N
  N14      1.0000 0.51670  0.85420  0.45820  Biso   1.000  N
  N15      1.0000 0.37220  0.86020  0.23070  Biso   1.000  N
  N16      1.0000 0.31190  0.82020  0.12760  Biso   1.000  N
  N17      1.0000 0.63640  0.82320  0.76190  Biso   1.000  N
  N18      1.0000 0.69320  0.88010  0.85550  Biso   1.000  N
  N19      1.0000 0.79990  0.88900  0.12770  Biso   1.000  N
  N20      1.0000 0.85600  0.83570  0.22370  Biso   1.000  N
  N21      1.0000 0.21970  0.75450  0.96580  Biso   1.000  N
  N22      1.0000 0.15410  0.67720  0.91750  Biso   1.000  N
  N23      1.0000 0.07730  0.42540  0.98200  Biso   1.000  N
  N24      1.0000 0.08270  0.34360  0.08580  Biso   1.000  N
  O13      1.0000 0.56562  0.67010  0.71420  Biso   1.000  O
  O14      1.0000 0.63849  0.66390  0.64010  Biso   1.000  O
  O15      1.0000 0.46899  0.43320  0.78500  Biso   1.000  O
  O16      1.0000 0.49683  0.31740  0.74620  Biso   1.000  O
  O17      1.0000 0.65330  0.30200  0.56720  Biso   1.000  O
  O18      1.0000 0.70257  0.40750  0.54610  Biso   1.000  O
  O19      1.0000 0.99022  0.84380  0.25150  Biso   1.000  O
  O20      1.0000 0.95574  0.96130  0.26520  Biso   1.000  O
  O21      1.0000 0.17430  0.81400  0.14010  Biso   1.000  O
  O22      1.0000 0.20413  0.91430  0.06980  Biso   1.000  O
  O23      1.0000 0.14446  0.17880  0.14810  Biso   1.000  O
  O24      1.0000 0.06536  0.19180  0.20660  Biso   1.000  O
  C49      1.0000 0.51800  0.85380  0.54150  Biso   1.000  C
  H46      1.0000 0.49510  0.88360  0.57230  Biso   1.000  H
  C50      1.0000 0.58030  0.77610  0.50750  Biso   1.000  C
  H47      1.0000 0.60940  0.74080  0.51130  Biso   1.000  H
  C51      1.0000 0.55590  0.80530  0.43680  Biso   1.000  C
  H48      1.0000 0.56470  0.79390  0.38280  Biso   1.000  H
  C52      1.0000 0.47930  0.90240  0.40260  Biso   1.000  C
  H49      1.0000 0.50070  0.93760  0.37070  Biso   1.000  H
  H50      1.0000 0.45600  0.93360  0.43570  Biso   1.000  H
  C53      1.0000 0.44480  0.85170  0.34480  Biso   1.000  C
  H51      1.0000 0.46920  0.82120  0.31270  Biso   1.000  H
  H52      1.0000 0.42560  0.81520  0.37840  Biso   1.000  H
  C54      1.0000 0.40850  0.88460  0.29250  Biso   1.000  C
  H53      1.0000 0.42970  0.92380  0.26560  Biso   1.000  H
  H54      1.0000 0.38580  0.91370  0.32860  Biso   1.000  H
  C55      1.0000 0.34970  0.87690  0.15240  Biso   1.000  C
  H55      1.0000 0.35860  0.91980  0.12070  Biso   1.000  H
  C56      1.0000 0.29540  0.78790  0.20330  Biso   1.000  C
  H56      1.0000 0.26340  0.75980  0.20980  Biso   1.000  H
  C57      1.0000 0.33670  0.80640  0.26650  Biso   1.000  C
  H57      1.0000 0.34000  0.78720  0.32080  Biso   1.000  H
  C58      1.0000 0.68900  0.80260  0.74920  Biso   1.000  C
  H58      1.0000 0.69890  0.76920  0.70740  Biso   1.000  H
  C59      1.0000 0.64120  0.87080  0.82470  Biso   1.000  C
  H59      1.0000 0.61160  0.89590  0.84620  Biso   1.000  H
  C60      1.0000 0.72440  0.83750  0.80580  Biso   1.000  C
  H60      1.0000 0.76260  0.83330  0.81000  Biso   1.000  H
  C61      1.0000 0.71490  0.92960  0.92530  Biso   1.000  C
  H61      1.0000 0.68470  0.95680  0.94840  Biso   1.000  H
  H62      1.0000 0.73940  0.96850  0.90480  Biso   1.000  H
  C62      1.0000 0.74560  0.88180  0.99310  Biso   1.000  C
  H63      1.0000 0.71950  0.85210  0.02290  Biso   1.000  H
  H64      1.0000 0.76970  0.84510  0.96790  Biso   1.000  H
  C63      1.0000 0.77910  0.93320  0.05370  Biso   1.000  C
  H65      1.0000 0.80990  0.95490  0.02650  Biso   1.000  H
  H66      1.0000 0.75660  0.97630  0.07050  Biso   1.000  H
  C64      1.0000 0.76920  0.86240  0.18680  Biso   1.000  C
  H67      1.0000 0.73120  0.86700  0.18740  Biso   1.000  H
  C65      1.0000 0.80350  0.82750  0.24560  Biso   1.000  C
  H68      1.0000 0.79300  0.80230  0.29300  Biso   1.000  H
  C66      1.0000 0.85120  0.87440  0.15470  Biso   1.000  C
  H69      1.0000 0.88120  0.89060  0.12680  Biso   1.000  H
  C67      1.0000 0.17430  0.71990  0.98040  Biso   1.000  C
  H70      1.0000 0.15770  0.72490  0.03020  Biso   1.000  H
  C68      1.0000 0.22420  0.73910  0.88480  Biso   1.000  C
  H71      1.0000 0.25100  0.75960  0.85310  Biso   1.000  H
  C69      1.0000 0.18430  0.68970  0.85600  Biso   1.000  C
  H72      1.0000 0.17930  0.66870  0.80260  Biso   1.000  H
  C70      1.0000 0.10330  0.63040  0.91340  Biso   1.000  C
  H73      1.0000 0.08380  0.63590  0.85880  Biso   1.000  H
  H74      1.0000 0.07960  0.64870  0.95490  Biso   1.000  H
  C71      1.0000 0.11840  0.54130  0.93000  Biso   1.000  C
  H75      1.0000 0.13730  0.52030  0.88400  Biso   1.000  H
  H76      1.0000 0.14240  0.53620  0.98080  Biso   1.000  H
  C72      1.0000 0.06620  0.49890  0.93810  Biso   1.000  C
  H77      1.0000 0.04180  0.53070  0.96860  Biso   1.000  H
  H78      1.0000 0.04840  0.48860  0.88310  Biso   1.000  H
  C73      1.0000 0.08470  0.35500  0.94920  Biso   1.000  C
  H79      1.0000 0.08750  0.34350  0.89310  Biso   1.000  H
  C74      1.0000 0.08740  0.30370  0.01340  Biso   1.000  C
  H80      1.0000 0.09180  0.24990  0.00890  Biso   1.000  H
  C75      1.0000 0.07610  0.41480  0.06370  Biso   1.000  C
  H81      1.0000 0.07100  0.45510  0.10100  Biso   1.000  H
  C76      1.0000 0.60130  0.63310  0.67700  Biso   1.000  C
  C77      1.0000 0.59650  0.54520  0.67660  Biso   1.000  C
  C78      1.0000 0.55510  0.50850  0.71420  Biso   1.000  C
  H82      1.0000 0.53060  0.53840  0.74230  Biso   1.000  H
  C79      1.0000 0.54880  0.42850  0.71170  Biso   1.000  C
  C80      1.0000 0.50110  0.39210  0.75070  Biso   1.000  C
  C81      1.0000 0.58470  0.38450  0.66910  Biso   1.000  C
  H83      1.0000 0.58080  0.33050  0.66690  Biso   1.000  H
  C82      1.0000 0.62700  0.42040  0.62910  Biso   1.000  C
  C83      1.0000 0.66310  0.37140  0.57770  Biso   1.000  C
  C84      1.0000 0.63270  0.50070  0.63450  Biso   1.000  C
  H84      1.0000 0.66130  0.52500  0.60950  Biso   1.000  H
  C85      1.0000 0.99240  0.91680  0.24580  Biso   1.000  C
  C86      1.0000 0.04360  0.95080  0.21250  Biso   1.000  C
  C87      1.0000 0.08380  0.90360  0.18500  Biso   1.000  C
  H85      1.0000 0.08020  0.84960  0.18800  Biso   1.000  H
  C88      1.0000 0.12980  0.93560  0.15270  Biso   1.000  C
  C89      1.0000 0.17230  0.88290  0.11990  Biso   1.000  C
  C90      1.0000 0.13510  0.01620  0.15010  Biso   1.000  C
  H86      1.0000 0.16560  0.03790  0.12760  Biso   1.000  H
  C91      1.0000 0.09630  0.06500  0.18010  Biso   1.000  C
  C92      1.0000 0.04950  0.03150  0.21110  Biso   1.000  C
  H87      1.0000 0.02250  0.06330  0.23070  Biso   1.000  H
  C93      1.0000 0.10340  0.15180  0.17750  Biso   1.000  C
  C94      1.0000 0.32040  0.87010  0.19230  Biso   1.000  C
  H88      1.0000 0.29480  0.90600  0.20860  Biso   1.000  H
  C95      1.0000 0.36070  0.77520  0.11910  Biso   1.000  C
  H89      1.0000 0.36680  0.73890  0.07780  Biso   1.000  H
  C96      1.0000 0.39740  0.79790  0.18680  Biso   1.000  C
  H90      1.0000 0.43190  0.77650  0.20070  Biso   1.000  H
  Zn7      1.0000 0.56858  0.71520  0.19670  Biso   1.000  Zn
  Zn8      1.0000 0.92259  0.69514  0.79696  Biso   1.000  Zn
  Zn9      1.0000 0.25876  0.65931  0.53032  Biso   1.000  Zn
  N25      1.0000 0.55520  0.69320  0.07360  Biso   1.000  N
  N26      1.0000 0.51670  0.64580  0.95820  Biso   1.000  N
  N27      1.0000 0.37220  0.63980  0.73070  Biso   1.000  N
  N28      1.0000 0.31190  0.67980  0.62760  Biso   1.000  N
  N29      1.0000 0.63640  0.67680  0.26190  Biso   1.000  N
  N30      1.0000 0.69320  0.61990  0.35550  Biso   1.000  N
  N31      1.0000 0.79990  0.61100  0.62770  Biso   1.000  N
  N32      1.0000 0.85600  0.66430  0.72370  Biso   1.000  N
  N33      1.0000 0.21970  0.74550  0.46580  Biso   1.000  N
  N34      1.0000 0.15410  0.82280  0.41750  Biso   1.000  N
  N35      1.0000 0.07730  0.07460  0.48200  Biso   1.000  N
  N36      1.0000 0.08270  0.15640  0.58580  Biso   1.000  N
  O25      1.0000 0.56562  0.82990  0.21420  Biso   1.000  O
  O26      1.0000 0.63849  0.83610  0.14010  Biso   1.000  O
  O27      1.0000 0.46899  0.06680  0.28500  Biso   1.000  O
  O28      1.0000 0.49683  0.18260  0.24620  Biso   1.000  O
  O29      1.0000 0.65330  0.19800  0.06720  Biso   1.000  O
  O30      1.0000 0.70257  0.09250  0.04610  Biso   1.000  O
  O31      1.0000 0.99022  0.65620  0.75150  Biso   1.000  O
  O32      1.0000 0.95574  0.53870  0.76520  Biso   1.000  O
  O33      1.0000 0.17430  0.68600  0.64010  Biso   1.000  O
  O34      1.0000 0.20413  0.58570  0.56980  Biso   1.000  O
  O35      1.0000 0.14446  0.32120  0.64810  Biso   1.000  O
  O36      1.0000 0.06536  0.30820  0.70660  Biso   1.000  O
  C97      1.0000 0.51800  0.64620  0.04150  Biso   1.000  C
  H91      1.0000 0.49510  0.61640  0.07230  Biso   1.000  H
  C98      1.0000 0.58030  0.72390  0.00750  Biso   1.000  C
  H92      1.0000 0.60940  0.75920  0.01130  Biso   1.000  H
  C99      1.0000 0.55590  0.69470  0.93680  Biso   1.000  C
  H93      1.0000 0.56470  0.70610  0.88280  Biso   1.000  H
  C100     1.0000 0.47930  0.59760  0.90260  Biso   1.000  C
  H94      1.0000 0.50070  0.56240  0.87070  Biso   1.000  H
  H95      1.0000 0.45600  0.56640  0.93570  Biso   1.000  H
  C101     1.0000 0.44480  0.64830  0.84480  Biso   1.000  C
  H96      1.0000 0.46920  0.67880  0.81270  Biso   1.000  H
  H97      1.0000 0.42560  0.68480  0.87840  Biso   1.000  H
  C102     1.0000 0.40850  0.61540  0.79250  Biso   1.000  C
  H98      1.0000 0.42970  0.57620  0.76560  Biso   1.000  H
  H99      1.0000 0.38580  0.58630  0.82860  Biso   1.000  H
  C103     1.0000 0.34970  0.62310  0.65240  Biso   1.000  C
  H100     1.0000 0.35860  0.58020  0.62070  Biso   1.000  H
  C104     1.0000 0.29540  0.71210  0.70330  Biso   1.000  C
  H101     1.0000 0.26340  0.74020  0.70980  Biso   1.000  H
  C105     1.0000 0.33670  0.69360  0.76650  Biso   1.000  C
  H102     1.0000 0.34000  0.71280  0.82080  Biso   1.000  H
  C106     1.0000 0.68900  0.69740  0.24920  Biso   1.000  C
  H103     1.0000 0.69890  0.73080  0.20740  Biso   1.000  H
  C107     1.0000 0.64120  0.62920  0.32470  Biso   1.000  C
  H104     1.0000 0.61160  0.60410  0.34620  Biso   1.000  H
  C108     1.0000 0.72440  0.66250  0.30580  Biso   1.000  C
  H105     1.0000 0.76260  0.66670  0.31000  Biso   1.000  H
  C109     1.0000 0.71490  0.57040  0.42530  Biso   1.000  C
  H106     1.0000 0.68470  0.54320  0.44840  Biso   1.000  H
  H107     1.0000 0.73940  0.53150  0.40480  Biso   1.000  H
  C110     1.0000 0.74560  0.61820  0.49310  Biso   1.000  C
  H108     1.0000 0.71950  0.64790  0.52290  Biso   1.000  H
  H109     1.0000 0.76970  0.65490  0.46790  Biso   1.000  H
  C111     1.0000 0.77910  0.56680  0.55370  Biso   1.000  C
  H110     1.0000 0.80990  0.54510  0.52650  Biso   1.000  H
  H111     1.0000 0.75660  0.52370  0.57050  Biso   1.000  H
  C112     1.0000 0.76920  0.63760  0.68680  Biso   1.000  C
  H112     1.0000 0.73120  0.63300  0.68740  Biso   1.000  H
  C113     1.0000 0.80350  0.67250  0.74560  Biso   1.000  C
  H113     1.0000 0.79300  0.69770  0.79300  Biso   1.000  H
  C114     1.0000 0.85120  0.62560  0.65470  Biso   1.000  C
  H114     1.0000 0.88120  0.60940  0.62680  Biso   1.000  H
  C115     1.0000 0.17430  0.78010  0.48040  Biso   1.000  C
  H115     1.0000 0.15770  0.77510  0.53020  Biso   1.000  H
  C116     1.0000 0.22420  0.76090  0.38480  Biso   1.000  C
  H116     1.0000 0.25100  0.74040  0.35310  Biso   1.000  H
  C117     1.0000 0.18430  0.81030  0.35600  Biso   1.000  C
  H117     1.0000 0.17930  0.83130  0.30260  Biso   1.000  H
  C118     1.0000 0.10330  0.86960  0.41340  Biso   1.000  C
  H118     1.0000 0.08380  0.86410  0.35880  Biso   1.000  H
  H119     1.0000 0.07960  0.85130  0.45490  Biso   1.000  H
  C119     1.0000 0.11840  0.95870  0.43000  Biso   1.000  C
  H120     1.0000 0.13730  0.97970  0.38400  Biso   1.000  H
  H121     1.0000 0.14240  0.96380  0.48080  Biso   1.000  H
  C120     1.0000 0.06620  0.00110  0.43810  Biso   1.000  C
  H122     1.0000 0.04180  0.96930  0.46860  Biso   1.000  H
  H123     1.0000 0.04840  0.01140  0.38310  Biso   1.000  H
  C121     1.0000 0.08470  0.14500  0.44920  Biso   1.000  C
  H124     1.0000 0.08750  0.15650  0.39310  Biso   1.000  H
  C122     1.0000 0.08740  0.19630  0.51340  Biso   1.000  C
  H125     1.0000 0.09180  0.25010  0.50890  Biso   1.000  H
  C123     1.0000 0.07610  0.08520  0.56370  Biso   1.000  C
  H126     1.0000 0.07100  0.04490  0.60100  Biso   1.000  H
  C124     1.0000 0.60130  0.86690  0.17700  Biso   1.000  C
  C125     1.0000 0.59650  0.95480  0.17660  Biso   1.000  C
  C126     1.0000 0.55510  0.99150  0.21420  Biso   1.000  C
  H127     1.0000 0.53060  0.96160  0.24230  Biso   1.000  H
  C127     1.0000 0.54880  0.07150  0.21170  Biso   1.000  C
  C128     1.0000 0.50110  0.10790  0.25070  Biso   1.000  C
  C129     1.0000 0.58470  0.11550  0.16910  Biso   1.000  C
  H128     1.0000 0.58080  0.16950  0.16690  Biso   1.000  H
  C130     1.0000 0.62700  0.07960  0.12910  Biso   1.000  C
  C131     1.0000 0.66310  0.12860  0.07770  Biso   1.000  C
  C132     1.0000 0.63270  0.99930  0.13450  Biso   1.000  C
  H129     1.0000 0.66130  0.97500  0.10950  Biso   1.000  H
  C133     1.0000 0.99240  0.58320  0.74580  Biso   1.000  C
  C134     1.0000 0.04360  0.54920  0.71250  Biso   1.000  C
  C135     1.0000 0.08380  0.59640  0.68500  Biso   1.000  C
  H130     1.0000 0.08020  0.65040  0.68800  Biso   1.000  H
  C136     1.0000 0.12980  0.56440  0.65270  Biso   1.000  C
  C137     1.0000 0.17230  0.61710  0.61990  Biso   1.000  C
  C138     1.0000 0.13510  0.48380  0.65010  Biso   1.000  C
  H131     1.0000 0.16560  0.46210  0.62760  Biso   1.000  H
  C139     1.0000 0.09630  0.43500  0.68010  Biso   1.000  C
  C140     1.0000 0.04950  0.46850  0.71110  Biso   1.000  C
  H132     1.0000 0.02250  0.43670  0.73070  Biso   1.000  H
  C141     1.0000 0.10340  0.34820  0.67750  Biso   1.000  C
  C142     1.0000 0.32040  0.62990  0.69230  Biso   1.000  C
  H133     1.0000 0.29480  0.59400  0.70860  Biso   1.000  H
  C143     1.0000 0.36070  0.72480  0.61910  Biso   1.000  C
  H134     1.0000 0.36680  0.76110  0.57780  Biso   1.000  H
  C144     1.0000 0.39740  0.70210  0.68680  Biso   1.000  C
  H135     1.0000 0.43190  0.72350  0.70070  Biso   1.000  H
  Zn10     1.0000 0.43142  0.21520  0.30330  Biso   1.000  Zn
  Zn11     1.0000 0.07741  0.19514  0.70304  Biso   1.000  Zn
  Zn12     1.0000 0.74124  0.15931  0.96968  Biso   1.000  Zn
  N37      1.0000 0.44480  0.19320  0.42640  Biso   1.000  N
  N38      1.0000 0.48330  0.14580  0.54180  Biso   1.000  N
  N39      1.0000 0.62780  0.13980  0.76930  Biso   1.000  N
  N40      1.0000 0.68810  0.17980  0.87240  Biso   1.000  N
  N41      1.0000 0.36360  0.17680  0.23810  Biso   1.000  N
  N42      1.0000 0.30680  0.11990  0.14450  Biso   1.000  N
  N43      1.0000 0.20010  0.11100  0.87230  Biso   1.000  N
  N44      1.0000 0.14400  0.16430  0.77630  Biso   1.000  N
  N45      1.0000 0.78030  0.24550  0.03420  Biso   1.000  N
  N46      1.0000 0.84590  0.32280  0.08250  Biso   1.000  N
  N47      1.0000 0.92270  0.57460  0.01800  Biso   1.000  N
  N48      1.0000 0.91730  0.65640  0.91420  Biso   1.000  N
  O37      1.0000 0.43438  0.32990  0.28580  Biso   1.000  O
  O38      1.0000 0.36151  0.33610  0.35990  Biso   1.000  O
  O39      1.0000 0.53101  0.56680  0.21500  Biso   1.000  O
  O40      1.0000 0.50317  0.68260  0.25380  Biso   1.000  O
  O41      1.0000 0.34670  0.69800  0.43280  Biso   1.000  O
  O42      1.0000 0.29743  0.59250  0.45390  Biso   1.000  O
  O43      1.0000 0.00978  0.15620  0.74850  Biso   1.000  O
  O44      1.0000 0.04426  0.03870  0.73480  Biso   1.000  O
  O45      1.0000 0.82570  0.18600  0.85990  Biso   1.000  O
  O46      1.0000 0.79587  0.08570  0.93020  Biso   1.000  O
  O47      1.0000 0.85554  0.82120  0.85190  Biso   1.000  O
  O48      1.0000 0.93464  0.80820  0.79340  Biso   1.000  O
  C145     1.0000 0.48200  0.14620  0.45850  Biso   1.000  C
  H136     1.0000 0.50490  0.11640  0.42770  Biso   1.000  H
  C146     1.0000 0.41970  0.22390  0.49250  Biso   1.000  C
  H137     1.0000 0.39060  0.25920  0.48870  Biso   1.000  H
  C147     1.0000 0.44410  0.19470  0.56320  Biso   1.000  C
  H138     1.0000 0.43530  0.20610  0.61720  Biso   1.000  H
  C148     1.0000 0.52070  0.09760  0.59740  Biso   1.000  C
  H139     1.0000 0.49930  0.06240  0.62930  Biso   1.000  H
  H140     1.0000 0.54400  0.06640  0.56430  Biso   1.000  H
  C149     1.0000 0.55520  0.14830  0.65520  Biso   1.000  C
  H141     1.0000 0.53080  0.17880  0.68730  Biso   1.000  H
  H142     1.0000 0.57440  0.18480  0.62160  Biso   1.000  H
  C150     1.0000 0.59150  0.11540  0.70750  Biso   1.000  C
  H143     1.0000 0.57030  0.07620  0.73440  Biso   1.000  H
  H144     1.0000 0.61420  0.08630  0.67140  Biso   1.000  H
  C151     1.0000 0.65030  0.12310  0.84760  Biso   1.000  C
  H145     1.0000 0.64140  0.08020  0.87930  Biso   1.000  H
  C152     1.0000 0.70460  0.21210  0.79670  Biso   1.000  C
  H146     1.0000 0.73660  0.24020  0.79020  Biso   1.000  H
  C153     1.0000 0.66330  0.19360  0.73350  Biso   1.000  C
  H147     1.0000 0.66000  0.21280  0.67920  Biso   1.000  H
  C154     1.0000 0.31100  0.19740  0.25080  Biso   1.000  C
  H148     1.0000 0.30110  0.23080  0.29260  Biso   1.000  H
  C155     1.0000 0.35880  0.12920  0.17530  Biso   1.000  C
  H149     1.0000 0.38840  0.10410  0.15380  Biso   1.000  H
  C156     1.0000 0.27560  0.16250  0.19420  Biso   1.000  C
  H150     1.0000 0.23740  0.16670  0.19000  Biso   1.000  H
  C157     1.0000 0.28510  0.07040  0.07470  Biso   1.000  C
  H151     1.0000 0.31530  0.04320  0.05160  Biso   1.000  H
  H152     1.0000 0.26060  0.03150  0.09520  Biso   1.000  H
  C158     1.0000 0.25440  0.11820  0.00690  Biso   1.000  C
  H153     1.0000 0.28050  0.14790  0.97710  Biso   1.000  H
  H154     1.0000 0.23030  0.15490  0.03210  Biso   1.000  H
  C159     1.0000 0.22090  0.06680  0.94630  Biso   1.000  C
  H155     1.0000 0.19010  0.04510  0.97350  Biso   1.000  H
  H156     1.0000 0.24340  0.02370  0.92950  Biso   1.000  H
  C160     1.0000 0.23080  0.13760  0.81320  Biso   1.000  C
  H157     1.0000 0.26880  0.13300  0.81260  Biso   1.000  H
  C161     1.0000 0.19650  0.17250  0.75440  Biso   1.000  C
  H158     1.0000 0.20700  0.19770  0.70700  Biso   1.000  H
  C162     1.0000 0.14880  0.12560  0.84530  Biso   1.000  C
  H159     1.0000 0.11880  0.10940  0.87320  Biso   1.000  H
  C163     1.0000 0.82570  0.28010  0.01960  Biso   1.000  C
  H160     1.0000 0.84230  0.27510  0.96980  Biso   1.000  H
  C164     1.0000 0.77580  0.26090  0.11520  Biso   1.000  C
  H161     1.0000 0.74900  0.24040  0.14690  Biso   1.000  H
  C165     1.0000 0.81570  0.31030  0.14400  Biso   1.000  C
  H162     1.0000 0.82070  0.33130  0.19740  Biso   1.000  H
  C166     1.0000 0.89670  0.36960  0.08660  Biso   1.000  C
  H163     1.0000 0.91620  0.36410  0.14120  Biso   1.000  H
  H164     1.0000 0.92040  0.35130  0.04510  Biso   1.000  H
  C167     1.0000 0.88160  0.45870  0.07000  Biso   1.000  C
  H165     1.0000 0.86270  0.47970  0.11600  Biso   1.000  H
  H166     1.0000 0.85760  0.46380  0.01920  Biso   1.000  H
  C168     1.0000 0.93380  0.50110  0.06190  Biso   1.000  C
  H167     1.0000 0.95820  0.46930  0.03140  Biso   1.000  H
  H168     1.0000 0.95160  0.51140  0.11690  Biso   1.000  H
  C169     1.0000 0.91530  0.64500  0.05080  Biso   1.000  C
  H169     1.0000 0.91250  0.65650  0.10690  Biso   1.000  H
  C170     1.0000 0.91260  0.69630  0.98660  Biso   1.000  C
  H170     1.0000 0.90820  0.75010  0.99110  Biso   1.000  H
  C171     1.0000 0.92390  0.58520  0.93630  Biso   1.000  C
  H171     1.0000 0.92900  0.54490  0.89900  Biso   1.000  H
  C172     1.0000 0.39870  0.36690  0.32300  Biso   1.000  C
  C173     1.0000 0.40350  0.45480  0.32340  Biso   1.000  C
  C174     1.0000 0.44490  0.49150  0.28580  Biso   1.000  C
  H172     1.0000 0.46940  0.46160  0.25770  Biso   1.000  H
  C175     1.0000 0.45120  0.57150  0.28830  Biso   1.000  C
  C176     1.0000 0.49890  0.60790  0.24930  Biso   1.000  C
  C177     1.0000 0.41530  0.61550  0.33090  Biso   1.000  C
  H173     1.0000 0.41920  0.66950  0.33310  Biso   1.000  H
  C178     1.0000 0.37300  0.57960  0.37090  Biso   1.000  C
  C179     1.0000 0.33690  0.62860  0.42230  Biso   1.000  C
  C180     1.0000 0.36730  0.49930  0.36550  Biso   1.000  C
  H174     1.0000 0.33870  0.47500  0.39050  Biso   1.000  H
  C181     1.0000 0.00760  0.08320  0.75420  Biso   1.000  C
  C182     1.0000 0.95640  0.04920  0.78750  Biso   1.000  C
  C183     1.0000 0.91620  0.09640  0.81500  Biso   1.000  C
  H175     1.0000 0.91980  0.15040  0.81200  Biso   1.000  H
  C184     1.0000 0.87020  0.06440  0.84730  Biso   1.000  C
  C185     1.0000 0.82770  0.11710  0.88010  Biso   1.000  C
  C186     1.0000 0.86490  0.98380  0.84990  Biso   1.000  C
  H176     1.0000 0.83440  0.96210  0.87240  Biso   1.000  H
  C187     1.0000 0.90370  0.93500  0.81990  Biso   1.000  C
  C188     1.0000 0.95050  0.96850  0.78890  Biso   1.000  C
  H177     1.0000 0.97750  0.93670  0.76930  Biso   1.000  H
  C189     1.0000 0.89660  0.84820  0.82250  Biso   1.000  C
  C190     1.0000 0.67960  0.12990  0.80770  Biso   1.000  C
  H178     1.0000 0.70520  0.09400  0.79140  Biso   1.000  H
  C191     1.0000 0.63930  0.22480  0.88090  Biso   1.000  C
  H179     1.0000 0.63320  0.26110  0.92220  Biso   1.000  H
  C192     1.0000 0.60260  0.20210  0.81320  Biso   1.000  C
  H180     1.0000 0.56810  0.22350  0.79930  Biso   1.000  H
