data_image0
_cell_length_a       20.832
_cell_length_b       20.832
_cell_length_c       20.832
_cell_angle_alpha    90
_cell_angle_beta     90
_cell_angle_gamma    90

_symmetry_space_group_name_H-M    "P 1"
_symmetry_int_tables_number       1

loop_
  _symmetry_equiv_pos_as_xyz
  'x, y, z'

loop_
  _atom_site_label
  _atom_site_occupancy
  _atom_site_fract_x
  _atom_site_fract_y
  _atom_site_fract_z
  _atom_site_thermal_displace_type
  _atom_site_B_iso_or_equiv
  _atom_site_type_symbol
  Cl1      1.0000 0.05330  0.39878  0.05759  Biso   1.000  Cl
  N1       1.0000 0.19530  0.17640  0.02790  Biso   1.000  N
  N2       1.0000 0.17550  0.19700  0.97100  Biso   1.000  N
  N3       1.0000 0.15800  0.19740  0.07360  Biso   1.000  N
  N4       1.0000 0.11140  0.23320  0.04730  Biso   1.000  N
  C1       1.0000 0.12370  0.23230  0.98490  Biso   1.000  C
  C2       1.0000 0.08630  0.26580  0.93530  Biso   1.000  C
  C3       1.0000 0.11750  0.29850  0.88620  Biso   1.000  C
  H1       1.0000 0.16300  0.29980  0.88500  Biso   1.000  H
  C4       1.0000 0.08200  0.32940  0.83890  Biso   1.000  C
  H2       1.0000 0.10320  0.35180  0.80540  Biso   1.000  H
  C5       1.0000 0.01530  0.32760  0.84070  Biso   1.000  C
  C6       1.0000 0.98410  0.29480  0.88980  Biso   1.000  C
  H3       1.0000 0.93850  0.29360  0.89100  Biso   1.000  H
  C7       1.0000 0.01960  0.26390  0.93710  Biso   1.000  C
  H4       1.0000 0.99830  0.24160  0.97060  Biso   1.000  H
  C8       1.0000 0.97700  0.36090  0.78970  Biso   1.000  C
  O1       1.0000 0.91910  0.34710  0.78180  Biso   1.000  O
  N5       1.0000 0.00480  0.40550  0.75260  Biso   1.000  N
  H5       1.0000 0.04870  0.41600  0.75860  Biso   1.000  H
  Cl2      1.0000 0.44670  0.60122  0.55759  Biso   1.000  Cl
  N6       1.0000 0.30470  0.82360  0.52790  Biso   1.000  N
  N7       1.0000 0.32450  0.80300  0.47100  Biso   1.000  N
  N8       1.0000 0.34200  0.80260  0.57360  Biso   1.000  N
  N9       1.0000 0.38860  0.76680  0.54730  Biso   1.000  N
  C9       1.0000 0.37630  0.76770  0.48490  Biso   1.000  C
  C10      1.0000 0.41370  0.73420  0.43530  Biso   1.000  C
  C11      1.0000 0.38250  0.70150  0.38620  Biso   1.000  C
  H6       1.0000 0.33700  0.70020  0.38500  Biso   1.000  H
  C12      1.0000 0.41800  0.67060  0.33890  Biso   1.000  C
  H7       1.0000 0.39680  0.64820  0.30540  Biso   1.000  H
  C13      1.0000 0.48470  0.67240  0.34070  Biso   1.000  C
  C14      1.0000 0.51590  0.70520  0.38980  Biso   1.000  C
  H8       1.0000 0.56150  0.70640  0.39100  Biso   1.000  H
  C15      1.0000 0.48040  0.73610  0.43710  Biso   1.000  C
  H9       1.0000 0.50170  0.75840  0.47060  Biso   1.000  H
  C16      1.0000 0.52300  0.63910  0.28970  Biso   1.000  C
  O2       1.0000 0.58090  0.65290  0.28180  Biso   1.000  O
  N10      1.0000 0.49520  0.59450  0.25260  Biso   1.000  N
  H10      1.0000 0.45130  0.58400  0.25860  Biso   1.000  H
  Cl3      1.0000 0.94670  0.89878  0.44241  Biso   1.000  Cl
  N11      1.0000 0.80470  0.67640  0.47210  Biso   1.000  N
  N12      1.0000 0.82450  0.69700  0.52900  Biso   1.000  N
  N13      1.0000 0.84200  0.69740  0.42640  Biso   1.000  N
  N14      1.0000 0.88860  0.73320  0.45270  Biso   1.000  N
  C17      1.0000 0.87630  0.73230  0.51510  Biso   1.000  C
  C18      1.0000 0.91370  0.76580  0.56470  Biso   1.000  C
  C19      1.0000 0.88250  0.79850  0.61380  Biso   1.000  C
  H11      1.0000 0.83700  0.79980  0.61500  Biso   1.000  H
  C20      1.0000 0.91800  0.82940  0.66110  Biso   1.000  C
  H12      1.0000 0.89680  0.85180  0.69460  Biso   1.000  H
  C21      1.0000 0.98470  0.82760  0.65930  Biso   1.000  C
  C22      1.0000 0.01590  0.79480  0.61020  Biso   1.000  C
  H13      1.0000 0.06150  0.79360  0.60900  Biso   1.000  H
  C23      1.0000 0.98040  0.76390  0.56290  Biso   1.000  C
  H14      1.0000 0.00170  0.74160  0.52940  Biso   1.000  H
  C24      1.0000 0.02300  0.86090  0.71030  Biso   1.000  C
  O3       1.0000 0.08090  0.84710  0.71820  Biso   1.000  O
  N15      1.0000 0.99520  0.90550  0.74740  Biso   1.000  N
  H15      1.0000 0.95130  0.91600  0.74140  Biso   1.000  H
  Cl4      1.0000 0.55330  0.10122  0.94241  Biso   1.000  Cl
  N16      1.0000 0.69530  0.32360  0.97210  Biso   1.000  N
  N17      1.0000 0.67550  0.30300  0.02900  Biso   1.000  N
  N18      1.0000 0.65800  0.30260  0.92640  Biso   1.000  N
  N19      1.0000 0.61140  0.26680  0.95270  Biso   1.000  N
  C25      1.0000 0.62370  0.26770  0.01510  Biso   1.000  C
  C26      1.0000 0.58630  0.23420  0.06470  Biso   1.000  C
  C27      1.0000 0.61750  0.20150  0.11380  Biso   1.000  C
  H16      1.0000 0.66300  0.20020  0.11500  Biso   1.000  H
  C28      1.0000 0.58200  0.17060  0.16110  Biso   1.000  C
  H17      1.0000 0.60320  0.14820  0.19460  Biso   1.000  H
  C29      1.0000 0.51530  0.17240  0.15930  Biso   1.000  C
  C30      1.0000 0.48410  0.20520  0.11020  Biso   1.000  C
  H18      1.0000 0.43850  0.20640  0.10900  Biso   1.000  H
  C31      1.0000 0.51960  0.23610  0.06290  Biso   1.000  C
  H19      1.0000 0.49830  0.25840  0.02940  Biso   1.000  H
  C32      1.0000 0.47700  0.13910  0.21030  Biso   1.000  C
  O4       1.0000 0.41910  0.15290  0.21820  Biso   1.000  O
  N20      1.0000 0.50480  0.09450  0.24740  Biso   1.000  N
  H20      1.0000 0.54870  0.08400  0.24140  Biso   1.000  H
  Cl5      1.0000 0.05759  0.05330  0.39878  Biso   1.000  Cl
  N21      1.0000 0.02790  0.19530  0.17640  Biso   1.000  N
  N22      1.0000 0.97100  0.17550  0.19700  Biso   1.000  N
  N23      1.0000 0.07360  0.15800  0.19740  Biso   1.000  N
  N24      1.0000 0.04730  0.11140  0.23320  Biso   1.000  N
  C33      1.0000 0.98490  0.12370  0.23230  Biso   1.000  C
  C34      1.0000 0.93530  0.08630  0.26580  Biso   1.000  C
  C35      1.0000 0.88620  0.11750  0.29850  Biso   1.000  C
  H21      1.0000 0.88500  0.16300  0.29980  Biso   1.000  H
  C36      1.0000 0.83890  0.08200  0.32940  Biso   1.000  C
  H22      1.0000 0.80540  0.10320  0.35180  Biso   1.000  H
  C37      1.0000 0.84070  0.01530  0.32760  Biso   1.000  C
  C38      1.0000 0.88980  0.98410  0.29480  Biso   1.000  C
  H23      1.0000 0.89100  0.93850  0.29360  Biso   1.000  H
  C39      1.0000 0.93710  0.01960  0.26390  Biso   1.000  C
  H24      1.0000 0.97060  0.99830  0.24160  Biso   1.000  H
  C40      1.0000 0.78970  0.97700  0.36090  Biso   1.000  C
  O5       1.0000 0.78180  0.91910  0.34710  Biso   1.000  O
  N25      1.0000 0.75260  0.00480  0.40550  Biso   1.000  N
  H25      1.0000 0.75860  0.04870  0.41600  Biso   1.000  H
  Cl6      1.0000 0.55759  0.44670  0.60122  Biso   1.000  Cl
  N26      1.0000 0.52790  0.30470  0.82360  Biso   1.000  N
  N27      1.0000 0.47100  0.32450  0.80300  Biso   1.000  N
  N28      1.0000 0.57360  0.34200  0.80260  Biso   1.000  N
  N29      1.0000 0.54730  0.38860  0.76680  Biso   1.000  N
  C41      1.0000 0.48490  0.37630  0.76770  Biso   1.000  C
  C42      1.0000 0.43530  0.41370  0.73420  Biso   1.000  C
  C43      1.0000 0.38620  0.38250  0.70150  Biso   1.000  C
  H26      1.0000 0.38500  0.33700  0.70020  Biso   1.000  H
  C44      1.0000 0.33890  0.41800  0.67060  Biso   1.000  C
  H27      1.0000 0.30540  0.39680  0.64820  Biso   1.000  H
  C45      1.0000 0.34070  0.48470  0.67240  Biso   1.000  C
  C46      1.0000 0.38980  0.51590  0.70520  Biso   1.000  C
  H28      1.0000 0.39100  0.56150  0.70640  Biso   1.000  H
  C47      1.0000 0.43710  0.48040  0.73610  Biso   1.000  C
  H29      1.0000 0.47060  0.50170  0.75840  Biso   1.000  H
  C48      1.0000 0.28970  0.52300  0.63910  Biso   1.000  C
  O6       1.0000 0.28180  0.58090  0.65290  Biso   1.000  O
  N30      1.0000 0.25260  0.49520  0.59450  Biso   1.000  N
  H30      1.0000 0.25860  0.45130  0.58400  Biso   1.000  H
  Cl7      1.0000 0.44241  0.94670  0.89878  Biso   1.000  Cl
  N31      1.0000 0.47210  0.80470  0.67640  Biso   1.000  N
  N32      1.0000 0.52900  0.82450  0.69700  Biso   1.000  N
  N33      1.0000 0.42640  0.84200  0.69740  Biso   1.000  N
  N34      1.0000 0.45270  0.88860  0.73320  Biso   1.000  N
  C49      1.0000 0.51510  0.87630  0.73230  Biso   1.000  C
  C50      1.0000 0.56470  0.91370  0.76580  Biso   1.000  C
  C51      1.0000 0.61380  0.88250  0.79850  Biso   1.000  C
  H31      1.0000 0.61500  0.83700  0.79980  Biso   1.000  H
  C52      1.0000 0.66110  0.91800  0.82940  Biso   1.000  C
  H32      1.0000 0.69460  0.89680  0.85180  Biso   1.000  H
  C53      1.0000 0.65930  0.98470  0.82760  Biso   1.000  C
  C54      1.0000 0.61020  0.01590  0.79480  Biso   1.000  C
  H33      1.0000 0.60900  0.06150  0.79360  Biso   1.000  H
  C55      1.0000 0.56290  0.98040  0.76390  Biso   1.000  C
  H34      1.0000 0.52940  0.00170  0.74160  Biso   1.000  H
  C56      1.0000 0.71030  0.02300  0.86090  Biso   1.000  C
  O7       1.0000 0.71820  0.08090  0.84710  Biso   1.000  O
  N35      1.0000 0.74740  0.99520  0.90550  Biso   1.000  N
  H35      1.0000 0.74140  0.95130  0.91600  Biso   1.000  H
  Cl8      1.0000 0.94241  0.55330  0.10122  Biso   1.000  Cl
  N36      1.0000 0.97210  0.69530  0.32360  Biso   1.000  N
  N37      1.0000 0.02900  0.67550  0.30300  Biso   1.000  N
  N38      1.0000 0.92640  0.65800  0.30260  Biso   1.000  N
  N39      1.0000 0.95270  0.61140  0.26680  Biso   1.000  N
  C57      1.0000 0.01510  0.62370  0.26770  Biso   1.000  C
  C58      1.0000 0.06470  0.58630  0.23420  Biso   1.000  C
  C59      1.0000 0.11380  0.61750  0.20150  Biso   1.000  C
  H36      1.0000 0.11500  0.66300  0.20020  Biso   1.000  H
  C60      1.0000 0.16110  0.58200  0.17060  Biso   1.000  C
  H37      1.0000 0.19460  0.60320  0.14820  Biso   1.000  H
  C61      1.0000 0.15930  0.51530  0.17240  Biso   1.000  C
  C62      1.0000 0.11020  0.48410  0.20520  Biso   1.000  C
  H38      1.0000 0.10900  0.43850  0.20640  Biso   1.000  H
  C63      1.0000 0.06290  0.51960  0.23610  Biso   1.000  C
  H39      1.0000 0.02940  0.49830  0.25840  Biso   1.000  H
  C64      1.0000 0.21030  0.47700  0.13910  Biso   1.000  C
  O8       1.0000 0.21820  0.41910  0.15290  Biso   1.000  O
  N40      1.0000 0.24740  0.50480  0.09450  Biso   1.000  N
  H40      1.0000 0.24140  0.54870  0.08400  Biso   1.000  H
  Cl9      1.0000 0.39878  0.05759  0.05330  Biso   1.000  Cl
  N41      1.0000 0.17640  0.02790  0.19530  Biso   1.000  N
  N42      1.0000 0.19700  0.97100  0.17550  Biso   1.000  N
  N43      1.0000 0.19740  0.07360  0.15800  Biso   1.000  N
  N44      1.0000 0.23320  0.04730  0.11140  Biso   1.000  N
  C65      1.0000 0.23230  0.98490  0.12370  Biso   1.000  C
  C66      1.0000 0.26580  0.93530  0.08630  Biso   1.000  C
  C67      1.0000 0.29850  0.88620  0.11750  Biso   1.000  C
  H41      1.0000 0.29980  0.88500  0.16300  Biso   1.000  H
  C68      1.0000 0.32940  0.83890  0.08200  Biso   1.000  C
  H42      1.0000 0.35180  0.80540  0.10320  Biso   1.000  H
  C69      1.0000 0.32760  0.84070  0.01530  Biso   1.000  C
  C70      1.0000 0.29480  0.88980  0.98410  Biso   1.000  C
  H43      1.0000 0.29360  0.89100  0.93850  Biso   1.000  H
  C71      1.0000 0.26390  0.93710  0.01960  Biso   1.000  C
  H44      1.0000 0.24160  0.97060  0.99830  Biso   1.000  H
  C72      1.0000 0.36090  0.78970  0.97700  Biso   1.000  C
  O9       1.0000 0.34710  0.78180  0.91910  Biso   1.000  O
  N45      1.0000 0.40550  0.75260  0.00480  Biso   1.000  N
  H45      1.0000 0.41600  0.75860  0.04870  Biso   1.000  H
  Cl10     1.0000 0.60122  0.55759  0.44670  Biso   1.000  Cl
  N46      1.0000 0.82360  0.52790  0.30470  Biso   1.000  N
  N47      1.0000 0.80300  0.47100  0.32450  Biso   1.000  N
  N48      1.0000 0.80260  0.57360  0.34200  Biso   1.000  N
  N49      1.0000 0.76680  0.54730  0.38860  Biso   1.000  N
  C73      1.0000 0.76770  0.48490  0.37630  Biso   1.000  C
  C74      1.0000 0.73420  0.43530  0.41370  Biso   1.000  C
  C75      1.0000 0.70150  0.38620  0.38250  Biso   1.000  C
  H46      1.0000 0.70020  0.38500  0.33700  Biso   1.000  H
  C76      1.0000 0.67060  0.33890  0.41800  Biso   1.000  C
  H47      1.0000 0.64820  0.30540  0.39680  Biso   1.000  H
  C77      1.0000 0.67240  0.34070  0.48470  Biso   1.000  C
  C78      1.0000 0.70520  0.38980  0.51590  Biso   1.000  C
  H48      1.0000 0.70640  0.39100  0.56150  Biso   1.000  H
  C79      1.0000 0.73610  0.43710  0.48040  Biso   1.000  C
  H49      1.0000 0.75840  0.47060  0.50170  Biso   1.000  H
  C80      1.0000 0.63910  0.28970  0.52300  Biso   1.000  C
  O10      1.0000 0.65290  0.28180  0.58090  Biso   1.000  O
  N50      1.0000 0.59450  0.25260  0.49520  Biso   1.000  N
  H50      1.0000 0.58400  0.25860  0.45130  Biso   1.000  H
  Cl11     1.0000 0.89878  0.44241  0.94670  Biso   1.000  Cl
  N51      1.0000 0.67640  0.47210  0.80470  Biso   1.000  N
  N52      1.0000 0.69700  0.52900  0.82450  Biso   1.000  N
  N53      1.0000 0.69740  0.42640  0.84200  Biso   1.000  N
  N54      1.0000 0.73320  0.45270  0.88860  Biso   1.000  N
  C81      1.0000 0.73230  0.51510  0.87630  Biso   1.000  C
  C82      1.0000 0.76580  0.56470  0.91370  Biso   1.000  C
  C83      1.0000 0.79850  0.61380  0.88250  Biso   1.000  C
  H51      1.0000 0.79980  0.61500  0.83700  Biso   1.000  H
  C84      1.0000 0.82940  0.66110  0.91800  Biso   1.000  C
  H52      1.0000 0.85180  0.69460  0.89680  Biso   1.000  H
  C85      1.0000 0.82760  0.65930  0.98470  Biso   1.000  C
  C86      1.0000 0.79480  0.61020  0.01590  Biso   1.000  C
  H53      1.0000 0.79360  0.60900  0.06150  Biso   1.000  H
  C87      1.0000 0.76390  0.56290  0.98040  Biso   1.000  C
  H54      1.0000 0.74160  0.52940  0.00170  Biso   1.000  H
  C88      1.0000 0.86090  0.71030  0.02300  Biso   1.000  C
  O11      1.0000 0.84710  0.71820  0.08090  Biso   1.000  O
  N55      1.0000 0.90550  0.74740  0.99520  Biso   1.000  N
  H55      1.0000 0.91600  0.74140  0.95130  Biso   1.000  H
  Cl12     1.0000 0.10122  0.94241  0.55330  Biso   1.000  Cl
  N56      1.0000 0.32360  0.97210  0.69530  Biso   1.000  N
  N57      1.0000 0.30300  0.02900  0.67550  Biso   1.000  N
  N58      1.0000 0.30260  0.92640  0.65800  Biso   1.000  N
  N59      1.0000 0.26680  0.95270  0.61140  Biso   1.000  N
  C89      1.0000 0.26770  0.01510  0.62370  Biso   1.000  C
  C90      1.0000 0.23420  0.06470  0.58630  Biso   1.000  C
  C91      1.0000 0.20150  0.11380  0.61750  Biso   1.000  C
  H56      1.0000 0.20020  0.11500  0.66300  Biso   1.000  H
  C92      1.0000 0.17060  0.16110  0.58200  Biso   1.000  C
  H57      1.0000 0.14820  0.19460  0.60320  Biso   1.000  H
  C93      1.0000 0.17240  0.15930  0.51530  Biso   1.000  C
  C94      1.0000 0.20520  0.11020  0.48410  Biso   1.000  C
  H58      1.0000 0.20640  0.10900  0.43850  Biso   1.000  H
  C95      1.0000 0.23610  0.06290  0.51960  Biso   1.000  C
  H59      1.0000 0.25840  0.02940  0.49830  Biso   1.000  H
  C96      1.0000 0.13910  0.21030  0.47700  Biso   1.000  C
  O12      1.0000 0.15290  0.21820  0.41910  Biso   1.000  O
  N60      1.0000 0.09450  0.24740  0.50480  Biso   1.000  N
  H60      1.0000 0.08400  0.24140  0.54870  Biso   1.000  H
  Cl13     1.0000 0.14878  0.30330  0.19241  Biso   1.000  Cl
  N61      1.0000 0.92640  0.44530  0.22210  Biso   1.000  N
  N62      1.0000 0.94700  0.42550  0.27900  Biso   1.000  N
  N63      1.0000 0.94740  0.40800  0.17640  Biso   1.000  N
  N64      1.0000 0.98320  0.36140  0.20270  Biso   1.000  N
  C97      1.0000 0.98230  0.37370  0.26510  Biso   1.000  C
  C98      1.0000 0.01580  0.33630  0.31470  Biso   1.000  C
  C99      1.0000 0.04850  0.36750  0.36380  Biso   1.000  C
  H61      1.0000 0.04980  0.41300  0.36500  Biso   1.000  H
  C100     1.0000 0.07940  0.33200  0.41110  Biso   1.000  C
  H62      1.0000 0.10180  0.35320  0.44460  Biso   1.000  H
  C101     1.0000 0.07760  0.26530  0.40930  Biso   1.000  C
  C102     1.0000 0.04480  0.23410  0.36020  Biso   1.000  C
  H63      1.0000 0.04360  0.18850  0.35900  Biso   1.000  H
  C103     1.0000 0.01390  0.26960  0.31290  Biso   1.000  C
  H64      1.0000 0.99160  0.24830  0.27940  Biso   1.000  H
  C104     1.0000 0.11090  0.22700  0.46030  Biso   1.000  C
  O13      1.0000 0.09710  0.16910  0.46820  Biso   1.000  O
  N65      1.0000 0.15550  0.25480  0.49740  Biso   1.000  N
  H65      1.0000 0.16600  0.29870  0.49140  Biso   1.000  H
  Cl14     1.0000 0.35122  0.69670  0.69241  Biso   1.000  Cl
  N66      1.0000 0.57360  0.55470  0.72210  Biso   1.000  N
  N67      1.0000 0.55300  0.57450  0.77900  Biso   1.000  N
  N68      1.0000 0.55260  0.59200  0.67640  Biso   1.000  N
  N69      1.0000 0.51680  0.63860  0.70270  Biso   1.000  N
  C105     1.0000 0.51770  0.62630  0.76510  Biso   1.000  C
  C106     1.0000 0.48420  0.66370  0.81470  Biso   1.000  C
  C107     1.0000 0.45150  0.63250  0.86380  Biso   1.000  C
  H66      1.0000 0.45020  0.58700  0.86500  Biso   1.000  H
  C108     1.0000 0.42060  0.66800  0.91110  Biso   1.000  C
  H67      1.0000 0.39820  0.64680  0.94460  Biso   1.000  H
  C109     1.0000 0.42240  0.73470  0.90930  Biso   1.000  C
  C110     1.0000 0.45520  0.76590  0.86020  Biso   1.000  C
  H68      1.0000 0.45640  0.81150  0.85900  Biso   1.000  H
  C111     1.0000 0.48610  0.73040  0.81290  Biso   1.000  C
  H69      1.0000 0.50840  0.75170  0.77940  Biso   1.000  H
  C112     1.0000 0.38910  0.77300  0.96030  Biso   1.000  C
  O14      1.0000 0.40290  0.83090  0.96820  Biso   1.000  O
  N70      1.0000 0.34450  0.74520  0.99740  Biso   1.000  N
  H70      1.0000 0.33400  0.70130  0.99140  Biso   1.000  H
  Cl15     1.0000 0.64878  0.19670  0.80759  Biso   1.000  Cl
  N71      1.0000 0.42640  0.05470  0.77790  Biso   1.000  N
  N72      1.0000 0.44700  0.07450  0.72100  Biso   1.000  N
  N73      1.0000 0.44740  0.09200  0.82360  Biso   1.000  N
  N74      1.0000 0.48320  0.13860  0.79730  Biso   1.000  N
  C113     1.0000 0.48230  0.12630  0.73490  Biso   1.000  C
  C114     1.0000 0.51580  0.16370  0.68530  Biso   1.000  C
  C115     1.0000 0.54850  0.13250  0.63620  Biso   1.000  C
  H71      1.0000 0.54980  0.08700  0.63500  Biso   1.000  H
  C116     1.0000 0.57940  0.16800  0.58890  Biso   1.000  C
  H72      1.0000 0.60180  0.14680  0.55540  Biso   1.000  H
  C117     1.0000 0.57760  0.23470  0.59070  Biso   1.000  C
  C118     1.0000 0.54480  0.26590  0.63980  Biso   1.000  C
  H73      1.0000 0.54360  0.31150  0.64100  Biso   1.000  H
  C119     1.0000 0.51390  0.23040  0.68710  Biso   1.000  C
  H74      1.0000 0.49160  0.25170  0.72060  Biso   1.000  H
  C120     1.0000 0.61090  0.27300  0.53970  Biso   1.000  C
  O15      1.0000 0.59710  0.33090  0.53180  Biso   1.000  O
  N75      1.0000 0.65550  0.24520  0.50260  Biso   1.000  N
  H75      1.0000 0.66600  0.20130  0.50860  Biso   1.000  H
  Cl16     1.0000 0.85122  0.80330  0.30759  Biso   1.000  Cl
  N76      1.0000 0.07360  0.94530  0.27790  Biso   1.000  N
  N77      1.0000 0.05300  0.92550  0.22100  Biso   1.000  N
  N78      1.0000 0.05260  0.90800  0.32360  Biso   1.000  N
  N79      1.0000 0.01680  0.86140  0.29730  Biso   1.000  N
  C121     1.0000 0.01770  0.87370  0.23490  Biso   1.000  C
  C122     1.0000 0.98420  0.83630  0.18530  Biso   1.000  C
  C123     1.0000 0.95150  0.86750  0.13620  Biso   1.000  C
  H76      1.0000 0.95020  0.91300  0.13500  Biso   1.000  H
  C124     1.0000 0.92060  0.83200  0.08890  Biso   1.000  C
  H77      1.0000 0.89820  0.85320  0.05540  Biso   1.000  H
  C125     1.0000 0.92240  0.76530  0.09070  Biso   1.000  C
  C126     1.0000 0.95520  0.73410  0.13980  Biso   1.000  C
  H78      1.0000 0.95640  0.68850  0.14100  Biso   1.000  H
  C127     1.0000 0.98610  0.76960  0.18710  Biso   1.000  C
  H79      1.0000 0.00840  0.74830  0.22060  Biso   1.000  H
  C128     1.0000 0.88910  0.72700  0.03970  Biso   1.000  C
  O16      1.0000 0.90290  0.66910  0.03180  Biso   1.000  O
  N80      1.0000 0.84450  0.75480  0.00260  Biso   1.000  N
  H80      1.0000 0.83400  0.79870  0.00860  Biso   1.000  H
  Cl17     1.0000 0.80330  0.30759  0.85122  Biso   1.000  Cl
  N81      1.0000 0.94530  0.27790  0.07360  Biso   1.000  N
  N82      1.0000 0.92550  0.22100  0.05300  Biso   1.000  N
  N83      1.0000 0.90800  0.32360  0.05260  Biso   1.000  N
  N84      1.0000 0.86140  0.29730  0.01680  Biso   1.000  N
  C129     1.0000 0.87370  0.23490  0.01770  Biso   1.000  C
  C130     1.0000 0.83630  0.18530  0.98420  Biso   1.000  C
  C131     1.0000 0.86750  0.13620  0.95150  Biso   1.000  C
  H81      1.0000 0.91300  0.13500  0.95020  Biso   1.000  H
  C132     1.0000 0.83200  0.08890  0.92060  Biso   1.000  C
  H82      1.0000 0.85320  0.05540  0.89820  Biso   1.000  H
  C133     1.0000 0.76530  0.09070  0.92240  Biso   1.000  C
  C134     1.0000 0.73410  0.13980  0.95520  Biso   1.000  C
  H83      1.0000 0.68850  0.14100  0.95640  Biso   1.000  H
  C135     1.0000 0.76960  0.18710  0.98610  Biso   1.000  C
  H84      1.0000 0.74830  0.22060  0.00840  Biso   1.000  H
  C136     1.0000 0.72700  0.03970  0.88910  Biso   1.000  C
  O17      1.0000 0.66910  0.03180  0.90290  Biso   1.000  O
  N85      1.0000 0.75480  0.00260  0.84450  Biso   1.000  N
  H85      1.0000 0.79870  0.00860  0.83400  Biso   1.000  H
  Cl18     1.0000 0.19670  0.80759  0.64878  Biso   1.000  Cl
  N86      1.0000 0.05470  0.77790  0.42640  Biso   1.000  N
  N87      1.0000 0.07450  0.72100  0.44700  Biso   1.000  N
  N88      1.0000 0.09200  0.82360  0.44740  Biso   1.000  N
  N89      1.0000 0.13860  0.79730  0.48320  Biso   1.000  N
  C137     1.0000 0.12630  0.73490  0.48230  Biso   1.000  C
  C138     1.0000 0.16370  0.68530  0.51580  Biso   1.000  C
  C139     1.0000 0.13250  0.63620  0.54850  Biso   1.000  C
  H86      1.0000 0.08700  0.63500  0.54980  Biso   1.000  H
  C140     1.0000 0.16800  0.58890  0.57940  Biso   1.000  C
  H87      1.0000 0.14680  0.55540  0.60180  Biso   1.000  H
  C141     1.0000 0.23470  0.59070  0.57760  Biso   1.000  C
  C142     1.0000 0.26590  0.63980  0.54480  Biso   1.000  C
  H88      1.0000 0.31150  0.64100  0.54360  Biso   1.000  H
  C143     1.0000 0.23040  0.68710  0.51390  Biso   1.000  C
  H89      1.0000 0.25170  0.72060  0.49160  Biso   1.000  H
  C144     1.0000 0.27300  0.53970  0.61090  Biso   1.000  C
  O18      1.0000 0.33090  0.53180  0.59710  Biso   1.000  O
  N90      1.0000 0.24520  0.50260  0.65550  Biso   1.000  N
  H90      1.0000 0.20130  0.50860  0.66600  Biso   1.000  H
  Cl19     1.0000 0.69670  0.69241  0.35122  Biso   1.000  Cl
  N91      1.0000 0.55470  0.72210  0.57360  Biso   1.000  N
  N92      1.0000 0.57450  0.77900  0.55300  Biso   1.000  N
  N93      1.0000 0.59200  0.67640  0.55260  Biso   1.000  N
  N94      1.0000 0.63860  0.70270  0.51680  Biso   1.000  N
  C145     1.0000 0.62630  0.76510  0.51770  Biso   1.000  C
  C146     1.0000 0.66370  0.81470  0.48420  Biso   1.000  C
  C147     1.0000 0.63250  0.86380  0.45150  Biso   1.000  C
  H91      1.0000 0.58700  0.86500  0.45020  Biso   1.000  H
  C148     1.0000 0.66800  0.91110  0.42060  Biso   1.000  C
  H92      1.0000 0.64680  0.94460  0.39820  Biso   1.000  H
  C149     1.0000 0.73470  0.90930  0.42240  Biso   1.000  C
  C150     1.0000 0.76590  0.86020  0.45520  Biso   1.000  C
  H93      1.0000 0.81150  0.85900  0.45640  Biso   1.000  H
  C151     1.0000 0.73040  0.81290  0.48610  Biso   1.000  C
  H94      1.0000 0.75170  0.77940  0.50840  Biso   1.000  H
  C152     1.0000 0.77300  0.96030  0.38910  Biso   1.000  C
  O19      1.0000 0.83090  0.96820  0.40290  Biso   1.000  O
  N95      1.0000 0.74520  0.99740  0.34450  Biso   1.000  N
  H95      1.0000 0.70130  0.99140  0.33400  Biso   1.000  H
  Cl20     1.0000 0.30330  0.19241  0.14878  Biso   1.000  Cl
  N96      1.0000 0.44530  0.22210  0.92640  Biso   1.000  N
  N97      1.0000 0.42550  0.27900  0.94700  Biso   1.000  N
  N98      1.0000 0.40800  0.17640  0.94740  Biso   1.000  N
  N99      1.0000 0.36140  0.20270  0.98320  Biso   1.000  N
  C153     1.0000 0.37370  0.26510  0.98230  Biso   1.000  C
  C154     1.0000 0.33630  0.31470  0.01580  Biso   1.000  C
  C155     1.0000 0.36750  0.36380  0.04850  Biso   1.000  C
  H96      1.0000 0.41300  0.36500  0.04980  Biso   1.000  H
  C156     1.0000 0.33200  0.41110  0.07940  Biso   1.000  C
  H97      1.0000 0.35320  0.44460  0.10180  Biso   1.000  H
  C157     1.0000 0.26530  0.40930  0.07760  Biso   1.000  C
  C158     1.0000 0.23410  0.36020  0.04480  Biso   1.000  C
  H98      1.0000 0.18850  0.35900  0.04360  Biso   1.000  H
  C159     1.0000 0.26960  0.31290  0.01390  Biso   1.000  C
  H99      1.0000 0.24830  0.27940  0.99160  Biso   1.000  H
  C160     1.0000 0.22700  0.46030  0.11090  Biso   1.000  C
  O20      1.0000 0.16910  0.46820  0.09710  Biso   1.000  O
  N100     1.0000 0.25480  0.49740  0.15550  Biso   1.000  N
  H100     1.0000 0.29870  0.49140  0.16600  Biso   1.000  H
  Cl21     1.0000 0.80759  0.64878  0.19670  Biso   1.000  Cl
  N101     1.0000 0.77790  0.42640  0.05470  Biso   1.000  N
  N102     1.0000 0.72100  0.44700  0.07450  Biso   1.000  N
  N103     1.0000 0.82360  0.44740  0.09200  Biso   1.000  N
  N104     1.0000 0.79730  0.48320  0.13860  Biso   1.000  N
  C161     1.0000 0.73490  0.48230  0.12630  Biso   1.000  C
  C162     1.0000 0.68530  0.51580  0.16370  Biso   1.000  C
  C163     1.0000 0.63620  0.54850  0.13250  Biso   1.000  C
  H101     1.0000 0.63500  0.54980  0.08700  Biso   1.000  H
  C164     1.0000 0.58890  0.57940  0.16800  Biso   1.000  C
  H102     1.0000 0.55540  0.60180  0.14680  Biso   1.000  H
  C165     1.0000 0.59070  0.57760  0.23470  Biso   1.000  C
  C166     1.0000 0.63980  0.54480  0.26590  Biso   1.000  C
  H103     1.0000 0.64100  0.54360  0.31150  Biso   1.000  H
  C167     1.0000 0.68710  0.51390  0.23040  Biso   1.000  C
  H104     1.0000 0.72060  0.49160  0.25170  Biso   1.000  H
  C168     1.0000 0.53970  0.61090  0.27300  Biso   1.000  C
  O21      1.0000 0.53180  0.59710  0.33090  Biso   1.000  O
  N105     1.0000 0.50260  0.65550  0.24520  Biso   1.000  N
  H105     1.0000 0.50860  0.66600  0.20130  Biso   1.000  H
  Cl22     1.0000 0.30759  0.85122  0.80330  Biso   1.000  Cl
  N106     1.0000 0.27790  0.07360  0.94530  Biso   1.000  N
  N107     1.0000 0.22100  0.05300  0.92550  Biso   1.000  N
  N108     1.0000 0.32360  0.05260  0.90800  Biso   1.000  N
  N109     1.0000 0.29730  0.01680  0.86140  Biso   1.000  N
  C169     1.0000 0.23490  0.01770  0.87370  Biso   1.000  C
  C170     1.0000 0.18530  0.98420  0.83630  Biso   1.000  C
  C171     1.0000 0.13620  0.95150  0.86750  Biso   1.000  C
  H106     1.0000 0.13500  0.95020  0.91300  Biso   1.000  H
  C172     1.0000 0.08890  0.92060  0.83200  Biso   1.000  C
  H107     1.0000 0.05540  0.89820  0.85320  Biso   1.000  H
  C173     1.0000 0.09070  0.92240  0.76530  Biso   1.000  C
  C174     1.0000 0.13980  0.95520  0.73410  Biso   1.000  C
  H108     1.0000 0.14100  0.95640  0.68850  Biso   1.000  H
  C175     1.0000 0.18710  0.98610  0.76960  Biso   1.000  C
  H109     1.0000 0.22060  0.00840  0.74830  Biso   1.000  H
  C176     1.0000 0.03970  0.88910  0.72700  Biso   1.000  C
  O22      1.0000 0.03180  0.90290  0.66910  Biso   1.000  O
  N110     1.0000 0.00260  0.84450  0.75480  Biso   1.000  N
  H110     1.0000 0.00860  0.83400  0.79870  Biso   1.000  H
  Cl23     1.0000 0.19241  0.14878  0.30330  Biso   1.000  Cl
  N111     1.0000 0.22210  0.92640  0.44530  Biso   1.000  N
  N112     1.0000 0.27900  0.94700  0.42550  Biso   1.000  N
  N113     1.0000 0.17640  0.94740  0.40800  Biso   1.000  N
  N114     1.0000 0.20270  0.98320  0.36140  Biso   1.000  N
  C177     1.0000 0.26510  0.98230  0.37370  Biso   1.000  C
  C178     1.0000 0.31470  0.01580  0.33630  Biso   1.000  C
  C179     1.0000 0.36380  0.04850  0.36750  Biso   1.000  C
  H111     1.0000 0.36500  0.04980  0.41300  Biso   1.000  H
  C180     1.0000 0.41110  0.07940  0.33200  Biso   1.000  C
  H112     1.0000 0.44460  0.10180  0.35320  Biso   1.000  H
  C181     1.0000 0.40930  0.07760  0.26530  Biso   1.000  C
  C182     1.0000 0.36020  0.04480  0.23410  Biso   1.000  C
  H113     1.0000 0.35900  0.04360  0.18850  Biso   1.000  H
  C183     1.0000 0.31290  0.01390  0.26960  Biso   1.000  C
  H114     1.0000 0.27940  0.99160  0.24830  Biso   1.000  H
  C184     1.0000 0.46030  0.11090  0.22700  Biso   1.000  C
  O23      1.0000 0.46820  0.09710  0.16910  Biso   1.000  O
  N115     1.0000 0.49740  0.15550  0.25480  Biso   1.000  N
  H115     1.0000 0.49140  0.16600  0.29870  Biso   1.000  H
  Cl24     1.0000 0.69241  0.35122  0.69670  Biso   1.000  Cl
  N116     1.0000 0.72210  0.57360  0.55470  Biso   1.000  N
  N117     1.0000 0.77900  0.55300  0.57450  Biso   1.000  N
  N118     1.0000 0.67640  0.55260  0.59200  Biso   1.000  N
  N119     1.0000 0.70270  0.51680  0.63860  Biso   1.000  N
  C185     1.0000 0.76510  0.51770  0.62630  Biso   1.000  C
  C186     1.0000 0.81470  0.48420  0.66370  Biso   1.000  C
  C187     1.0000 0.86380  0.45150  0.63250  Biso   1.000  C
  H116     1.0000 0.86500  0.45020  0.58700  Biso   1.000  H
  C188     1.0000 0.91110  0.42060  0.66800  Biso   1.000  C
  H117     1.0000 0.94460  0.39820  0.64680  Biso   1.000  H
  C189     1.0000 0.90930  0.42240  0.73470  Biso   1.000  C
  C190     1.0000 0.86020  0.45520  0.76590  Biso   1.000  C
  H118     1.0000 0.85900  0.45640  0.81150  Biso   1.000  H
  C191     1.0000 0.81290  0.48610  0.73040  Biso   1.000  C
  H119     1.0000 0.77940  0.50840  0.75170  Biso   1.000  H
  C192     1.0000 0.96030  0.38910  0.77300  Biso   1.000  C
  O24      1.0000 0.96820  0.40290  0.83090  Biso   1.000  O
  N120     1.0000 0.99740  0.34450  0.74520  Biso   1.000  N
  H120     1.0000 0.99140  0.33400  0.70130  Biso   1.000  H
  Cd1      1.0000 0.04408  0.29408  0.12500  Biso   1.000  Cd
  Cd2      1.0000 0.45592  0.70592  0.62500  Biso   1.000  Cd
  Cd3      1.0000 0.95592  0.79408  0.37500  Biso   1.000  Cd
  Cd4      1.0000 0.54408  0.20592  0.87500  Biso   1.000  Cd
  Cd5      1.0000 0.12500  0.04408  0.29408  Biso   1.000  Cd
  Cd6      1.0000 0.62500  0.45592  0.70592  Biso   1.000  Cd
  Cd7      1.0000 0.37500  0.95592  0.79408  Biso   1.000  Cd
  Cd8      1.0000 0.87500  0.54408  0.20592  Biso   1.000  Cd
  Cd9      1.0000 0.29408  0.12500  0.04408  Biso   1.000  Cd
  Cd10     1.0000 0.70592  0.62500  0.45592  Biso   1.000  Cd
  Cd11     1.0000 0.79408  0.37500  0.95592  Biso   1.000  Cd
  Cd12     1.0000 0.20592  0.87500  0.54408  Biso   1.000  Cd
  Cd13     1.0000 0.93407  0.43407  0.06593  Biso   1.000  Cd
  Cd14     1.0000 0.56593  0.56593  0.56593  Biso   1.000  Cd
  Cd15     1.0000 0.06593  0.93407  0.43407  Biso   1.000  Cd
  Cd16     1.0000 0.43407  0.06593  0.93407  Biso   1.000  Cd
  Cd17     1.0000 0.18407  0.18407  0.18407  Biso   1.000  Cd
  Cd18     1.0000 0.31593  0.81593  0.68407  Biso   1.000  Cd
  Cd19     1.0000 0.68407  0.31593  0.81593  Biso   1.000  Cd
  Cd20     1.0000 0.81593  0.68407  0.31593  Biso   1.000  Cd
