data_image0
_cell_length_a       18.5085
_cell_length_b       18.5085
_cell_length_c       22.9306
_cell_angle_alpha    90
_cell_angle_beta     90
_cell_angle_gamma    120

_symmetry_space_group_name_H-M    "P 1"
_symmetry_int_tables_number       1

loop_
  _symmetry_equiv_pos_as_xyz
  'x, y, z'

loop_
  _atom_site_label
  _atom_site_occupancy
  _atom_site_fract_x
  _atom_site_fract_y
  _atom_site_fract_z
  _atom_site_thermal_displace_type
  _atom_site_B_iso_or_equiv
  _atom_site_type_symbol
  O1       1.0000 0.48160  0.10970  0.99300  Biso   1.000  O
  O2       1.0000 0.43950  0.02970  0.07368  Biso   1.000  O
  C1       1.0000 0.44940  0.09140  0.04320  Biso   1.000  C
  C2       1.0000 0.41920  0.14430  0.06970  Biso   1.000  C
  C3       1.0000 0.36940  0.12160  0.11840  Biso   1.000  C
  H1       1.0000 0.35320  0.07010  0.13540  Biso   1.000  H
  H2       1.0000 0.05240  0.02110  0.11230  Biso   1.000  H
  H3       1.0000 0.06830  0.99460  0.17380  Biso   1.000  H
  H4       1.0000 0.06650  0.07790  0.16670  Biso   1.000  H
  O3       1.0000 0.89030  0.37190  0.99300  Biso   1.000  O
  O4       1.0000 0.97030  0.40980  0.07368  Biso   1.000  O
  C4       1.0000 0.90860  0.35800  0.04320  Biso   1.000  C
  C5       1.0000 0.85570  0.27490  0.06970  Biso   1.000  C
  C6       1.0000 0.87840  0.24780  0.11840  Biso   1.000  C
  H5       1.0000 0.92990  0.28310  0.13540  Biso   1.000  H
  H6       1.0000 0.97890  0.03130  0.11230  Biso   1.000  H
  H7       1.0000 0.00540  0.07370  0.17380  Biso   1.000  H
  H8       1.0000 0.92210  0.98860  0.16670  Biso   1.000  H
  O5       1.0000 0.62810  0.51840  0.99300  Biso   1.000  O
  O6       1.0000 0.59020  0.56050  0.07368  Biso   1.000  O
  C7       1.0000 0.64200  0.55060  0.04320  Biso   1.000  C
  C8       1.0000 0.72510  0.58080  0.06970  Biso   1.000  C
  C9       1.0000 0.75220  0.63060  0.11840  Biso   1.000  C
  H9       1.0000 0.71690  0.64680  0.13540  Biso   1.000  H
  H10      1.0000 0.96870  0.94760  0.11230  Biso   1.000  H
  H11      1.0000 0.92630  0.93170  0.17380  Biso   1.000  H
  H12      1.0000 0.01140  0.93350  0.16670  Biso   1.000  H
  O7       1.0000 0.51840  0.89030  0.49300  Biso   1.000  O
  O8       1.0000 0.56050  0.97030  0.57368  Biso   1.000  O
  C10      1.0000 0.55060  0.90860  0.54320  Biso   1.000  C
  C11      1.0000 0.58080  0.85570  0.56970  Biso   1.000  C
  C12      1.0000 0.63060  0.87840  0.61840  Biso   1.000  C
  H13      1.0000 0.64680  0.92990  0.63540  Biso   1.000  H
  H14      1.0000 0.94760  0.97890  0.61230  Biso   1.000  H
  H15      1.0000 0.93170  0.00540  0.67380  Biso   1.000  H
  H16      1.0000 0.93350  0.92210  0.66670  Biso   1.000  H
  O9       1.0000 0.10970  0.62810  0.49300  Biso   1.000  O
  O10      1.0000 0.02970  0.59020  0.57368  Biso   1.000  O
  C13      1.0000 0.09140  0.64200  0.54320  Biso   1.000  C
  C14      1.0000 0.14430  0.72510  0.56970  Biso   1.000  C
  C15      1.0000 0.12160  0.75220  0.61840  Biso   1.000  C
  H17      1.0000 0.07010  0.71690  0.63540  Biso   1.000  H
  H18      1.0000 0.02110  0.96870  0.61230  Biso   1.000  H
  H19      1.0000 0.99460  0.92630  0.67380  Biso   1.000  H
  H20      1.0000 0.07790  0.01140  0.66670  Biso   1.000  H
  O11      1.0000 0.37190  0.48160  0.49300  Biso   1.000  O
  O12      1.0000 0.40980  0.43950  0.57368  Biso   1.000  O
  C16      1.0000 0.35800  0.44940  0.54320  Biso   1.000  C
  C17      1.0000 0.27490  0.41920  0.56970  Biso   1.000  C
  C18      1.0000 0.24780  0.36940  0.61840  Biso   1.000  C
  H21      1.0000 0.28310  0.35320  0.63540  Biso   1.000  H
  H22      1.0000 0.03130  0.05240  0.61230  Biso   1.000  H
  H23      1.0000 0.07370  0.06830  0.67380  Biso   1.000  H
  H24      1.0000 0.98860  0.06650  0.66670  Biso   1.000  H
  O13      1.0000 0.10970  0.48160  0.00700  Biso   1.000  O
  O14      1.0000 0.02970  0.43950  0.92632  Biso   1.000  O
  C19      1.0000 0.09140  0.44940  0.95680  Biso   1.000  C
  C20      1.0000 0.14430  0.41920  0.93030  Biso   1.000  C
  C21      1.0000 0.12160  0.36940  0.88160  Biso   1.000  C
  H25      1.0000 0.07010  0.35320  0.86460  Biso   1.000  H
  H26      1.0000 0.02110  0.05240  0.88770  Biso   1.000  H
  H27      1.0000 0.99460  0.06830  0.82620  Biso   1.000  H
  H28      1.0000 0.07790  0.06650  0.83330  Biso   1.000  H
  O15      1.0000 0.37190  0.89030  0.00700  Biso   1.000  O
  O16      1.0000 0.40980  0.97030  0.92632  Biso   1.000  O
  C22      1.0000 0.35800  0.90860  0.95680  Biso   1.000  C
  C23      1.0000 0.27490  0.85570  0.93030  Biso   1.000  C
  C24      1.0000 0.24780  0.87840  0.88160  Biso   1.000  C
  H29      1.0000 0.28310  0.92990  0.86460  Biso   1.000  H
  H30      1.0000 0.03130  0.97890  0.88770  Biso   1.000  H
  H31      1.0000 0.07370  0.00540  0.82620  Biso   1.000  H
  H32      1.0000 0.98860  0.92210  0.83330  Biso   1.000  H
  O17      1.0000 0.51840  0.62810  0.00700  Biso   1.000  O
  O18      1.0000 0.56050  0.59020  0.92632  Biso   1.000  O
  C25      1.0000 0.55060  0.64200  0.95680  Biso   1.000  C
  C26      1.0000 0.58080  0.72510  0.93030  Biso   1.000  C
  C27      1.0000 0.63060  0.75220  0.88160  Biso   1.000  C
  H33      1.0000 0.64680  0.71690  0.86460  Biso   1.000  H
  H34      1.0000 0.94760  0.96870  0.88770  Biso   1.000  H
  H35      1.0000 0.93170  0.92630  0.82620  Biso   1.000  H
  H36      1.0000 0.93350  0.01140  0.83330  Biso   1.000  H
  O19      1.0000 0.89030  0.51840  0.50700  Biso   1.000  O
  O20      1.0000 0.97030  0.56050  0.42632  Biso   1.000  O
  C28      1.0000 0.90860  0.55060  0.45680  Biso   1.000  C
  C29      1.0000 0.85570  0.58080  0.43030  Biso   1.000  C
  C30      1.0000 0.87840  0.63060  0.38160  Biso   1.000  C
  H37      1.0000 0.92990  0.64680  0.36460  Biso   1.000  H
  H38      1.0000 0.97890  0.94760  0.38770  Biso   1.000  H
  H39      1.0000 0.00540  0.93170  0.32620  Biso   1.000  H
  H40      1.0000 0.92210  0.93350  0.33330  Biso   1.000  H
  O21      1.0000 0.62810  0.10970  0.50700  Biso   1.000  O
  O22      1.0000 0.59020  0.02970  0.42632  Biso   1.000  O
  C31      1.0000 0.64200  0.09140  0.45680  Biso   1.000  C
  C32      1.0000 0.72510  0.14430  0.43030  Biso   1.000  C
  C33      1.0000 0.75220  0.12160  0.38160  Biso   1.000  C
  H41      1.0000 0.71690  0.07010  0.36460  Biso   1.000  H
  H42      1.0000 0.96870  0.02110  0.38770  Biso   1.000  H
  H43      1.0000 0.92630  0.99460  0.32620  Biso   1.000  H
  H44      1.0000 0.01140  0.07790  0.33330  Biso   1.000  H
  O23      1.0000 0.48160  0.37190  0.50700  Biso   1.000  O
  O24      1.0000 0.43950  0.40980  0.42632  Biso   1.000  O
  C34      1.0000 0.44940  0.35800  0.45680  Biso   1.000  C
  C35      1.0000 0.41920  0.27490  0.43030  Biso   1.000  C
  C36      1.0000 0.36940  0.24780  0.38160  Biso   1.000  C
  H45      1.0000 0.35320  0.28310  0.36460  Biso   1.000  H
  H46      1.0000 0.05240  0.03130  0.38770  Biso   1.000  H
  H47      1.0000 0.06830  0.07370  0.32620  Biso   1.000  H
  H48      1.0000 0.06650  0.98860  0.33330  Biso   1.000  H
  O25      1.0000 0.51840  0.89030  0.00700  Biso   1.000  O
  O26      1.0000 0.56050  0.97030  0.92632  Biso   1.000  O
  C37      1.0000 0.55060  0.90860  0.95680  Biso   1.000  C
  C38      1.0000 0.58080  0.85570  0.93030  Biso   1.000  C
  C39      1.0000 0.63060  0.87840  0.88160  Biso   1.000  C
  H49      1.0000 0.64680  0.92990  0.86460  Biso   1.000  H
  H50      1.0000 0.94760  0.97890  0.88770  Biso   1.000  H
  H51      1.0000 0.93170  0.00540  0.82620  Biso   1.000  H
  H52      1.0000 0.93350  0.92210  0.83330  Biso   1.000  H
  O27      1.0000 0.10970  0.62810  0.00700  Biso   1.000  O
  O28      1.0000 0.02970  0.59020  0.92632  Biso   1.000  O
  C40      1.0000 0.09140  0.64200  0.95680  Biso   1.000  C
  C41      1.0000 0.14430  0.72510  0.93030  Biso   1.000  C
  C42      1.0000 0.12160  0.75220  0.88160  Biso   1.000  C
  H53      1.0000 0.07010  0.71690  0.86460  Biso   1.000  H
  H54      1.0000 0.02110  0.96870  0.88770  Biso   1.000  H
  H55      1.0000 0.99460  0.92630  0.82620  Biso   1.000  H
  H56      1.0000 0.07790  0.01140  0.83330  Biso   1.000  H
  O29      1.0000 0.37190  0.48160  0.00700  Biso   1.000  O
  O30      1.0000 0.40980  0.43950  0.92632  Biso   1.000  O
  C43      1.0000 0.35800  0.44940  0.95680  Biso   1.000  C
  C44      1.0000 0.27490  0.41920  0.93030  Biso   1.000  C
  C45      1.0000 0.24780  0.36940  0.88160  Biso   1.000  C
  H57      1.0000 0.28310  0.35320  0.86460  Biso   1.000  H
  H58      1.0000 0.03130  0.05240  0.88770  Biso   1.000  H
  H59      1.0000 0.07370  0.06830  0.82620  Biso   1.000  H
  H60      1.0000 0.98860  0.06650  0.83330  Biso   1.000  H
  O31      1.0000 0.48160  0.10970  0.50700  Biso   1.000  O
  O32      1.0000 0.43950  0.02970  0.42632  Biso   1.000  O
  C46      1.0000 0.44940  0.09140  0.45680  Biso   1.000  C
  C47      1.0000 0.41920  0.14430  0.43030  Biso   1.000  C
  C48      1.0000 0.36940  0.12160  0.38160  Biso   1.000  C
  H61      1.0000 0.35320  0.07010  0.36460  Biso   1.000  H
  H62      1.0000 0.05240  0.02110  0.38770  Biso   1.000  H
  H63      1.0000 0.06830  0.99460  0.32620  Biso   1.000  H
  H64      1.0000 0.06650  0.07790  0.33330  Biso   1.000  H
  O33      1.0000 0.89030  0.37190  0.50700  Biso   1.000  O
  O34      1.0000 0.97030  0.40980  0.42632  Biso   1.000  O
  C49      1.0000 0.90860  0.35800  0.45680  Biso   1.000  C
  C50      1.0000 0.85570  0.27490  0.43030  Biso   1.000  C
  C51      1.0000 0.87840  0.24780  0.38160  Biso   1.000  C
  H65      1.0000 0.92990  0.28310  0.36460  Biso   1.000  H
  H66      1.0000 0.97890  0.03130  0.38770  Biso   1.000  H
  H67      1.0000 0.00540  0.07370  0.32620  Biso   1.000  H
  H68      1.0000 0.92210  0.98860  0.33330  Biso   1.000  H
  O35      1.0000 0.62810  0.51840  0.50700  Biso   1.000  O
  O36      1.0000 0.59020  0.56050  0.42632  Biso   1.000  O
  C52      1.0000 0.64200  0.55060  0.45680  Biso   1.000  C
  C53      1.0000 0.72510  0.58080  0.43030  Biso   1.000  C
  C54      1.0000 0.75220  0.63060  0.38160  Biso   1.000  C
  H69      1.0000 0.71690  0.64680  0.36460  Biso   1.000  H
  H70      1.0000 0.96870  0.94760  0.38770  Biso   1.000  H
  H71      1.0000 0.92630  0.93170  0.32620  Biso   1.000  H
  H72      1.0000 0.01140  0.93350  0.33330  Biso   1.000  H
  O37      1.0000 0.89030  0.51840  0.99300  Biso   1.000  O
  O38      1.0000 0.97030  0.56050  0.07368  Biso   1.000  O
  C55      1.0000 0.90860  0.55060  0.04320  Biso   1.000  C
  C56      1.0000 0.85570  0.58080  0.06970  Biso   1.000  C
  C57      1.0000 0.87840  0.63060  0.11840  Biso   1.000  C
  H73      1.0000 0.92990  0.64680  0.13540  Biso   1.000  H
  H74      1.0000 0.97890  0.94760  0.11230  Biso   1.000  H
  H75      1.0000 0.00540  0.93170  0.17380  Biso   1.000  H
  H76      1.0000 0.92210  0.93350  0.16670  Biso   1.000  H
  O39      1.0000 0.62810  0.10970  0.99300  Biso   1.000  O
  O40      1.0000 0.59020  0.02970  0.07368  Biso   1.000  O
  C58      1.0000 0.64200  0.09140  0.04320  Biso   1.000  C
  C59      1.0000 0.72510  0.14430  0.06970  Biso   1.000  C
  C60      1.0000 0.75220  0.12160  0.11840  Biso   1.000  C
  H77      1.0000 0.71690  0.07010  0.13540  Biso   1.000  H
  H78      1.0000 0.96870  0.02110  0.11230  Biso   1.000  H
  H79      1.0000 0.92630  0.99460  0.17380  Biso   1.000  H
  H80      1.0000 0.01140  0.07790  0.16670  Biso   1.000  H
  O41      1.0000 0.48160  0.37190  0.99300  Biso   1.000  O
  O42      1.0000 0.43950  0.40980  0.07368  Biso   1.000  O
  C61      1.0000 0.44940  0.35800  0.04320  Biso   1.000  C
  C62      1.0000 0.41920  0.27490  0.06970  Biso   1.000  C
  C63      1.0000 0.36940  0.24780  0.11840  Biso   1.000  C
  H81      1.0000 0.35320  0.28310  0.13540  Biso   1.000  H
  H82      1.0000 0.05240  0.03130  0.11230  Biso   1.000  H
  H83      1.0000 0.06830  0.07370  0.17380  Biso   1.000  H
  H84      1.0000 0.06650  0.98860  0.16670  Biso   1.000  H
  O43      1.0000 0.10970  0.48160  0.49300  Biso   1.000  O
  O44      1.0000 0.02970  0.43950  0.57368  Biso   1.000  O
  C64      1.0000 0.09140  0.44940  0.54320  Biso   1.000  C
  C65      1.0000 0.14430  0.41920  0.56970  Biso   1.000  C
  C66      1.0000 0.12160  0.36940  0.61840  Biso   1.000  C
  H85      1.0000 0.07010  0.35320  0.63540  Biso   1.000  H
  H86      1.0000 0.02110  0.05240  0.61230  Biso   1.000  H
  H87      1.0000 0.99460  0.06830  0.67380  Biso   1.000  H
  H88      1.0000 0.07790  0.06650  0.66670  Biso   1.000  H
  O45      1.0000 0.37190  0.89030  0.49300  Biso   1.000  O
  O46      1.0000 0.40980  0.97030  0.57368  Biso   1.000  O
  C67      1.0000 0.35800  0.90860  0.54320  Biso   1.000  C
  C68      1.0000 0.27490  0.85570  0.56970  Biso   1.000  C
  C69      1.0000 0.24780  0.87840  0.61840  Biso   1.000  C
  H89      1.0000 0.28310  0.92990  0.63540  Biso   1.000  H
  H90      1.0000 0.03130  0.97890  0.61230  Biso   1.000  H
  H91      1.0000 0.07370  0.00540  0.67380  Biso   1.000  H
  H92      1.0000 0.98860  0.92210  0.66670  Biso   1.000  H
  O47      1.0000 0.51840  0.62810  0.49300  Biso   1.000  O
  O48      1.0000 0.56050  0.59020  0.57368  Biso   1.000  O
  C70      1.0000 0.55060  0.64200  0.54320  Biso   1.000  C
  C71      1.0000 0.58080  0.72510  0.56970  Biso   1.000  C
  C72      1.0000 0.63060  0.75220  0.61840  Biso   1.000  C
  H93      1.0000 0.64680  0.71690  0.63540  Biso   1.000  H
  H94      1.0000 0.94760  0.96870  0.61230  Biso   1.000  H
  H95      1.0000 0.93170  0.92630  0.67380  Biso   1.000  H
  H96      1.0000 0.93350  0.01140  0.66670  Biso   1.000  H
  Cu1      1.0000 0.52350  0.04700  0.95179  Biso   1.000  Cu
  Cu2      1.0000 0.95300  0.47650  0.95179  Biso   1.000  Cu
  Cu3      1.0000 0.52350  0.47650  0.95179  Biso   1.000  Cu
  Cu4      1.0000 0.47650  0.95300  0.45179  Biso   1.000  Cu
  Cu5      1.0000 0.04700  0.52350  0.45179  Biso   1.000  Cu
  Cu6      1.0000 0.47650  0.52350  0.45179  Biso   1.000  Cu
  Cu7      1.0000 0.04700  0.52350  0.04821  Biso   1.000  Cu
  Cu8      1.0000 0.47650  0.95300  0.04821  Biso   1.000  Cu
  Cu9      1.0000 0.47650  0.52350  0.04821  Biso   1.000  Cu
  Cu10     1.0000 0.95300  0.47650  0.54821  Biso   1.000  Cu
  Cu11     1.0000 0.52350  0.04700  0.54821  Biso   1.000  Cu
  Cu12     1.0000 0.52350  0.47650  0.54821  Biso   1.000  Cu
  C73      1.0000 0.44320  0.22160  0.04280  Biso   1.000  C
  H97      1.0000 0.47390  0.23695  0.00840  Biso   1.000  H
  C74      1.0000 0.34250  0.17125  0.14300  Biso   1.000  C
  C75      1.0000 0.29400  0.14700  0.19870  Biso   1.000  C
  C76      1.0000 0.20570  0.10285  0.19650  Biso   1.000  C
  O49      1.0000 0.18570  0.09285  0.08690  Biso   1.000  O
  O50      1.0000 0.08200  0.04100  0.14840  Biso   1.000  O
  C77      1.0000 0.15930  0.07965  0.13860  Biso   1.000  C
  H98      1.0000 0.17660  0.08830  0.16140  Biso   1.000  H
  C78      1.0000 0.77840  0.22160  0.04280  Biso   1.000  C
  H99      1.0000 0.76305  0.23695  0.00840  Biso   1.000  H
  C79      1.0000 0.82875  0.17125  0.14300  Biso   1.000  C
  C80      1.0000 0.85300  0.14700  0.19870  Biso   1.000  C
  C81      1.0000 0.89715  0.10285  0.19650  Biso   1.000  C
  O51      1.0000 0.90715  0.09285  0.08690  Biso   1.000  O
  O52      1.0000 0.95900  0.04100  0.14840  Biso   1.000  O
  C82      1.0000 0.92035  0.07965  0.13860  Biso   1.000  C
  H100     1.0000 0.91170  0.08830  0.16140  Biso   1.000  H
  C83      1.0000 0.77840  0.55680  0.04280  Biso   1.000  C
  H101     1.0000 0.76305  0.52610  0.00840  Biso   1.000  H
  C84      1.0000 0.82875  0.65750  0.14300  Biso   1.000  C
  C85      1.0000 0.85300  0.70600  0.19870  Biso   1.000  C
  C86      1.0000 0.89715  0.79430  0.19650  Biso   1.000  C
  O53      1.0000 0.90715  0.81430  0.08690  Biso   1.000  O
  O54      1.0000 0.95900  0.91800  0.14840  Biso   1.000  O
  C87      1.0000 0.92035  0.84070  0.13860  Biso   1.000  C
  H102     1.0000 0.91170  0.82340  0.16140  Biso   1.000  H
  C88      1.0000 0.55680  0.77840  0.54280  Biso   1.000  C
  H103     1.0000 0.52610  0.76305  0.50840  Biso   1.000  H
  C89      1.0000 0.65750  0.82875  0.64300  Biso   1.000  C
  C90      1.0000 0.70600  0.85300  0.69870  Biso   1.000  C
  C91      1.0000 0.79430  0.89715  0.69650  Biso   1.000  C
  O55      1.0000 0.81430  0.90715  0.58690  Biso   1.000  O
  O56      1.0000 0.91800  0.95900  0.64840  Biso   1.000  O
  C92      1.0000 0.84070  0.92035  0.63860  Biso   1.000  C
  H104     1.0000 0.82340  0.91170  0.66140  Biso   1.000  H
  C93      1.0000 0.22160  0.77840  0.54280  Biso   1.000  C
  H105     1.0000 0.23695  0.76305  0.50840  Biso   1.000  H
  C94      1.0000 0.17125  0.82875  0.64300  Biso   1.000  C
  C95      1.0000 0.14700  0.85300  0.69870  Biso   1.000  C
  C96      1.0000 0.10285  0.89715  0.69650  Biso   1.000  C
  O57      1.0000 0.09285  0.90715  0.58690  Biso   1.000  O
  O58      1.0000 0.04100  0.95900  0.64840  Biso   1.000  O
  C97      1.0000 0.07965  0.92035  0.63860  Biso   1.000  C
  H106     1.0000 0.08830  0.91170  0.66140  Biso   1.000  H
  C98      1.0000 0.22160  0.44320  0.54280  Biso   1.000  C
  H107     1.0000 0.23695  0.47390  0.50840  Biso   1.000  H
  C99      1.0000 0.17125  0.34250  0.64300  Biso   1.000  C
  C100     1.0000 0.14700  0.29400  0.69870  Biso   1.000  C
  C101     1.0000 0.10285  0.20570  0.69650  Biso   1.000  C
  O59      1.0000 0.09285  0.18570  0.58690  Biso   1.000  O
  O60      1.0000 0.04100  0.08200  0.64840  Biso   1.000  O
  C102     1.0000 0.07965  0.15930  0.63860  Biso   1.000  C
  H108     1.0000 0.08830  0.17660  0.66140  Biso   1.000  H
  C103     1.0000 0.22160  0.44320  0.95720  Biso   1.000  C
  H109     1.0000 0.23695  0.47390  0.99160  Biso   1.000  H
  C104     1.0000 0.17125  0.34250  0.85700  Biso   1.000  C
  C105     1.0000 0.14700  0.29400  0.80130  Biso   1.000  C
  C106     1.0000 0.10285  0.20570  0.80350  Biso   1.000  C
  O61      1.0000 0.09285  0.18570  0.91310  Biso   1.000  O
  O62      1.0000 0.04100  0.08200  0.85160  Biso   1.000  O
  C107     1.0000 0.07965  0.15930  0.86140  Biso   1.000  C
  H110     1.0000 0.08830  0.17660  0.83860  Biso   1.000  H
  C108     1.0000 0.22160  0.77840  0.95720  Biso   1.000  C
  H111     1.0000 0.23695  0.76305  0.99160  Biso   1.000  H
  C109     1.0000 0.17125  0.82875  0.85700  Biso   1.000  C
  C110     1.0000 0.14700  0.85300  0.80130  Biso   1.000  C
  C111     1.0000 0.10285  0.89715  0.80350  Biso   1.000  C
  O63      1.0000 0.09285  0.90715  0.91310  Biso   1.000  O
  O64      1.0000 0.04100  0.95900  0.85160  Biso   1.000  O
  C112     1.0000 0.07965  0.92035  0.86140  Biso   1.000  C
  H112     1.0000 0.08830  0.91170  0.83860  Biso   1.000  H
  C113     1.0000 0.55680  0.77840  0.95720  Biso   1.000  C
  H113     1.0000 0.52610  0.76305  0.99160  Biso   1.000  H
  C114     1.0000 0.65750  0.82875  0.85700  Biso   1.000  C
  C115     1.0000 0.70600  0.85300  0.80130  Biso   1.000  C
  C116     1.0000 0.79430  0.89715  0.80350  Biso   1.000  C
  O65      1.0000 0.81430  0.90715  0.91310  Biso   1.000  O
  O66      1.0000 0.91800  0.95900  0.85160  Biso   1.000  O
  C117     1.0000 0.84070  0.92035  0.86140  Biso   1.000  C
  H114     1.0000 0.82340  0.91170  0.83860  Biso   1.000  H
  C118     1.0000 0.77840  0.55680  0.45720  Biso   1.000  C
  H115     1.0000 0.76305  0.52610  0.49160  Biso   1.000  H
  C119     1.0000 0.82875  0.65750  0.35700  Biso   1.000  C
  C120     1.0000 0.85300  0.70600  0.30130  Biso   1.000  C
  C121     1.0000 0.89715  0.79430  0.30350  Biso   1.000  C
  O67      1.0000 0.90715  0.81430  0.41310  Biso   1.000  O
  O68      1.0000 0.95900  0.91800  0.35160  Biso   1.000  O
  C122     1.0000 0.92035  0.84070  0.36140  Biso   1.000  C
  H116     1.0000 0.91170  0.82340  0.33860  Biso   1.000  H
  C123     1.0000 0.77840  0.22160  0.45720  Biso   1.000  C
  H117     1.0000 0.76305  0.23695  0.49160  Biso   1.000  H
  C124     1.0000 0.82875  0.17125  0.35700  Biso   1.000  C
  C125     1.0000 0.85300  0.14700  0.30130  Biso   1.000  C
  C126     1.0000 0.89715  0.10285  0.30350  Biso   1.000  C
  O69      1.0000 0.90715  0.09285  0.41310  Biso   1.000  O
  O70      1.0000 0.95900  0.04100  0.35160  Biso   1.000  O
  C127     1.0000 0.92035  0.07965  0.36140  Biso   1.000  C
  H118     1.0000 0.91170  0.08830  0.33860  Biso   1.000  H
  C128     1.0000 0.44320  0.22160  0.45720  Biso   1.000  C
  H119     1.0000 0.47390  0.23695  0.49160  Biso   1.000  H
  C129     1.0000 0.34250  0.17125  0.35700  Biso   1.000  C
  C130     1.0000 0.29400  0.14700  0.30130  Biso   1.000  C
  C131     1.0000 0.20570  0.10285  0.30350  Biso   1.000  C
  O71      1.0000 0.18570  0.09285  0.41310  Biso   1.000  O
  O72      1.0000 0.08200  0.04100  0.35160  Biso   1.000  O
  C132     1.0000 0.15930  0.07965  0.36140  Biso   1.000  C
  H120     1.0000 0.17660  0.08830  0.33860  Biso   1.000  H
  C133     1.0000 0.33480  0.16740  0.25000  Biso   1.000  C
  H121     1.0000 0.39280  0.19640  0.25000  Biso   1.000  H
  C134     1.0000 0.16560  0.08280  0.25000  Biso   1.000  C
  H122     1.0000 0.10750  0.05375  0.25000  Biso   1.000  H
  C135     1.0000 0.83260  0.16740  0.25000  Biso   1.000  C
  H123     1.0000 0.80360  0.19640  0.25000  Biso   1.000  H
  C136     1.0000 0.91720  0.08280  0.25000  Biso   1.000  C
  H124     1.0000 0.94625  0.05375  0.25000  Biso   1.000  H
  C137     1.0000 0.83260  0.66520  0.25000  Biso   1.000  C
  H125     1.0000 0.80360  0.60720  0.25000  Biso   1.000  H
  C138     1.0000 0.91720  0.83440  0.25000  Biso   1.000  C
  H126     1.0000 0.94625  0.89250  0.25000  Biso   1.000  H
  C139     1.0000 0.66520  0.83260  0.75000  Biso   1.000  C
  H127     1.0000 0.60720  0.80360  0.75000  Biso   1.000  H
  C140     1.0000 0.83440  0.91720  0.75000  Biso   1.000  C
  H128     1.0000 0.89250  0.94625  0.75000  Biso   1.000  H
  C141     1.0000 0.16740  0.83260  0.75000  Biso   1.000  C
  H129     1.0000 0.19640  0.80360  0.75000  Biso   1.000  H
  C142     1.0000 0.08280  0.91720  0.75000  Biso   1.000  C
  H130     1.0000 0.05375  0.94625  0.75000  Biso   1.000  H
  C143     1.0000 0.16740  0.33480  0.75000  Biso   1.000  C
  H131     1.0000 0.19640  0.39280  0.75000  Biso   1.000  H
  C144     1.0000 0.08280  0.16560  0.75000  Biso   1.000  C
  H132     1.0000 0.05375  0.10750  0.75000  Biso   1.000  H
