data_image0
_cell_length_a       17.256
_cell_length_b       23.227
_cell_length_c       25.426
_cell_angle_alpha    90
_cell_angle_beta     90
_cell_angle_gamma    90

_symmetry_space_group_name_H-M    "P 1"
_symmetry_int_tables_number       1

loop_
  _symmetry_equiv_pos_as_xyz
  'x, y, z'

loop_
  _atom_site_label
  _atom_site_occupancy
  _atom_site_fract_x
  _atom_site_fract_y
  _atom_site_fract_z
  _atom_site_thermal_displace_type
  _atom_site_B_iso_or_equiv
  _atom_site_type_symbol
  Zn1      1.0000 0.16391  0.34253  0.93779  Biso   1.000  Zn
  O1       1.0000 0.27420  0.46544  0.06099  Biso   1.000  O
  O2       1.0000 0.18500  0.41441  0.10325  Biso   1.000  O
  C1       1.0000 0.23070  0.45750  0.09910  Biso   1.000  C
  C2       1.0000 0.23020  0.50010  0.14150  Biso   1.000  C
  C3       1.0000 0.23230  0.58020  0.22550  Biso   1.000  C
  C4       1.0000 0.28710  0.53940  0.14670  Biso   1.000  C
  H1       1.0000 0.32910  0.53860  0.12380  Biso   1.000  H
  C5       1.0000 0.28360  0.58170  0.18650  Biso   1.000  C
  H2       1.0000 0.31880  0.61200  0.18540  Biso   1.000  H
  C6       1.0000 0.17260  0.54040  0.22340  Biso   1.000  C
  H3       1.0000 0.13230  0.54250  0.24760  Biso   1.000  H
  C7       1.0000 0.17250  0.49570  0.18380  Biso   1.000  C
  H4       1.0000 0.13730  0.46540  0.18510  Biso   1.000  H
  C8       1.0000 0.23610  0.62050  0.26850  Biso   1.000  C
  C9       1.0000 0.28810  0.66560  0.26540  Biso   1.000  C
  H5       1.0000 0.31970  0.66890  0.23600  Biso   1.000  H
  C10      1.0000 0.29460  0.70890  0.30780  Biso   1.000  C
  H6       1.0000 0.33010  0.73900  0.30630  Biso   1.000  H
  C11      1.0000 0.24180  0.70170  0.35230  Biso   1.000  C
  C12      1.0000 0.19390  0.65420  0.35420  Biso   1.000  C
  H7       1.0000 0.16360  0.64730  0.38370  Biso   1.000  H
  C13      1.0000 0.19120  0.61600  0.31100  Biso   1.000  C
  H8       1.0000 0.15590  0.58590  0.31230  Biso   1.000  H
  C14      1.0000 0.24650  0.74360  0.39580  Biso   1.000  C
  O3       1.0000 0.20560  0.73140  0.43780  Biso   1.000  O
  O4       1.0000 0.29190  0.78640  0.38970  Biso   1.000  O
  O5       1.0000 0.05670  0.35380  0.04210  Biso   1.000  O
  C15      1.0000 0.81760  0.38790  0.03180  Biso   1.000  C
  H9       1.0000 0.79420  0.41260  0.05570  Biso   1.000  H
  C16      1.0000 0.89580  0.38400  0.03010  Biso   1.000  C
  H10      1.0000 0.92270  0.40670  0.05410  Biso   1.000  H
  C17      1.0000 0.89560  0.32460  0.95530  Biso   1.000  C
  H11      1.0000 0.92200  0.30660  0.92800  Biso   1.000  H
  C18      1.0000 0.81330  0.32690  0.95790  Biso   1.000  C
  H12      1.0000 0.78400  0.30880  0.93200  Biso   1.000  H
  C19      1.0000 0.25900  0.55600  0.13330  Biso   1.000  C
  H13      1.0000 0.28120  0.56420  0.10090  Biso   1.000  H
  C20      1.0000 0.25660  0.59960  0.17050  Biso   1.000  C
  H14      1.0000 0.26880  0.63770  0.16260  Biso   1.000  H
  C21      1.0000 0.21410  0.52520  0.22990  Biso   1.000  C
  H15      1.0000 0.20110  0.51230  0.26340  Biso   1.000  H
  C22      1.0000 0.21250  0.48490  0.19010  Biso   1.000  C
  H16      1.0000 0.19900  0.44700  0.19740  Biso   1.000  H
  Zn2      1.0000 0.33609  0.84253  0.56221  Biso   1.000  Zn
  O6       1.0000 0.22580  0.96544  0.43901  Biso   1.000  O
  O7       1.0000 0.31500  0.91441  0.39675  Biso   1.000  O
  C23      1.0000 0.26930  0.95750  0.40090  Biso   1.000  C
  C24      1.0000 0.26980  0.00010  0.35850  Biso   1.000  C
  C25      1.0000 0.26770  0.08020  0.27450  Biso   1.000  C
  C26      1.0000 0.21290  0.03940  0.35330  Biso   1.000  C
  H17      1.0000 0.17090  0.03860  0.37620  Biso   1.000  H
  C27      1.0000 0.21640  0.08170  0.31350  Biso   1.000  C
  H18      1.0000 0.18120  0.11200  0.31460  Biso   1.000  H
  C28      1.0000 0.32740  0.04040  0.27660  Biso   1.000  C
  H19      1.0000 0.36770  0.04250  0.25240  Biso   1.000  H
  C29      1.0000 0.32750  0.99570  0.31620  Biso   1.000  C
  H20      1.0000 0.36270  0.96540  0.31490  Biso   1.000  H
  C30      1.0000 0.26390  0.12050  0.23150  Biso   1.000  C
  C31      1.0000 0.21190  0.16560  0.23460  Biso   1.000  C
  H21      1.0000 0.18030  0.16890  0.26400  Biso   1.000  H
  C32      1.0000 0.20540  0.20890  0.19220  Biso   1.000  C
  H22      1.0000 0.16990  0.23900  0.19370  Biso   1.000  H
  C33      1.0000 0.25820  0.20170  0.14770  Biso   1.000  C
  C34      1.0000 0.30610  0.15420  0.14580  Biso   1.000  C
  H23      1.0000 0.33640  0.14730  0.11630  Biso   1.000  H
  C35      1.0000 0.30880  0.11600  0.18900  Biso   1.000  C
  H24      1.0000 0.34410  0.08590  0.18770  Biso   1.000  H
  C36      1.0000 0.25350  0.24360  0.10420  Biso   1.000  C
  O8       1.0000 0.29440  0.23140  0.06220  Biso   1.000  O
  O9       1.0000 0.20810  0.28640  0.11030  Biso   1.000  O
  O10      1.0000 0.44330  0.85380  0.45790  Biso   1.000  O
  C37      1.0000 0.68240  0.88790  0.46820  Biso   1.000  C
  H25      1.0000 0.70580  0.91260  0.44430  Biso   1.000  H
  C38      1.0000 0.60420  0.88400  0.46990  Biso   1.000  C
  H26      1.0000 0.57730  0.90670  0.44590  Biso   1.000  H
  C39      1.0000 0.60440  0.82460  0.54470  Biso   1.000  C
  H27      1.0000 0.57800  0.80660  0.57200  Biso   1.000  H
  C40      1.0000 0.68670  0.82690  0.54210  Biso   1.000  C
  H28      1.0000 0.71600  0.80880  0.56800  Biso   1.000  H
  C41      1.0000 0.24100  0.05600  0.36670  Biso   1.000  C
  H29      1.0000 0.21880  0.06420  0.39910  Biso   1.000  H
  C42      1.0000 0.24340  0.09960  0.32950  Biso   1.000  C
  H30      1.0000 0.23120  0.13770  0.33740  Biso   1.000  H
  C43      1.0000 0.28590  0.02520  0.27010  Biso   1.000  C
  H31      1.0000 0.29890  0.01230  0.23660  Biso   1.000  H
  C44      1.0000 0.28750  0.98490  0.30990  Biso   1.000  C
  H32      1.0000 0.30100  0.94700  0.30260  Biso   1.000  H
  Zn3      1.0000 0.16391  0.34253  0.06221  Biso   1.000  Zn
  O11      1.0000 0.27420  0.46544  0.93901  Biso   1.000  O
  O12      1.0000 0.18500  0.41441  0.89675  Biso   1.000  O
  C45      1.0000 0.23070  0.45750  0.90090  Biso   1.000  C
  C46      1.0000 0.23020  0.50010  0.85850  Biso   1.000  C
  C47      1.0000 0.23230  0.58020  0.77450  Biso   1.000  C
  C48      1.0000 0.28710  0.53940  0.85330  Biso   1.000  C
  H33      1.0000 0.32910  0.53860  0.87620  Biso   1.000  H
  C49      1.0000 0.28360  0.58170  0.81350  Biso   1.000  C
  H34      1.0000 0.31880  0.61200  0.81460  Biso   1.000  H
  C50      1.0000 0.17260  0.54040  0.77660  Biso   1.000  C
  H35      1.0000 0.13230  0.54250  0.75240  Biso   1.000  H
  C51      1.0000 0.17250  0.49570  0.81620  Biso   1.000  C
  H36      1.0000 0.13730  0.46540  0.81490  Biso   1.000  H
  C52      1.0000 0.23610  0.62050  0.73150  Biso   1.000  C
  C53      1.0000 0.28810  0.66560  0.73460  Biso   1.000  C
  H37      1.0000 0.31970  0.66890  0.76400  Biso   1.000  H
  C54      1.0000 0.29460  0.70890  0.69220  Biso   1.000  C
  H38      1.0000 0.33010  0.73900  0.69370  Biso   1.000  H
  C55      1.0000 0.24180  0.70170  0.64770  Biso   1.000  C
  C56      1.0000 0.19390  0.65420  0.64580  Biso   1.000  C
  H39      1.0000 0.16360  0.64730  0.61630  Biso   1.000  H
  C57      1.0000 0.19120  0.61600  0.68900  Biso   1.000  C
  H40      1.0000 0.15590  0.58590  0.68770  Biso   1.000  H
  C58      1.0000 0.24650  0.74360  0.60420  Biso   1.000  C
  O13      1.0000 0.20560  0.73140  0.56220  Biso   1.000  O
  O14      1.0000 0.29190  0.78640  0.61030  Biso   1.000  O
  O15      1.0000 0.05670  0.35380  0.95790  Biso   1.000  O
  C59      1.0000 0.81760  0.38790  0.96820  Biso   1.000  C
  H41      1.0000 0.79420  0.41260  0.94430  Biso   1.000  H
  C60      1.0000 0.89580  0.38400  0.96990  Biso   1.000  C
  H42      1.0000 0.92270  0.40670  0.94590  Biso   1.000  H
  C61      1.0000 0.89560  0.32460  0.04470  Biso   1.000  C
  H43      1.0000 0.92200  0.30660  0.07200  Biso   1.000  H
  C62      1.0000 0.81330  0.32690  0.04210  Biso   1.000  C
  H44      1.0000 0.78400  0.30880  0.06800  Biso   1.000  H
  C63      1.0000 0.25900  0.55600  0.86670  Biso   1.000  C
  H45      1.0000 0.28120  0.56420  0.89910  Biso   1.000  H
  C64      1.0000 0.25660  0.59960  0.82950  Biso   1.000  C
  H46      1.0000 0.26880  0.63770  0.83740  Biso   1.000  H
  C65      1.0000 0.21410  0.52520  0.77010  Biso   1.000  C
  H47      1.0000 0.20110  0.51230  0.73660  Biso   1.000  H
  C66      1.0000 0.21250  0.48490  0.80990  Biso   1.000  C
  H48      1.0000 0.19900  0.44700  0.80260  Biso   1.000  H
  Zn4      1.0000 0.33609  0.84253  0.43779  Biso   1.000  Zn
  O16      1.0000 0.22580  0.96544  0.56099  Biso   1.000  O
  O17      1.0000 0.31500  0.91441  0.60325  Biso   1.000  O
  C67      1.0000 0.26930  0.95750  0.59910  Biso   1.000  C
  C68      1.0000 0.26980  0.00010  0.64150  Biso   1.000  C
  C69      1.0000 0.26770  0.08020  0.72550  Biso   1.000  C
  C70      1.0000 0.21290  0.03940  0.64670  Biso   1.000  C
  H49      1.0000 0.17090  0.03860  0.62380  Biso   1.000  H
  C71      1.0000 0.21640  0.08170  0.68650  Biso   1.000  C
  H50      1.0000 0.18120  0.11200  0.68540  Biso   1.000  H
  C72      1.0000 0.32740  0.04040  0.72340  Biso   1.000  C
  H51      1.0000 0.36770  0.04250  0.74760  Biso   1.000  H
  C73      1.0000 0.32750  0.99570  0.68380  Biso   1.000  C
  H52      1.0000 0.36270  0.96540  0.68510  Biso   1.000  H
  C74      1.0000 0.26390  0.12050  0.76850  Biso   1.000  C
  C75      1.0000 0.21190  0.16560  0.76540  Biso   1.000  C
  H53      1.0000 0.18030  0.16890  0.73600  Biso   1.000  H
  C76      1.0000 0.20540  0.20890  0.80780  Biso   1.000  C
  H54      1.0000 0.16990  0.23900  0.80630  Biso   1.000  H
  C77      1.0000 0.25820  0.20170  0.85230  Biso   1.000  C
  C78      1.0000 0.30610  0.15420  0.85420  Biso   1.000  C
  H55      1.0000 0.33640  0.14730  0.88370  Biso   1.000  H
  C79      1.0000 0.30880  0.11600  0.81100  Biso   1.000  C
  H56      1.0000 0.34410  0.08590  0.81230  Biso   1.000  H
  C80      1.0000 0.25350  0.24360  0.89580  Biso   1.000  C
  O18      1.0000 0.29440  0.23140  0.93780  Biso   1.000  O
  O19      1.0000 0.20810  0.28640  0.88970  Biso   1.000  O
  O20      1.0000 0.44330  0.85380  0.54210  Biso   1.000  O
  C81      1.0000 0.68240  0.88790  0.53180  Biso   1.000  C
  H57      1.0000 0.70580  0.91260  0.55570  Biso   1.000  H
  C82      1.0000 0.60420  0.88400  0.53010  Biso   1.000  C
  H58      1.0000 0.57730  0.90670  0.55410  Biso   1.000  H
  C83      1.0000 0.60440  0.82460  0.45530  Biso   1.000  C
  H59      1.0000 0.57800  0.80660  0.42800  Biso   1.000  H
  C84      1.0000 0.68670  0.82690  0.45790  Biso   1.000  C
  H60      1.0000 0.71600  0.80880  0.43200  Biso   1.000  H
  C85      1.0000 0.24100  0.05600  0.63330  Biso   1.000  C
  H61      1.0000 0.21880  0.06420  0.60090  Biso   1.000  H
  C86      1.0000 0.24340  0.09960  0.67050  Biso   1.000  C
  H62      1.0000 0.23120  0.13770  0.66260  Biso   1.000  H
  C87      1.0000 0.28590  0.02520  0.72990  Biso   1.000  C
  H63      1.0000 0.29890  0.01230  0.76340  Biso   1.000  H
  C88      1.0000 0.28750  0.98490  0.69010  Biso   1.000  C
  H64      1.0000 0.30100  0.94700  0.69740  Biso   1.000  H
  Zn5      1.0000 0.29128  0.41652  0.00000  Biso   1.000  Zn
  Zn6      1.0000 0.29801  0.27917  0.00000  Biso   1.000  Zn
  O21      1.0000 0.23000  0.34704  0.00000  Biso   1.000  O
  O22      1.0000 0.40350  0.40560  0.00000  Biso   1.000  O
  O23      1.0000 0.40490  0.30730  0.00000  Biso   1.000  O
  C89      1.0000 0.43840  0.35550  0.00000  Biso   1.000  C
  C90      1.0000 0.52250  0.35840  0.00000  Biso   1.000  C
  C91      1.0000 0.56640  0.30670  0.00000  Biso   1.000  C
  H65      1.0000 0.54070  0.27150  0.00000  Biso   1.000  H
  C92      1.0000 0.64430  0.30740  0.00000  Biso   1.000  C
  H66      1.0000 0.67080  0.27260  0.00000  Biso   1.000  H
  C93      1.0000 0.68720  0.35900  0.00000  Biso   1.000  C
  C94      1.0000 0.64740  0.40620  0.00000  Biso   1.000  C
  H67      1.0000 0.67410  0.44100  0.00000  Biso   1.000  H
  C95      1.0000 0.56610  0.40800  0.00000  Biso   1.000  C
  H68      1.0000 0.54110  0.44340  0.00000  Biso   1.000  H
  C96      1.0000 0.77460  0.35700  0.00000  Biso   1.000  C
  C97      1.0000 0.93630  0.35350  0.00000  Biso   1.000  C
  C98      1.0000 0.02390  0.35590  0.00000  Biso   1.000  C
  Zn7      1.0000 0.20872  0.91652  0.50000  Biso   1.000  Zn
  Zn8      1.0000 0.20199  0.77917  0.50000  Biso   1.000  Zn
  O24      1.0000 0.27000  0.84704  0.50000  Biso   1.000  O
  O25      1.0000 0.09650  0.90560  0.50000  Biso   1.000  O
  O26      1.0000 0.09510  0.80730  0.50000  Biso   1.000  O
  C99      1.0000 0.06160  0.85550  0.50000  Biso   1.000  C
  C100     1.0000 0.97750  0.85840  0.50000  Biso   1.000  C
  C101     1.0000 0.93360  0.80670  0.50000  Biso   1.000  C
  H69      1.0000 0.95930  0.77150  0.50000  Biso   1.000  H
  C102     1.0000 0.85570  0.80740  0.50000  Biso   1.000  C
  H70      1.0000 0.82920  0.77260  0.50000  Biso   1.000  H
  C103     1.0000 0.81280  0.85900  0.50000  Biso   1.000  C
  C104     1.0000 0.85260  0.90620  0.50000  Biso   1.000  C
  H71      1.0000 0.82590  0.94100  0.50000  Biso   1.000  H
  C105     1.0000 0.93390  0.90800  0.50000  Biso   1.000  C
  H72      1.0000 0.95890  0.94340  0.50000  Biso   1.000  H
  C106     1.0000 0.72540  0.85700  0.50000  Biso   1.000  C
  C107     1.0000 0.56370  0.85350  0.50000  Biso   1.000  C
  C108     1.0000 0.47610  0.85590  0.50000  Biso   1.000  C
  Zn9      1.0000 0.83609  0.65747  0.93779  Biso   1.000  Zn
  O27      1.0000 0.72580  0.53456  0.06099  Biso   1.000  O
  O28      1.0000 0.81500  0.58559  0.10325  Biso   1.000  O
  C109     1.0000 0.76930  0.54250  0.09910  Biso   1.000  C
  C110     1.0000 0.76980  0.49990  0.14150  Biso   1.000  C
  C111     1.0000 0.76770  0.41980  0.22550  Biso   1.000  C
  C112     1.0000 0.71290  0.46060  0.14670  Biso   1.000  C
  H73      1.0000 0.67090  0.46140  0.12380  Biso   1.000  H
  C113     1.0000 0.71640  0.41830  0.18650  Biso   1.000  C
  H74      1.0000 0.68120  0.38800  0.18540  Biso   1.000  H
  C114     1.0000 0.82740  0.45960  0.22340  Biso   1.000  C
  H75      1.0000 0.86770  0.45750  0.24760  Biso   1.000  H
  C115     1.0000 0.82750  0.50430  0.18380  Biso   1.000  C
  H76      1.0000 0.86270  0.53460  0.18510  Biso   1.000  H
  C116     1.0000 0.76390  0.37950  0.26850  Biso   1.000  C
  C117     1.0000 0.71190  0.33440  0.26540  Biso   1.000  C
  H77      1.0000 0.68030  0.33110  0.23600  Biso   1.000  H
  C118     1.0000 0.70540  0.29110  0.30780  Biso   1.000  C
  H78      1.0000 0.66990  0.26100  0.30630  Biso   1.000  H
  C119     1.0000 0.75820  0.29830  0.35230  Biso   1.000  C
  C120     1.0000 0.80610  0.34580  0.35420  Biso   1.000  C
  H79      1.0000 0.83640  0.35270  0.38370  Biso   1.000  H
  C121     1.0000 0.80880  0.38400  0.31100  Biso   1.000  C
  H80      1.0000 0.84410  0.41410  0.31230  Biso   1.000  H
  C122     1.0000 0.75350  0.25640  0.39580  Biso   1.000  C
  O29      1.0000 0.79440  0.26860  0.43780  Biso   1.000  O
  O30      1.0000 0.70810  0.21360  0.38970  Biso   1.000  O
  O31      1.0000 0.94330  0.64620  0.04210  Biso   1.000  O
  C123     1.0000 0.18240  0.61210  0.03180  Biso   1.000  C
  H81      1.0000 0.20580  0.58740  0.05570  Biso   1.000  H
  C124     1.0000 0.10420  0.61600  0.03010  Biso   1.000  C
  H82      1.0000 0.07730  0.59330  0.05410  Biso   1.000  H
  C125     1.0000 0.10440  0.67540  0.95530  Biso   1.000  C
  H83      1.0000 0.07800  0.69340  0.92800  Biso   1.000  H
  C126     1.0000 0.18670  0.67310  0.95790  Biso   1.000  C
  H84      1.0000 0.21600  0.69120  0.93200  Biso   1.000  H
  C127     1.0000 0.74100  0.44400  0.13330  Biso   1.000  C
  H85      1.0000 0.71880  0.43580  0.10090  Biso   1.000  H
  C128     1.0000 0.74340  0.40040  0.17050  Biso   1.000  C
  H86      1.0000 0.73120  0.36230  0.16260  Biso   1.000  H
  C129     1.0000 0.78590  0.47480  0.22990  Biso   1.000  C
  H87      1.0000 0.79890  0.48770  0.26340  Biso   1.000  H
  C130     1.0000 0.78750  0.51510  0.19010  Biso   1.000  C
  H88      1.0000 0.80100  0.55300  0.19740  Biso   1.000  H
  Zn10     1.0000 0.66391  0.15747  0.56221  Biso   1.000  Zn
  O32      1.0000 0.77420  0.03456  0.43901  Biso   1.000  O
  O33      1.0000 0.68500  0.08559  0.39675  Biso   1.000  O
  C131     1.0000 0.73070  0.04250  0.40090  Biso   1.000  C
  C132     1.0000 0.73020  0.99990  0.35850  Biso   1.000  C
  C133     1.0000 0.73230  0.91980  0.27450  Biso   1.000  C
  C134     1.0000 0.78710  0.96060  0.35330  Biso   1.000  C
  H89      1.0000 0.82910  0.96140  0.37620  Biso   1.000  H
  C135     1.0000 0.78360  0.91830  0.31350  Biso   1.000  C
  H90      1.0000 0.81880  0.88800  0.31460  Biso   1.000  H
  C136     1.0000 0.67260  0.95960  0.27660  Biso   1.000  C
  H91      1.0000 0.63230  0.95750  0.25240  Biso   1.000  H
  C137     1.0000 0.67250  0.00430  0.31620  Biso   1.000  C
  H92      1.0000 0.63730  0.03460  0.31490  Biso   1.000  H
  C138     1.0000 0.73610  0.87950  0.23150  Biso   1.000  C
  C139     1.0000 0.78810  0.83440  0.23460  Biso   1.000  C
  H93      1.0000 0.81970  0.83110  0.26400  Biso   1.000  H
  C140     1.0000 0.79460  0.79110  0.19220  Biso   1.000  C
  H94      1.0000 0.83010  0.76100  0.19370  Biso   1.000  H
  C141     1.0000 0.74180  0.79830  0.14770  Biso   1.000  C
  C142     1.0000 0.69390  0.84580  0.14580  Biso   1.000  C
  H95      1.0000 0.66360  0.85270  0.11630  Biso   1.000  H
  C143     1.0000 0.69120  0.88400  0.18900  Biso   1.000  C
  H96      1.0000 0.65590  0.91410  0.18770  Biso   1.000  H
  C144     1.0000 0.74650  0.75640  0.10420  Biso   1.000  C
  O34      1.0000 0.70560  0.76860  0.06220  Biso   1.000  O
  O35      1.0000 0.79190  0.71360  0.11030  Biso   1.000  O
  O36      1.0000 0.55670  0.14620  0.45790  Biso   1.000  O
  C145     1.0000 0.31760  0.11210  0.46820  Biso   1.000  C
  H97      1.0000 0.29420  0.08740  0.44430  Biso   1.000  H
  C146     1.0000 0.39580  0.11600  0.46990  Biso   1.000  C
  H98      1.0000 0.42270  0.09330  0.44590  Biso   1.000  H
  C147     1.0000 0.39560  0.17540  0.54470  Biso   1.000  C
  H99      1.0000 0.42200  0.19340  0.57200  Biso   1.000  H
  C148     1.0000 0.31330  0.17310  0.54210  Biso   1.000  C
  H100     1.0000 0.28400  0.19120  0.56800  Biso   1.000  H
  C149     1.0000 0.75900  0.94400  0.36670  Biso   1.000  C
  H101     1.0000 0.78120  0.93580  0.39910  Biso   1.000  H
  C150     1.0000 0.75660  0.90040  0.32950  Biso   1.000  C
  H102     1.0000 0.76880  0.86230  0.33740  Biso   1.000  H
  C151     1.0000 0.71410  0.97480  0.27010  Biso   1.000  C
  H103     1.0000 0.70110  0.98770  0.23660  Biso   1.000  H
  C152     1.0000 0.71250  0.01510  0.30990  Biso   1.000  C
  H104     1.0000 0.69900  0.05300  0.30260  Biso   1.000  H
  Zn11     1.0000 0.83609  0.65747  0.06221  Biso   1.000  Zn
  O37      1.0000 0.72580  0.53456  0.93901  Biso   1.000  O
  O38      1.0000 0.81500  0.58559  0.89675  Biso   1.000  O
  C153     1.0000 0.76930  0.54250  0.90090  Biso   1.000  C
  C154     1.0000 0.76980  0.49990  0.85850  Biso   1.000  C
  C155     1.0000 0.76770  0.41980  0.77450  Biso   1.000  C
  C156     1.0000 0.71290  0.46060  0.85330  Biso   1.000  C
  H105     1.0000 0.67090  0.46140  0.87620  Biso   1.000  H
  C157     1.0000 0.71640  0.41830  0.81350  Biso   1.000  C
  H106     1.0000 0.68120  0.38800  0.81460  Biso   1.000  H
  C158     1.0000 0.82740  0.45960  0.77660  Biso   1.000  C
  H107     1.0000 0.86770  0.45750  0.75240  Biso   1.000  H
  C159     1.0000 0.82750  0.50430  0.81620  Biso   1.000  C
  H108     1.0000 0.86270  0.53460  0.81490  Biso   1.000  H
  C160     1.0000 0.76390  0.37950  0.73150  Biso   1.000  C
  C161     1.0000 0.71190  0.33440  0.73460  Biso   1.000  C
  H109     1.0000 0.68030  0.33110  0.76400  Biso   1.000  H
  C162     1.0000 0.70540  0.29110  0.69220  Biso   1.000  C
  H110     1.0000 0.66990  0.26100  0.69370  Biso   1.000  H
  C163     1.0000 0.75820  0.29830  0.64770  Biso   1.000  C
  C164     1.0000 0.80610  0.34580  0.64580  Biso   1.000  C
  H111     1.0000 0.83640  0.35270  0.61630  Biso   1.000  H
  C165     1.0000 0.80880  0.38400  0.68900  Biso   1.000  C
  H112     1.0000 0.84410  0.41410  0.68770  Biso   1.000  H
  C166     1.0000 0.75350  0.25640  0.60420  Biso   1.000  C
  O39      1.0000 0.79440  0.26860  0.56220  Biso   1.000  O
  O40      1.0000 0.70810  0.21360  0.61030  Biso   1.000  O
  O41      1.0000 0.94330  0.64620  0.95790  Biso   1.000  O
  C167     1.0000 0.18240  0.61210  0.96820  Biso   1.000  C
  H113     1.0000 0.20580  0.58740  0.94430  Biso   1.000  H
  C168     1.0000 0.10420  0.61600  0.96990  Biso   1.000  C
  H114     1.0000 0.07730  0.59330  0.94590  Biso   1.000  H
  C169     1.0000 0.10440  0.67540  0.04470  Biso   1.000  C
  H115     1.0000 0.07800  0.69340  0.07200  Biso   1.000  H
  C170     1.0000 0.18670  0.67310  0.04210  Biso   1.000  C
  H116     1.0000 0.21600  0.69120  0.06800  Biso   1.000  H
  C171     1.0000 0.74100  0.44400  0.86670  Biso   1.000  C
  H117     1.0000 0.71880  0.43580  0.89910  Biso   1.000  H
  C172     1.0000 0.74340  0.40040  0.82950  Biso   1.000  C
  H118     1.0000 0.73120  0.36230  0.83740  Biso   1.000  H
  C173     1.0000 0.78590  0.47480  0.77010  Biso   1.000  C
  H119     1.0000 0.79890  0.48770  0.73660  Biso   1.000  H
  C174     1.0000 0.78750  0.51510  0.80990  Biso   1.000  C
  H120     1.0000 0.80100  0.55300  0.80260  Biso   1.000  H
  Zn12     1.0000 0.66391  0.15747  0.43779  Biso   1.000  Zn
  O42      1.0000 0.77420  0.03456  0.56099  Biso   1.000  O
  O43      1.0000 0.68500  0.08559  0.60325  Biso   1.000  O
  C175     1.0000 0.73070  0.04250  0.59910  Biso   1.000  C
  C176     1.0000 0.73020  0.99990  0.64150  Biso   1.000  C
  C177     1.0000 0.73230  0.91980  0.72550  Biso   1.000  C
  C178     1.0000 0.78710  0.96060  0.64670  Biso   1.000  C
  H121     1.0000 0.82910  0.96140  0.62380  Biso   1.000  H
  C179     1.0000 0.78360  0.91830  0.68650  Biso   1.000  C
  H122     1.0000 0.81880  0.88800  0.68540  Biso   1.000  H
  C180     1.0000 0.67260  0.95960  0.72340  Biso   1.000  C
  H123     1.0000 0.63230  0.95750  0.74760  Biso   1.000  H
  C181     1.0000 0.67250  0.00430  0.68380  Biso   1.000  C
  H124     1.0000 0.63730  0.03460  0.68510  Biso   1.000  H
  C182     1.0000 0.73610  0.87950  0.76850  Biso   1.000  C
  C183     1.0000 0.78810  0.83440  0.76540  Biso   1.000  C
  H125     1.0000 0.81970  0.83110  0.73600  Biso   1.000  H
  C184     1.0000 0.79460  0.79110  0.80780  Biso   1.000  C
  H126     1.0000 0.83010  0.76100  0.80630  Biso   1.000  H
  C185     1.0000 0.74180  0.79830  0.85230  Biso   1.000  C
  C186     1.0000 0.69390  0.84580  0.85420  Biso   1.000  C
  H127     1.0000 0.66360  0.85270  0.88370  Biso   1.000  H
  C187     1.0000 0.69120  0.88400  0.81100  Biso   1.000  C
  H128     1.0000 0.65590  0.91410  0.81230  Biso   1.000  H
  C188     1.0000 0.74650  0.75640  0.89580  Biso   1.000  C
  O44      1.0000 0.70560  0.76860  0.93780  Biso   1.000  O
  O45      1.0000 0.79190  0.71360  0.88970  Biso   1.000  O
  O46      1.0000 0.55670  0.14620  0.54210  Biso   1.000  O
  C189     1.0000 0.31760  0.11210  0.53180  Biso   1.000  C
  H129     1.0000 0.29420  0.08740  0.55570  Biso   1.000  H
  C190     1.0000 0.39580  0.11600  0.53010  Biso   1.000  C
  H130     1.0000 0.42270  0.09330  0.55410  Biso   1.000  H
  C191     1.0000 0.39560  0.17540  0.45530  Biso   1.000  C
  H131     1.0000 0.42200  0.19340  0.42800  Biso   1.000  H
  C192     1.0000 0.31330  0.17310  0.45790  Biso   1.000  C
  H132     1.0000 0.28400  0.19120  0.43200  Biso   1.000  H
  C193     1.0000 0.75900  0.94400  0.63330  Biso   1.000  C
  H133     1.0000 0.78120  0.93580  0.60090  Biso   1.000  H
  C194     1.0000 0.75660  0.90040  0.67050  Biso   1.000  C
  H134     1.0000 0.76880  0.86230  0.66260  Biso   1.000  H
  C195     1.0000 0.71410  0.97480  0.72990  Biso   1.000  C
  H135     1.0000 0.70110  0.98770  0.76340  Biso   1.000  H
  C196     1.0000 0.71250  0.01510  0.69010  Biso   1.000  C
  H136     1.0000 0.69900  0.05300  0.69740  Biso   1.000  H
  Zn13     1.0000 0.70872  0.58348  0.00000  Biso   1.000  Zn
  Zn14     1.0000 0.70199  0.72083  0.00000  Biso   1.000  Zn
  O47      1.0000 0.77000  0.65296  0.00000  Biso   1.000  O
  O48      1.0000 0.59650  0.59440  0.00000  Biso   1.000  O
  O49      1.0000 0.59510  0.69270  0.00000  Biso   1.000  O
  C197     1.0000 0.56160  0.64450  0.00000  Biso   1.000  C
  C198     1.0000 0.47750  0.64160  0.00000  Biso   1.000  C
  C199     1.0000 0.43360  0.69330  0.00000  Biso   1.000  C
  H137     1.0000 0.45930  0.72850  0.00000  Biso   1.000  H
  C200     1.0000 0.35570  0.69260  0.00000  Biso   1.000  C
  H138     1.0000 0.32920  0.72740  0.00000  Biso   1.000  H
  C201     1.0000 0.31280  0.64100  0.00000  Biso   1.000  C
  C202     1.0000 0.35260  0.59380  0.00000  Biso   1.000  C
  H139     1.0000 0.32590  0.55900  0.00000  Biso   1.000  H
  C203     1.0000 0.43390  0.59200  0.00000  Biso   1.000  C
  H140     1.0000 0.45890  0.55660  0.00000  Biso   1.000  H
  C204     1.0000 0.22540  0.64300  0.00000  Biso   1.000  C
  C205     1.0000 0.06370  0.64650  0.00000  Biso   1.000  C
  C206     1.0000 0.97610  0.64410  0.00000  Biso   1.000  C
  Zn15     1.0000 0.79128  0.08348  0.50000  Biso   1.000  Zn
  Zn16     1.0000 0.79801  0.22083  0.50000  Biso   1.000  Zn
  O50      1.0000 0.73000  0.15296  0.50000  Biso   1.000  O
  O51      1.0000 0.90350  0.09440  0.50000  Biso   1.000  O
  O52      1.0000 0.90490  0.19270  0.50000  Biso   1.000  O
  C207     1.0000 0.93840  0.14450  0.50000  Biso   1.000  C
  C208     1.0000 0.02250  0.14160  0.50000  Biso   1.000  C
  C209     1.0000 0.06640  0.19330  0.50000  Biso   1.000  C
  H141     1.0000 0.04070  0.22850  0.50000  Biso   1.000  H
  C210     1.0000 0.14430  0.19260  0.50000  Biso   1.000  C
  H142     1.0000 0.17080  0.22740  0.50000  Biso   1.000  H
  C211     1.0000 0.18720  0.14100  0.50000  Biso   1.000  C
  C212     1.0000 0.14740  0.09380  0.50000  Biso   1.000  C
  H143     1.0000 0.17410  0.05900  0.50000  Biso   1.000  H
  C213     1.0000 0.06610  0.09200  0.50000  Biso   1.000  C
  H144     1.0000 0.04110  0.05660  0.50000  Biso   1.000  H
  C214     1.0000 0.27460  0.14300  0.50000  Biso   1.000  C
  C215     1.0000 0.43630  0.14650  0.50000  Biso   1.000  C
  C216     1.0000 0.52390  0.14410  0.50000  Biso   1.000  C
