data_image0
_cell_length_a       43.7247
_cell_length_b       12.9362
_cell_length_c       8.4965
_cell_angle_alpha    90
_cell_angle_beta     94.3334
_cell_angle_gamma    90

_symmetry_space_group_name_H-M    "P 1"
_symmetry_int_tables_number       1

loop_
  _symmetry_equiv_pos_as_xyz
  'x, y, z'

loop_
  _atom_site_label
  _atom_site_occupancy
  _atom_site_fract_x
  _atom_site_fract_y
  _atom_site_fract_z
  _atom_site_thermal_displace_type
  _atom_site_B_iso_or_equiv
  _atom_site_type_symbol
  O1       1.0000 0.44640  0.58850  0.79470  Biso   1.000  O
  O2       1.0000 0.02794  0.95660  0.50240  Biso   1.000  O
  O3       1.0000 0.05478  0.94390  0.72880  Biso   1.000  O
  O4       1.0000 0.46954  0.52010  0.00540  Biso   1.000  O
  O5       1.0000 0.25330  0.11980  0.35680  Biso   1.000  O
  O6       1.0000 0.24718  0.34400  0.21550  Biso   1.000  O
  O7       1.0000 0.19737  0.38840  0.34140  Biso   1.000  O
  O8       1.0000 0.30461  0.07510  0.24460  Biso   1.000  O
  C1       1.0000 0.22501  0.14740  0.42140  Biso   1.000  C
  H1       1.0000 0.20770  0.12690  0.34780  Biso   1.000  H
  H2       1.0000 0.22440  0.22230  0.43810  Biso   1.000  H
  H3       1.0000 0.22350  0.11180  0.52240  Biso   1.000  H
  C2       1.0000 0.16967  0.40930  0.41590  Biso   1.000  C
  H4       1.0000 0.15620  0.45290  0.34660  Biso   1.000  H
  H5       1.0000 0.17470  0.44520  0.51610  Biso   1.000  H
  H6       1.0000 0.15930  0.34400  0.43590  Biso   1.000  H
  C3       1.0000 0.27425  0.31670  0.14160  Biso   1.000  C
  H7       1.0000 0.27350  0.34700  0.03570  Biso   1.000  H
  H8       1.0000 0.27560  0.24130  0.13360  Biso   1.000  H
  H9       1.0000 0.29230  0.34300  0.20470  Biso   1.000  H
  C4       1.0000 0.13490  0.84950  0.50520  Biso   1.000  C
  C5       1.0000 0.05364  0.93630  0.58230  Biso   1.000  C
  C6       1.0000 0.31476  0.72090  0.00350  Biso   1.000  C
  H10      1.0000 0.30040  0.76390  0.94490  Biso   1.000  H
  C7       1.0000 0.18609  0.77980  0.54870  Biso   1.000  C
  H11      1.0000 0.20190  0.75310  0.62030  Biso   1.000  H
  C8       1.0000 0.10659  0.88100  0.57230  Biso   1.000  C
  H12      1.0000 0.10750  0.88620  0.68410  Biso   1.000  H
  C9       1.0000 0.15881  0.81130  0.60460  Biso   1.000  C
  H13      1.0000 0.15630  0.80660  0.71450  Biso   1.000  H
  C10      1.0000 0.34262  0.69770  0.94270  Biso   1.000  C
  H14      1.0000 0.34700  0.72520  0.84310  Biso   1.000  H
  C11      1.0000 0.39346  0.61590  0.95500  Biso   1.000  C
  H15      1.0000 0.39500  0.64090  0.85080  Biso   1.000  H
  C12      1.0000 0.33146  0.05620  0.16570  Biso   1.000  C
  H16      1.0000 0.32580  0.02440  0.06280  Biso   1.000  H
  H17      1.0000 0.34500  0.00940  0.22920  Biso   1.000  H
  H18      1.0000 0.34210  0.12160  0.15030  Biso   1.000  H
  C13      1.0000 0.07991  0.90320  0.49760  Biso   1.000  C
  H19      1.0000 0.07760  0.89750  0.38580  Biso   1.000  H
  C14      1.0000 0.23657  0.94120  0.34910  Biso   1.000  C
  H20      1.0000 0.21750  0.95870  0.38880  Biso   1.000  H
  C15      1.0000 0.41758  0.56820  0.02030  Biso   1.000  C
  H21      1.0000 0.41720  0.53970  0.12310  Biso   1.000  H
  C16      1.0000 0.19078  0.78630  0.39220  Biso   1.000  C
  C17      1.0000 0.28599  0.99180  0.26390  Biso   1.000  C
  C18      1.0000 0.25639  0.62890  0.23640  Biso   1.000  C
  C19      1.0000 0.26242  0.52300  0.20280  Biso   1.000  C
  H22      1.0000 0.28060  0.50530  0.15450  Biso   1.000  H
  C20      1.0000 0.30759  0.68190  0.14880  Biso   1.000  C
  C21      1.0000 0.36414  0.63540  0.02450  Biso   1.000  C
  C22      1.0000 0.29276  0.89250  0.23290  Biso   1.000  C
  H23      1.0000 0.31240  0.87640  0.19810  Biso   1.000  H
  C23      1.0000 0.13897  0.85210  0.34490  Biso   1.000  C
  H24      1.0000 0.12270  0.87470  0.27240  Biso   1.000  H
  C24      1.0000 0.32938  0.61710  0.22990  Biso   1.000  C
  H25      1.0000 0.32500  0.58830  0.32860  Biso   1.000  H
  C25      1.0000 0.44591  0.55880  0.93160  Biso   1.000  C
  C26      1.0000 0.27134  0.81110  0.25090  Biso   1.000  C
  C27      1.0000 0.21449  0.47210  0.30980  Biso   1.000  C
  C28      1.0000 0.24259  0.83590  0.31430  Biso   1.000  C
  C29      1.0000 0.25711  0.01770  0.32770  Biso   1.000  C
  C30      1.0000 0.35687  0.59460  0.16910  Biso   1.000  C
  H26      1.0000 0.37110  0.55070  0.22630  Biso   1.000  H
  C31      1.0000 0.20714  0.57190  0.33210  Biso   1.000  C
  H27      1.0000 0.18780  0.58800  0.37020  Biso   1.000  H
  C32      1.0000 0.22096  0.75810  0.33220  Biso   1.000  C
  C33      1.0000 0.22760  0.65460  0.29980  Biso   1.000  C
  C34      1.0000 0.24264  0.44700  0.23840  Biso   1.000  C
  C35      1.0000 0.16654  0.82180  0.29050  Biso   1.000  C
  H28      1.0000 0.16910  0.82530  0.18060  Biso   1.000  H
  C36      1.0000 0.27804  0.70790  0.21420  Biso   1.000  C
  H29      1.0000 0.48920  0.31460  0.83140  Biso   1.000  H
  O9       1.0000 0.52650  0.36760  0.69000  Biso   1.000  O
  H30      1.0000 0.54550  0.34440  0.73850  Biso   1.000  H
  H31      1.0000 0.51880  0.31780  0.61520  Biso   1.000  H
  O10      1.0000 0.55360  0.58850  0.70530  Biso   1.000  O
  O11      1.0000 0.97206  0.95660  0.99760  Biso   1.000  O
  O12      1.0000 0.94522  0.94390  0.77120  Biso   1.000  O
  O13      1.0000 0.53046  0.52010  0.49460  Biso   1.000  O
  O14      1.0000 0.74670  0.11980  0.14320  Biso   1.000  O
  O15      1.0000 0.75282  0.34400  0.28450  Biso   1.000  O
  O16      1.0000 0.80263  0.38840  0.15860  Biso   1.000  O
  O17      1.0000 0.69539  0.07510  0.25540  Biso   1.000  O
  C37      1.0000 0.77499  0.14740  0.07860  Biso   1.000  C
  H32      1.0000 0.79230  0.12690  0.15220  Biso   1.000  H
  H33      1.0000 0.77560  0.22230  0.06190  Biso   1.000  H
  H34      1.0000 0.77650  0.11180  0.97760  Biso   1.000  H
  C38      1.0000 0.83033  0.40930  0.08410  Biso   1.000  C
  H35      1.0000 0.84380  0.45290  0.15340  Biso   1.000  H
  H36      1.0000 0.82530  0.44520  0.98390  Biso   1.000  H
  H37      1.0000 0.84070  0.34400  0.06410  Biso   1.000  H
  C39      1.0000 0.72575  0.31670  0.35840  Biso   1.000  C
  H38      1.0000 0.72650  0.34700  0.46430  Biso   1.000  H
  H39      1.0000 0.72440  0.24130  0.36640  Biso   1.000  H
  H40      1.0000 0.70770  0.34300  0.29530  Biso   1.000  H
  C40      1.0000 0.86510  0.84950  0.99480  Biso   1.000  C
  C41      1.0000 0.94636  0.93630  0.91770  Biso   1.000  C
  C42      1.0000 0.68524  0.72090  0.49650  Biso   1.000  C
  H41      1.0000 0.69960  0.76390  0.55510  Biso   1.000  H
  C43      1.0000 0.81391  0.77980  0.95130  Biso   1.000  C
  H42      1.0000 0.79810  0.75310  0.87970  Biso   1.000  H
  C44      1.0000 0.89341  0.88100  0.92770  Biso   1.000  C
  H43      1.0000 0.89250  0.88620  0.81590  Biso   1.000  H
  C45      1.0000 0.84119  0.81130  0.89540  Biso   1.000  C
  H44      1.0000 0.84370  0.80660  0.78550  Biso   1.000  H
  C46      1.0000 0.65738  0.69770  0.55730  Biso   1.000  C
  H45      1.0000 0.65300  0.72520  0.65690  Biso   1.000  H
  C47      1.0000 0.60654  0.61590  0.54500  Biso   1.000  C
  H46      1.0000 0.60500  0.64090  0.64920  Biso   1.000  H
  C48      1.0000 0.66854  0.05620  0.33430  Biso   1.000  C
  H47      1.0000 0.67420  0.02440  0.43720  Biso   1.000  H
  H48      1.0000 0.65500  0.00940  0.27080  Biso   1.000  H
  H49      1.0000 0.65790  0.12160  0.34970  Biso   1.000  H
  C49      1.0000 0.92009  0.90320  0.00240  Biso   1.000  C
  H50      1.0000 0.92240  0.89750  0.11420  Biso   1.000  H
  C50      1.0000 0.76343  0.94120  0.15090  Biso   1.000  C
  H51      1.0000 0.78250  0.95870  0.11120  Biso   1.000  H
  C51      1.0000 0.58242  0.56820  0.47970  Biso   1.000  C
  H52      1.0000 0.58280  0.53970  0.37690  Biso   1.000  H
  C52      1.0000 0.80922  0.78630  0.10780  Biso   1.000  C
  C53      1.0000 0.71401  0.99180  0.23610  Biso   1.000  C
  C54      1.0000 0.74361  0.62890  0.26360  Biso   1.000  C
  C55      1.0000 0.73758  0.52300  0.29720  Biso   1.000  C
  H53      1.0000 0.71940  0.50530  0.34550  Biso   1.000  H
  C56      1.0000 0.69241  0.68190  0.35120  Biso   1.000  C
  C57      1.0000 0.63586  0.63540  0.47550  Biso   1.000  C
  C58      1.0000 0.70724  0.89250  0.26710  Biso   1.000  C
  H54      1.0000 0.68760  0.87640  0.30190  Biso   1.000  H
  C59      1.0000 0.86103  0.85210  0.15510  Biso   1.000  C
  H55      1.0000 0.87730  0.87470  0.22760  Biso   1.000  H
  C60      1.0000 0.67062  0.61710  0.27010  Biso   1.000  C
  H56      1.0000 0.67500  0.58830  0.17140  Biso   1.000  H
  C61      1.0000 0.55409  0.55880  0.56840  Biso   1.000  C
  C62      1.0000 0.72866  0.81110  0.24910  Biso   1.000  C
  C63      1.0000 0.78551  0.47210  0.19020  Biso   1.000  C
  C64      1.0000 0.75741  0.83590  0.18570  Biso   1.000  C
  C65      1.0000 0.74289  0.01770  0.17230  Biso   1.000  C
  C66      1.0000 0.64313  0.59460  0.33090  Biso   1.000  C
  H57      1.0000 0.62890  0.55070  0.27370  Biso   1.000  H
  C67      1.0000 0.79286  0.57190  0.16790  Biso   1.000  C
  H58      1.0000 0.81220  0.58800  0.12980  Biso   1.000  H
  C68      1.0000 0.77904  0.75810  0.16780  Biso   1.000  C
  C69      1.0000 0.77240  0.65460  0.20020  Biso   1.000  C
  C70      1.0000 0.75736  0.44700  0.26160  Biso   1.000  C
  C71      1.0000 0.83346  0.82180  0.20950  Biso   1.000  C
  H59      1.0000 0.83090  0.82530  0.31940  Biso   1.000  H
  C72      1.0000 0.72196  0.70790  0.28580  Biso   1.000  C
  H60      1.0000 0.51080  0.31460  0.66860  Biso   1.000  H
  O18      1.0000 0.47350  0.36760  0.81000  Biso   1.000  O
  H61      1.0000 0.45450  0.34440  0.76150  Biso   1.000  H
  H62      1.0000 0.48120  0.31780  0.88480  Biso   1.000  H
  O19      1.0000 0.55360  0.41150  0.20530  Biso   1.000  O
  O20      1.0000 0.97206  0.04340  0.49760  Biso   1.000  O
  O21      1.0000 0.94522  0.05610  0.27120  Biso   1.000  O
  O22      1.0000 0.53046  0.47990  0.99460  Biso   1.000  O
  O23      1.0000 0.74670  0.88020  0.64320  Biso   1.000  O
  O24      1.0000 0.75282  0.65600  0.78450  Biso   1.000  O
  O25      1.0000 0.80263  0.61160  0.65860  Biso   1.000  O
  O26      1.0000 0.69539  0.92490  0.75540  Biso   1.000  O
  C73      1.0000 0.77499  0.85260  0.57860  Biso   1.000  C
  H63      1.0000 0.79230  0.87310  0.65220  Biso   1.000  H
  H64      1.0000 0.77560  0.77770  0.56190  Biso   1.000  H
  H65      1.0000 0.77650  0.88820  0.47760  Biso   1.000  H
  C74      1.0000 0.83033  0.59070  0.58410  Biso   1.000  C
  H66      1.0000 0.84380  0.54710  0.65340  Biso   1.000  H
  H67      1.0000 0.82530  0.55480  0.48390  Biso   1.000  H
  H68      1.0000 0.84070  0.65600  0.56410  Biso   1.000  H
  C75      1.0000 0.72575  0.68330  0.85840  Biso   1.000  C
  H69      1.0000 0.72650  0.65300  0.96430  Biso   1.000  H
  H70      1.0000 0.72440  0.75870  0.86640  Biso   1.000  H
  H71      1.0000 0.70770  0.65700  0.79530  Biso   1.000  H
  C76      1.0000 0.86510  0.15050  0.49480  Biso   1.000  C
  C77      1.0000 0.94636  0.06370  0.41770  Biso   1.000  C
  C78      1.0000 0.68524  0.27910  0.99650  Biso   1.000  C
  H72      1.0000 0.69960  0.23610  0.05510  Biso   1.000  H
  C79      1.0000 0.81391  0.22020  0.45130  Biso   1.000  C
  H73      1.0000 0.79810  0.24690  0.37970  Biso   1.000  H
  C80      1.0000 0.89341  0.11900  0.42770  Biso   1.000  C
  H74      1.0000 0.89250  0.11380  0.31590  Biso   1.000  H
  C81      1.0000 0.84119  0.18870  0.39540  Biso   1.000  C
  H75      1.0000 0.84370  0.19340  0.28550  Biso   1.000  H
  C82      1.0000 0.65738  0.30230  0.05730  Biso   1.000  C
  H76      1.0000 0.65300  0.27480  0.15690  Biso   1.000  H
  C83      1.0000 0.60654  0.38410  0.04500  Biso   1.000  C
  H77      1.0000 0.60500  0.35910  0.14920  Biso   1.000  H
  C84      1.0000 0.66854  0.94380  0.83430  Biso   1.000  C
  H78      1.0000 0.67420  0.97560  0.93720  Biso   1.000  H
  H79      1.0000 0.65500  0.99060  0.77080  Biso   1.000  H
  H80      1.0000 0.65790  0.87840  0.84970  Biso   1.000  H
  C85      1.0000 0.92009  0.09680  0.50240  Biso   1.000  C
  H81      1.0000 0.92240  0.10250  0.61420  Biso   1.000  H
  C86      1.0000 0.76343  0.05880  0.65090  Biso   1.000  C
  H82      1.0000 0.78250  0.04130  0.61120  Biso   1.000  H
  C87      1.0000 0.58242  0.43180  0.97970  Biso   1.000  C
  H83      1.0000 0.58280  0.46030  0.87690  Biso   1.000  H
  C88      1.0000 0.80922  0.21370  0.60780  Biso   1.000  C
  C89      1.0000 0.71401  0.00820  0.73610  Biso   1.000  C
  C90      1.0000 0.74361  0.37110  0.76360  Biso   1.000  C
  C91      1.0000 0.73758  0.47700  0.79720  Biso   1.000  C
  H84      1.0000 0.71940  0.49470  0.84550  Biso   1.000  H
  C92      1.0000 0.69241  0.31810  0.85120  Biso   1.000  C
  C93      1.0000 0.63586  0.36460  0.97550  Biso   1.000  C
  C94      1.0000 0.70724  0.10750  0.76710  Biso   1.000  C
  H85      1.0000 0.68760  0.12360  0.80190  Biso   1.000  H
  C95      1.0000 0.86103  0.14790  0.65510  Biso   1.000  C
  H86      1.0000 0.87730  0.12530  0.72760  Biso   1.000  H
  C96      1.0000 0.67062  0.38290  0.77010  Biso   1.000  C
  H87      1.0000 0.67500  0.41170  0.67140  Biso   1.000  H
  C97      1.0000 0.55409  0.44120  0.06840  Biso   1.000  C
  C98      1.0000 0.72866  0.18890  0.74910  Biso   1.000  C
  C99      1.0000 0.78551  0.52790  0.69020  Biso   1.000  C
  C100     1.0000 0.75741  0.16410  0.68570  Biso   1.000  C
  C101     1.0000 0.74289  0.98230  0.67230  Biso   1.000  C
  C102     1.0000 0.64313  0.40540  0.83090  Biso   1.000  C
  H88      1.0000 0.62890  0.44930  0.77370  Biso   1.000  H
  C103     1.0000 0.79286  0.42810  0.66790  Biso   1.000  C
  H89      1.0000 0.81220  0.41200  0.62980  Biso   1.000  H
  C104     1.0000 0.77904  0.24190  0.66780  Biso   1.000  C
  C105     1.0000 0.77240  0.34540  0.70020  Biso   1.000  C
  C106     1.0000 0.75736  0.55300  0.76160  Biso   1.000  C
  C107     1.0000 0.83346  0.17820  0.70950  Biso   1.000  C
  H90      1.0000 0.83090  0.17470  0.81940  Biso   1.000  H
  C108     1.0000 0.72196  0.29210  0.78580  Biso   1.000  C
  H91      1.0000 0.51080  0.68540  0.16860  Biso   1.000  H
  O27      1.0000 0.47350  0.63240  0.31000  Biso   1.000  O
  H92      1.0000 0.45450  0.65560  0.26150  Biso   1.000  H
  H93      1.0000 0.48120  0.68220  0.38480  Biso   1.000  H
  O28      1.0000 0.44640  0.41150  0.29470  Biso   1.000  O
  O29      1.0000 0.02794  0.04340  0.00240  Biso   1.000  O
  O30      1.0000 0.05478  0.05610  0.22880  Biso   1.000  O
  O31      1.0000 0.46954  0.47990  0.50540  Biso   1.000  O
  O32      1.0000 0.25330  0.88020  0.85680  Biso   1.000  O
  O33      1.0000 0.24718  0.65600  0.71550  Biso   1.000  O
  O34      1.0000 0.19737  0.61160  0.84140  Biso   1.000  O
  O35      1.0000 0.30461  0.92490  0.74460  Biso   1.000  O
  C109     1.0000 0.22501  0.85260  0.92140  Biso   1.000  C
  H94      1.0000 0.20770  0.87310  0.84780  Biso   1.000  H
  H95      1.0000 0.22440  0.77770  0.93810  Biso   1.000  H
  H96      1.0000 0.22350  0.88820  0.02240  Biso   1.000  H
  C110     1.0000 0.16967  0.59070  0.91590  Biso   1.000  C
  H97      1.0000 0.15620  0.54710  0.84660  Biso   1.000  H
  H98      1.0000 0.17470  0.55480  0.01610  Biso   1.000  H
  H99      1.0000 0.15930  0.65600  0.93590  Biso   1.000  H
  C111     1.0000 0.27425  0.68330  0.64160  Biso   1.000  C
  H100     1.0000 0.27350  0.65300  0.53570  Biso   1.000  H
  H101     1.0000 0.27560  0.75870  0.63360  Biso   1.000  H
  H102     1.0000 0.29230  0.65700  0.70470  Biso   1.000  H
  C112     1.0000 0.13490  0.15050  0.00520  Biso   1.000  C
  C113     1.0000 0.05364  0.06370  0.08230  Biso   1.000  C
  C114     1.0000 0.31476  0.27910  0.50350  Biso   1.000  C
  H103     1.0000 0.30040  0.23610  0.44490  Biso   1.000  H
  C115     1.0000 0.18609  0.22020  0.04870  Biso   1.000  C
  H104     1.0000 0.20190  0.24690  0.12030  Biso   1.000  H
  C116     1.0000 0.10659  0.11900  0.07230  Biso   1.000  C
  H105     1.0000 0.10750  0.11380  0.18410  Biso   1.000  H
  C117     1.0000 0.15881  0.18870  0.10460  Biso   1.000  C
  H106     1.0000 0.15630  0.19340  0.21450  Biso   1.000  H
  C118     1.0000 0.34262  0.30230  0.44270  Biso   1.000  C
  H107     1.0000 0.34700  0.27480  0.34310  Biso   1.000  H
  C119     1.0000 0.39346  0.38410  0.45500  Biso   1.000  C
  H108     1.0000 0.39500  0.35910  0.35080  Biso   1.000  H
  C120     1.0000 0.33146  0.94380  0.66570  Biso   1.000  C
  H109     1.0000 0.32580  0.97560  0.56280  Biso   1.000  H
  H110     1.0000 0.34500  0.99060  0.72920  Biso   1.000  H
  H111     1.0000 0.34210  0.87840  0.65030  Biso   1.000  H
  C121     1.0000 0.07991  0.09680  0.99760  Biso   1.000  C
  H112     1.0000 0.07760  0.10250  0.88580  Biso   1.000  H
  C122     1.0000 0.23657  0.05880  0.84910  Biso   1.000  C
  H113     1.0000 0.21750  0.04130  0.88880  Biso   1.000  H
  C123     1.0000 0.41758  0.43180  0.52030  Biso   1.000  C
  H114     1.0000 0.41720  0.46030  0.62310  Biso   1.000  H
  C124     1.0000 0.19078  0.21370  0.89220  Biso   1.000  C
  C125     1.0000 0.28599  0.00820  0.76390  Biso   1.000  C
  C126     1.0000 0.25639  0.37110  0.73640  Biso   1.000  C
  C127     1.0000 0.26242  0.47700  0.70280  Biso   1.000  C
  H115     1.0000 0.28060  0.49470  0.65450  Biso   1.000  H
  C128     1.0000 0.30759  0.31810  0.64880  Biso   1.000  C
  C129     1.0000 0.36414  0.36460  0.52450  Biso   1.000  C
  C130     1.0000 0.29276  0.10750  0.73290  Biso   1.000  C
  H116     1.0000 0.31240  0.12360  0.69810  Biso   1.000  H
  C131     1.0000 0.13897  0.14790  0.84490  Biso   1.000  C
  H117     1.0000 0.12270  0.12530  0.77240  Biso   1.000  H
  C132     1.0000 0.32938  0.38290  0.72990  Biso   1.000  C
  H118     1.0000 0.32500  0.41170  0.82860  Biso   1.000  H
  C133     1.0000 0.44591  0.44120  0.43160  Biso   1.000  C
  C134     1.0000 0.27134  0.18890  0.75090  Biso   1.000  C
  C135     1.0000 0.21449  0.52790  0.80980  Biso   1.000  C
  C136     1.0000 0.24259  0.16410  0.81430  Biso   1.000  C
  C137     1.0000 0.25711  0.98230  0.82770  Biso   1.000  C
  C138     1.0000 0.35687  0.40540  0.66910  Biso   1.000  C
  H119     1.0000 0.37110  0.44930  0.72630  Biso   1.000  H
  C139     1.0000 0.20714  0.42810  0.83210  Biso   1.000  C
  H120     1.0000 0.18780  0.41200  0.87020  Biso   1.000  H
  C140     1.0000 0.22096  0.24190  0.83220  Biso   1.000  C
  C141     1.0000 0.22760  0.34540  0.79980  Biso   1.000  C
  C142     1.0000 0.24264  0.55300  0.73840  Biso   1.000  C
  C143     1.0000 0.16654  0.17820  0.79050  Biso   1.000  C
  H121     1.0000 0.16910  0.17470  0.68060  Biso   1.000  H
  C144     1.0000 0.27804  0.29210  0.71420  Biso   1.000  C
  H122     1.0000 0.48920  0.68540  0.33140  Biso   1.000  H
  O36      1.0000 0.52650  0.63240  0.19000  Biso   1.000  O
  H123     1.0000 0.54550  0.65560  0.23850  Biso   1.000  H
  H124     1.0000 0.51880  0.68220  0.11520  Biso   1.000  H
  Pr1      1.0000 0.00000  0.00530  0.75000  Biso   1.000  Pr
  Pr2      1.0000 0.00000  0.99470  0.25000  Biso   1.000  Pr
  Pr3      1.0000 0.50000  0.53222  0.75000  Biso   1.000  Pr
  O37      1.0000 0.50000  0.36830  0.75000  Biso   1.000  O
  Pr4      1.0000 0.50000  0.46778  0.25000  Biso   1.000  Pr
  O38      1.0000 0.50000  0.63170  0.25000  Biso   1.000  O
