data_image0
_cell_length_a       22.65
_cell_length_b       16.34
_cell_length_c       12.57
_cell_angle_alpha    90
_cell_angle_beta     118.6
_cell_angle_gamma    90

_symmetry_space_group_name_H-M    "P 1"
_symmetry_int_tables_number       1

loop_
  _symmetry_equiv_pos_as_xyz
  'x, y, z'

loop_
  _atom_site_label
  _atom_site_occupancy
  _atom_site_fract_x
  _atom_site_fract_y
  _atom_site_fract_z
  _atom_site_thermal_displace_type
  _atom_site_B_iso_or_equiv
  _atom_site_type_symbol
  S1       1.0000 0.07841  0.97053  0.14012  Biso   1.000  S
  S2       1.0000 0.96442  0.35970  0.51420  Biso   1.000  S
  S3       1.0000 0.20098  0.44765  0.23310  Biso   1.000  S
  O1       1.0000 0.97490  0.58420  0.63520  Biso   1.000  O
  N1       1.0000 0.18960  0.15890  0.03590  Biso   1.000  N
  N2       1.0000 0.15910  0.28930  0.84180  Biso   1.000  N
  N3       1.0000 0.23380  0.33800  0.10360  Biso   1.000  N
  C1       1.0000 0.15540  0.18120  0.09150  Biso   1.000  C
  H1       1.0000 0.15560  0.23750  0.11030  Biso   1.000  H
  C2       1.0000 0.12000  0.12920  0.12390  Biso   1.000  C
  H2       1.0000 0.09650  0.14950  0.16390  Biso   1.000  H
  C3       1.0000 0.18260  0.08080  0.00070  Biso   1.000  C
  H3       1.0000 0.20240  0.06390  0.95270  Biso   1.000  H
  C4       1.0000 0.14820  0.02340  0.03000  Biso   1.000  C
  H4       1.0000 0.14520  0.96840  0.00320  Biso   1.000  H
  C5       1.0000 0.11820  0.04620  0.09840  Biso   1.000  C
  C6       1.0000 0.03560  0.03280  0.19960  Biso   1.000  C
  H5       1.0000 0.06850  0.06860  0.26430  Biso   1.000  H
  H6       1.0000 0.00250  0.06820  0.13440  Biso   1.000  H
  C7       1.0000 0.11460  0.23860  0.77140  Biso   1.000  C
  H7       1.0000 0.12320  0.18210  0.78980  Biso   1.000  H
  C8       1.0000 0.05570  0.25920  0.67200  Biso   1.000  C
  H8       1.0000 0.02520  0.21740  0.62490  Biso   1.000  H
  C9       1.0000 0.14330  0.36330  0.81970  Biso   1.000  C
  H9       1.0000 0.17250  0.40280  0.87550  Biso   1.000  H
  C10      1.0000 0.08770  0.39020  0.72170  Biso   1.000  C
  H10      1.0000 0.07970  0.44710  0.70630  Biso   1.000  H
  C11      1.0000 0.04150  0.33220  0.64210  Biso   1.000  C
  C12      1.0000 0.98110  0.46740  0.48740  Biso   1.000  C
  C13      1.0000 0.93620  0.45300  0.56020  Biso   1.000  C
  C14      1.0000 0.97750  0.52460  0.57070  Biso   1.000  C
  C15      1.0000 0.21870  0.38290  0.15570  Biso   1.000  C
  S4       1.0000 0.57841  0.47053  0.14012  Biso   1.000  S
  S5       1.0000 0.46442  0.85970  0.51420  Biso   1.000  S
  S6       1.0000 0.70098  0.94765  0.23310  Biso   1.000  S
  O2       1.0000 0.47490  0.08420  0.63520  Biso   1.000  O
  N4       1.0000 0.68960  0.65890  0.03590  Biso   1.000  N
  N5       1.0000 0.65910  0.78930  0.84180  Biso   1.000  N
  N6       1.0000 0.73380  0.83800  0.10360  Biso   1.000  N
  C16      1.0000 0.65540  0.68120  0.09150  Biso   1.000  C
  H11      1.0000 0.65560  0.73750  0.11030  Biso   1.000  H
  C17      1.0000 0.62000  0.62920  0.12390  Biso   1.000  C
  H12      1.0000 0.59650  0.64950  0.16390  Biso   1.000  H
  C18      1.0000 0.68260  0.58080  0.00070  Biso   1.000  C
  H13      1.0000 0.70240  0.56390  0.95270  Biso   1.000  H
  C19      1.0000 0.64820  0.52340  0.03000  Biso   1.000  C
  H14      1.0000 0.64520  0.46840  0.00320  Biso   1.000  H
  C20      1.0000 0.61820  0.54620  0.09840  Biso   1.000  C
  C21      1.0000 0.53560  0.53280  0.19960  Biso   1.000  C
  H15      1.0000 0.56850  0.56860  0.26430  Biso   1.000  H
  H16      1.0000 0.50250  0.56820  0.13440  Biso   1.000  H
  C22      1.0000 0.61460  0.73860  0.77140  Biso   1.000  C
  H17      1.0000 0.62320  0.68210  0.78980  Biso   1.000  H
  C23      1.0000 0.55570  0.75920  0.67200  Biso   1.000  C
  H18      1.0000 0.52520  0.71740  0.62490  Biso   1.000  H
  C24      1.0000 0.64330  0.86330  0.81970  Biso   1.000  C
  H19      1.0000 0.67250  0.90280  0.87550  Biso   1.000  H
  C25      1.0000 0.58770  0.89020  0.72170  Biso   1.000  C
  H20      1.0000 0.57970  0.94710  0.70630  Biso   1.000  H
  C26      1.0000 0.54150  0.83220  0.64210  Biso   1.000  C
  C27      1.0000 0.48110  0.96740  0.48740  Biso   1.000  C
  C28      1.0000 0.43620  0.95300  0.56020  Biso   1.000  C
  C29      1.0000 0.47750  0.02460  0.57070  Biso   1.000  C
  C30      1.0000 0.71870  0.88290  0.15570  Biso   1.000  C
  S7       1.0000 0.92159  0.97053  0.35988  Biso   1.000  S
  S8       1.0000 0.03558  0.35970  0.98580  Biso   1.000  S
  S9       1.0000 0.79902  0.44765  0.26690  Biso   1.000  S
  O3       1.0000 0.02510  0.58420  0.86480  Biso   1.000  O
  N7       1.0000 0.81040  0.15890  0.46410  Biso   1.000  N
  N8       1.0000 0.84090  0.28930  0.65820  Biso   1.000  N
  N9       1.0000 0.76620  0.33800  0.39640  Biso   1.000  N
  C31      1.0000 0.84460  0.18120  0.40850  Biso   1.000  C
  H21      1.0000 0.84440  0.23750  0.38970  Biso   1.000  H
  C32      1.0000 0.88000  0.12920  0.37610  Biso   1.000  C
  H22      1.0000 0.90350  0.14950  0.33610  Biso   1.000  H
  C33      1.0000 0.81740  0.08080  0.49930  Biso   1.000  C
  H23      1.0000 0.79760  0.06390  0.54730  Biso   1.000  H
  C34      1.0000 0.85180  0.02340  0.47000  Biso   1.000  C
  H24      1.0000 0.85480  0.96840  0.49680  Biso   1.000  H
  C35      1.0000 0.88180  0.04620  0.40160  Biso   1.000  C
  C36      1.0000 0.96440  0.03280  0.30040  Biso   1.000  C
  H25      1.0000 0.93150  0.06860  0.23570  Biso   1.000  H
  H26      1.0000 0.99750  0.06820  0.36560  Biso   1.000  H
  C37      1.0000 0.88540  0.23860  0.72860  Biso   1.000  C
  H27      1.0000 0.87680  0.18210  0.71020  Biso   1.000  H
  C38      1.0000 0.94430  0.25920  0.82800  Biso   1.000  C
  H28      1.0000 0.97480  0.21740  0.87510  Biso   1.000  H
  C39      1.0000 0.85670  0.36330  0.68030  Biso   1.000  C
  H29      1.0000 0.82750  0.40280  0.62450  Biso   1.000  H
  C40      1.0000 0.91230  0.39020  0.77830  Biso   1.000  C
  H30      1.0000 0.92030  0.44710  0.79370  Biso   1.000  H
  C41      1.0000 0.95850  0.33220  0.85790  Biso   1.000  C
  C42      1.0000 0.01890  0.46740  0.01260  Biso   1.000  C
  C43      1.0000 0.06380  0.45300  0.93980  Biso   1.000  C
  C44      1.0000 0.02250  0.52460  0.92930  Biso   1.000  C
  C45      1.0000 0.78130  0.38290  0.34430  Biso   1.000  C
  S10      1.0000 0.42159  0.47053  0.35988  Biso   1.000  S
  S11      1.0000 0.53558  0.85970  0.98580  Biso   1.000  S
  S12      1.0000 0.29902  0.94765  0.26690  Biso   1.000  S
  O4       1.0000 0.52510  0.08420  0.86480  Biso   1.000  O
  N10      1.0000 0.31040  0.65890  0.46410  Biso   1.000  N
  N11      1.0000 0.34090  0.78930  0.65820  Biso   1.000  N
  N12      1.0000 0.26620  0.83800  0.39640  Biso   1.000  N
  C46      1.0000 0.34460  0.68120  0.40850  Biso   1.000  C
  H31      1.0000 0.34440  0.73750  0.38970  Biso   1.000  H
  C47      1.0000 0.38000  0.62920  0.37610  Biso   1.000  C
  H32      1.0000 0.40350  0.64950  0.33610  Biso   1.000  H
  C48      1.0000 0.31740  0.58080  0.49930  Biso   1.000  C
  H33      1.0000 0.29760  0.56390  0.54730  Biso   1.000  H
  C49      1.0000 0.35180  0.52340  0.47000  Biso   1.000  C
  H34      1.0000 0.35480  0.46840  0.49680  Biso   1.000  H
  C50      1.0000 0.38180  0.54620  0.40160  Biso   1.000  C
  C51      1.0000 0.46440  0.53280  0.30040  Biso   1.000  C
  H35      1.0000 0.43150  0.56860  0.23570  Biso   1.000  H
  H36      1.0000 0.49750  0.56820  0.36560  Biso   1.000  H
  C52      1.0000 0.38540  0.73860  0.72860  Biso   1.000  C
  H37      1.0000 0.37680  0.68210  0.71020  Biso   1.000  H
  C53      1.0000 0.44430  0.75920  0.82800  Biso   1.000  C
  H38      1.0000 0.47480  0.71740  0.87510  Biso   1.000  H
  C54      1.0000 0.35670  0.86330  0.68030  Biso   1.000  C
  H39      1.0000 0.32750  0.90280  0.62450  Biso   1.000  H
  C55      1.0000 0.41230  0.89020  0.77830  Biso   1.000  C
  H40      1.0000 0.42030  0.94710  0.79370  Biso   1.000  H
  C56      1.0000 0.45850  0.83220  0.85790  Biso   1.000  C
  C57      1.0000 0.51890  0.96740  0.01260  Biso   1.000  C
  C58      1.0000 0.56380  0.95300  0.93980  Biso   1.000  C
  C59      1.0000 0.52250  0.02460  0.92930  Biso   1.000  C
  C60      1.0000 0.28130  0.88290  0.34430  Biso   1.000  C
  S13      1.0000 0.92159  0.02947  0.85988  Biso   1.000  S
  S14      1.0000 0.03558  0.64030  0.48580  Biso   1.000  S
  S15      1.0000 0.79902  0.55235  0.76690  Biso   1.000  S
  O5       1.0000 0.02510  0.41580  0.36480  Biso   1.000  O
  N13      1.0000 0.81040  0.84110  0.96410  Biso   1.000  N
  N14      1.0000 0.84090  0.71070  0.15820  Biso   1.000  N
  N15      1.0000 0.76620  0.66200  0.89640  Biso   1.000  N
  C61      1.0000 0.84460  0.81880  0.90850  Biso   1.000  C
  H41      1.0000 0.84440  0.76250  0.88970  Biso   1.000  H
  C62      1.0000 0.88000  0.87080  0.87610  Biso   1.000  C
  H42      1.0000 0.90350  0.85050  0.83610  Biso   1.000  H
  C63      1.0000 0.81740  0.91920  0.99930  Biso   1.000  C
  H43      1.0000 0.79760  0.93610  0.04730  Biso   1.000  H
  C64      1.0000 0.85180  0.97660  0.97000  Biso   1.000  C
  H44      1.0000 0.85480  0.03160  0.99680  Biso   1.000  H
  C65      1.0000 0.88180  0.95380  0.90160  Biso   1.000  C
  C66      1.0000 0.96440  0.96720  0.80040  Biso   1.000  C
  H45      1.0000 0.93150  0.93140  0.73570  Biso   1.000  H
  H46      1.0000 0.99750  0.93180  0.86560  Biso   1.000  H
  C67      1.0000 0.88540  0.76140  0.22860  Biso   1.000  C
  H47      1.0000 0.87680  0.81790  0.21020  Biso   1.000  H
  C68      1.0000 0.94430  0.74080  0.32800  Biso   1.000  C
  H48      1.0000 0.97480  0.78260  0.37510  Biso   1.000  H
  C69      1.0000 0.85670  0.63670  0.18030  Biso   1.000  C
  H49      1.0000 0.82750  0.59720  0.12450  Biso   1.000  H
  C70      1.0000 0.91230  0.60980  0.27830  Biso   1.000  C
  H50      1.0000 0.92030  0.55290  0.29370  Biso   1.000  H
  C71      1.0000 0.95850  0.66780  0.35790  Biso   1.000  C
  C72      1.0000 0.01890  0.53260  0.51260  Biso   1.000  C
  C73      1.0000 0.06380  0.54700  0.43980  Biso   1.000  C
  C74      1.0000 0.02250  0.47540  0.42930  Biso   1.000  C
  C75      1.0000 0.78130  0.61710  0.84430  Biso   1.000  C
  S16      1.0000 0.42159  0.52947  0.85988  Biso   1.000  S
  S17      1.0000 0.53558  0.14030  0.48580  Biso   1.000  S
  S18      1.0000 0.29902  0.05235  0.76690  Biso   1.000  S
  O6       1.0000 0.52510  0.91580  0.36480  Biso   1.000  O
  N16      1.0000 0.31040  0.34110  0.96410  Biso   1.000  N
  N17      1.0000 0.34090  0.21070  0.15820  Biso   1.000  N
  N18      1.0000 0.26620  0.16200  0.89640  Biso   1.000  N
  C76      1.0000 0.34460  0.31880  0.90850  Biso   1.000  C
  H51      1.0000 0.34440  0.26250  0.88970  Biso   1.000  H
  C77      1.0000 0.38000  0.37080  0.87610  Biso   1.000  C
  H52      1.0000 0.40350  0.35050  0.83610  Biso   1.000  H
  C78      1.0000 0.31740  0.41920  0.99930  Biso   1.000  C
  H53      1.0000 0.29760  0.43610  0.04730  Biso   1.000  H
  C79      1.0000 0.35180  0.47660  0.97000  Biso   1.000  C
  H54      1.0000 0.35480  0.53160  0.99680  Biso   1.000  H
  C80      1.0000 0.38180  0.45380  0.90160  Biso   1.000  C
  C81      1.0000 0.46440  0.46720  0.80040  Biso   1.000  C
  H55      1.0000 0.43150  0.43140  0.73570  Biso   1.000  H
  H56      1.0000 0.49750  0.43180  0.86560  Biso   1.000  H
  C82      1.0000 0.38540  0.26140  0.22860  Biso   1.000  C
  H57      1.0000 0.37680  0.31790  0.21020  Biso   1.000  H
  C83      1.0000 0.44430  0.24080  0.32800  Biso   1.000  C
  H58      1.0000 0.47480  0.28260  0.37510  Biso   1.000  H
  C84      1.0000 0.35670  0.13670  0.18030  Biso   1.000  C
  H59      1.0000 0.32750  0.09720  0.12450  Biso   1.000  H
  C85      1.0000 0.41230  0.10980  0.27830  Biso   1.000  C
  H60      1.0000 0.42030  0.05290  0.29370  Biso   1.000  H
  C86      1.0000 0.45850  0.16780  0.35790  Biso   1.000  C
  C87      1.0000 0.51890  0.03260  0.51260  Biso   1.000  C
  C88      1.0000 0.56380  0.04700  0.43980  Biso   1.000  C
  C89      1.0000 0.52250  0.97540  0.42930  Biso   1.000  C
  C90      1.0000 0.28130  0.11710  0.84430  Biso   1.000  C
  S19      1.0000 0.07841  0.02947  0.64012  Biso   1.000  S
  S20      1.0000 0.96442  0.64030  0.01420  Biso   1.000  S
  S21      1.0000 0.20098  0.55235  0.73310  Biso   1.000  S
  O7       1.0000 0.97490  0.41580  0.13520  Biso   1.000  O
  N19      1.0000 0.18960  0.84110  0.53590  Biso   1.000  N
  N20      1.0000 0.15910  0.71070  0.34180  Biso   1.000  N
  N21      1.0000 0.23380  0.66200  0.60360  Biso   1.000  N
  C91      1.0000 0.15540  0.81880  0.59150  Biso   1.000  C
  H61      1.0000 0.15560  0.76250  0.61030  Biso   1.000  H
  C92      1.0000 0.12000  0.87080  0.62390  Biso   1.000  C
  H62      1.0000 0.09650  0.85050  0.66390  Biso   1.000  H
  C93      1.0000 0.18260  0.91920  0.50070  Biso   1.000  C
  H63      1.0000 0.20240  0.93610  0.45270  Biso   1.000  H
  C94      1.0000 0.14820  0.97660  0.53000  Biso   1.000  C
  H64      1.0000 0.14520  0.03160  0.50320  Biso   1.000  H
  C95      1.0000 0.11820  0.95380  0.59840  Biso   1.000  C
  C96      1.0000 0.03560  0.96720  0.69960  Biso   1.000  C
  H65      1.0000 0.06850  0.93140  0.76430  Biso   1.000  H
  H66      1.0000 0.00250  0.93180  0.63440  Biso   1.000  H
  C97      1.0000 0.11460  0.76140  0.27140  Biso   1.000  C
  H67      1.0000 0.12320  0.81790  0.28980  Biso   1.000  H
  C98      1.0000 0.05570  0.74080  0.17200  Biso   1.000  C
  H68      1.0000 0.02520  0.78260  0.12490  Biso   1.000  H
  C99      1.0000 0.14330  0.63670  0.31970  Biso   1.000  C
  H69      1.0000 0.17250  0.59720  0.37550  Biso   1.000  H
  C100     1.0000 0.08770  0.60980  0.22170  Biso   1.000  C
  H70      1.0000 0.07970  0.55290  0.20630  Biso   1.000  H
  C101     1.0000 0.04150  0.66780  0.14210  Biso   1.000  C
  C102     1.0000 0.98110  0.53260  0.98740  Biso   1.000  C
  C103     1.0000 0.93620  0.54700  0.06020  Biso   1.000  C
  C104     1.0000 0.97750  0.47540  0.07070  Biso   1.000  C
  C105     1.0000 0.21870  0.61710  0.65570  Biso   1.000  C
  S22      1.0000 0.57841  0.52947  0.64012  Biso   1.000  S
  S23      1.0000 0.46442  0.14030  0.01420  Biso   1.000  S
  S24      1.0000 0.70098  0.05235  0.73310  Biso   1.000  S
  O8       1.0000 0.47490  0.91580  0.13520  Biso   1.000  O
  N22      1.0000 0.68960  0.34110  0.53590  Biso   1.000  N
  N23      1.0000 0.65910  0.21070  0.34180  Biso   1.000  N
  N24      1.0000 0.73380  0.16200  0.60360  Biso   1.000  N
  C106     1.0000 0.65540  0.31880  0.59150  Biso   1.000  C
  H71      1.0000 0.65560  0.26250  0.61030  Biso   1.000  H
  C107     1.0000 0.62000  0.37080  0.62390  Biso   1.000  C
  H72      1.0000 0.59650  0.35050  0.66390  Biso   1.000  H
  C108     1.0000 0.68260  0.41920  0.50070  Biso   1.000  C
  H73      1.0000 0.70240  0.43610  0.45270  Biso   1.000  H
  C109     1.0000 0.64820  0.47660  0.53000  Biso   1.000  C
  H74      1.0000 0.64520  0.53160  0.50320  Biso   1.000  H
  C110     1.0000 0.61820  0.45380  0.59840  Biso   1.000  C
  C111     1.0000 0.53560  0.46720  0.69960  Biso   1.000  C
  H75      1.0000 0.56850  0.43140  0.76430  Biso   1.000  H
  H76      1.0000 0.50250  0.43180  0.63440  Biso   1.000  H
  C112     1.0000 0.61460  0.26140  0.27140  Biso   1.000  C
  H77      1.0000 0.62320  0.31790  0.28980  Biso   1.000  H
  C113     1.0000 0.55570  0.24080  0.17200  Biso   1.000  C
  H78      1.0000 0.52520  0.28260  0.12490  Biso   1.000  H
  C114     1.0000 0.64330  0.13670  0.31970  Biso   1.000  C
  H79      1.0000 0.67250  0.09720  0.37550  Biso   1.000  H
  C115     1.0000 0.58770  0.10980  0.22170  Biso   1.000  C
  H80      1.0000 0.57970  0.05290  0.20630  Biso   1.000  H
  C116     1.0000 0.54150  0.16780  0.14210  Biso   1.000  C
  C117     1.0000 0.48110  0.03260  0.98740  Biso   1.000  C
  C118     1.0000 0.43620  0.04700  0.06020  Biso   1.000  C
  C119     1.0000 0.47750  0.97540  0.07070  Biso   1.000  C
  C120     1.0000 0.71870  0.11710  0.65570  Biso   1.000  C
  Co1      1.0000 0.25000  0.25000  0.00000  Biso   1.000  Co
  Co2      1.0000 0.75000  0.25000  0.50000  Biso   1.000  Co
  Co3      1.0000 0.75000  0.75000  0.00000  Biso   1.000  Co
  Co4      1.0000 0.25000  0.75000  0.50000  Biso   1.000  Co
  O9       1.0000 0.00000  0.90770  0.25000  Biso   1.000  O
  C121     1.0000 0.00000  0.98120  0.25000  Biso   1.000  C
  O10      1.0000 0.50000  0.40770  0.25000  Biso   1.000  O
  C122     1.0000 0.50000  0.48120  0.25000  Biso   1.000  C
  O11      1.0000 0.00000  0.09230  0.75000  Biso   1.000  O
  C123     1.0000 0.00000  0.01880  0.75000  Biso   1.000  C
  O12      1.0000 0.50000  0.59230  0.75000  Biso   1.000  O
  C124     1.0000 0.50000  0.51880  0.75000  Biso   1.000  C
