data_image0
_cell_length_a       16.2752
_cell_length_b       16.2752
_cell_length_c       17.4231
_cell_angle_alpha    90
_cell_angle_beta     90
_cell_angle_gamma    90

_symmetry_space_group_name_H-M    "P 1"
_symmetry_int_tables_number       1

loop_
  _symmetry_equiv_pos_as_xyz
  'x, y, z'

loop_
  _atom_site_label
  _atom_site_occupancy
  _atom_site_fract_x
  _atom_site_fract_y
  _atom_site_fract_z
  _atom_site_thermal_displace_type
  _atom_site_B_iso_or_equiv
  _atom_site_type_symbol
  C1       1.0000 0.79060  0.21400  0.90920  Biso   1.000  C
  N1       1.0000 0.87908  0.97090  0.73440  Biso   1.000  N
  Mn1      1.0000 0.76086  0.22660  0.71896  Biso   1.000  Mn
  N2       1.0000 0.77446  0.21930  0.84520  Biso   1.000  N
  N3       1.0000 0.87976  0.29493  0.71222  Biso   1.000  N
  N4       1.0000 0.82526  0.10668  0.70949  Biso   1.000  N
  N5       1.0000 0.80559  0.84539  0.76649  Biso   1.000  N
  C2       1.0000 0.84639  0.04160  0.72282  Biso   1.000  C
  C3       1.0000 0.83618  0.90650  0.75153  Biso   1.000  C
  C4       1.0000 0.94023  0.32866  0.71940  Biso   1.000  C
  N6       1.0000 0.13945  0.33669  0.77060  Biso   1.000  N
  C5       1.0000 0.07490  0.35042  0.74920  Biso   1.000  C
  C6       1.0000 0.77370  0.22700  0.03690  Biso   1.000  C
  N7       1.0000 0.73810  0.24540  0.09379  Biso   1.000  N
  N8       1.0000 0.00510  0.37780  0.72180  Biso   1.000  N
  N9       1.0000 0.82400  0.22690  0.97840  Biso   1.000  N
  N10      1.0000 0.01170  0.35980  0.69430  Biso   1.000  N
  N11      1.0000 0.81210  0.27480  0.97710  Biso   1.000  N
  N12      1.0000 0.75870  0.16480  0.97860  Biso   1.000  N
  C7       1.0000 0.79280  0.24600  0.90640  Biso   1.000  C
  C8       1.0000 0.76880  0.25820  0.03660  Biso   1.000  C
  C9       1.0000 0.76340  0.19830  0.90580  Biso   1.000  C
  C10      1.0000 0.74200  0.21750  0.04090  Biso   1.000  C
  N13      1.0000 0.99750  0.38240  0.75710  Biso   1.000  N
  N14      1.0000 0.80140  0.18790  0.97960  Biso   1.000  N
  C11      1.0000 0.20940  0.78600  0.90920  Biso   1.000  C
  N15      1.0000 0.12092  0.02910  0.73440  Biso   1.000  N
  Mn2      1.0000 0.23914  0.77340  0.71896  Biso   1.000  Mn
  N16      1.0000 0.22554  0.78070  0.84520  Biso   1.000  N
  N17      1.0000 0.12024  0.70507  0.71222  Biso   1.000  N
  N18      1.0000 0.17474  0.89332  0.70949  Biso   1.000  N
  N19      1.0000 0.19441  0.15461  0.76649  Biso   1.000  N
  C12      1.0000 0.15361  0.95840  0.72282  Biso   1.000  C
  C13      1.0000 0.16382  0.09350  0.75153  Biso   1.000  C
  C14      1.0000 0.05977  0.67134  0.71940  Biso   1.000  C
  N20      1.0000 0.86055  0.66331  0.77060  Biso   1.000  N
  C15      1.0000 0.92510  0.64958  0.74920  Biso   1.000  C
  C16      1.0000 0.22630  0.77300  0.03690  Biso   1.000  C
  N21      1.0000 0.26190  0.75460  0.09379  Biso   1.000  N
  N22      1.0000 0.99490  0.62220  0.72180  Biso   1.000  N
  N23      1.0000 0.17600  0.77310  0.97840  Biso   1.000  N
  N24      1.0000 0.98830  0.64020  0.69430  Biso   1.000  N
  N25      1.0000 0.18790  0.72520  0.97710  Biso   1.000  N
  N26      1.0000 0.24130  0.83520  0.97860  Biso   1.000  N
  C17      1.0000 0.20720  0.75400  0.90640  Biso   1.000  C
  C18      1.0000 0.23120  0.74180  0.03660  Biso   1.000  C
  C19      1.0000 0.23660  0.80170  0.90580  Biso   1.000  C
  C20      1.0000 0.25800  0.78250  0.04090  Biso   1.000  C
  N27      1.0000 0.00250  0.61760  0.75710  Biso   1.000  N
  N28      1.0000 0.19860  0.81210  0.97960  Biso   1.000  N
  C21      1.0000 0.21400  0.20940  0.09080  Biso   1.000  C
  N29      1.0000 0.97090  0.12092  0.26560  Biso   1.000  N
  Mn3      1.0000 0.22660  0.23914  0.28104  Biso   1.000  Mn
  N30      1.0000 0.21930  0.22554  0.15480  Biso   1.000  N
  N31      1.0000 0.29493  0.12024  0.28778  Biso   1.000  N
  N32      1.0000 0.10668  0.17474  0.29051  Biso   1.000  N
  N33      1.0000 0.84539  0.19441  0.23351  Biso   1.000  N
  C22      1.0000 0.04160  0.15361  0.27718  Biso   1.000  C
  C23      1.0000 0.90650  0.16382  0.24847  Biso   1.000  C
  C24      1.0000 0.32866  0.05977  0.28060  Biso   1.000  C
  N34      1.0000 0.33669  0.86055  0.22940  Biso   1.000  N
  C25      1.0000 0.35042  0.92510  0.25080  Biso   1.000  C
  C26      1.0000 0.22700  0.22630  0.96310  Biso   1.000  C
  N35      1.0000 0.24540  0.26190  0.90621  Biso   1.000  N
  N36      1.0000 0.37780  0.99490  0.27820  Biso   1.000  N
  N37      1.0000 0.22690  0.17600  0.02160  Biso   1.000  N
  N38      1.0000 0.35980  0.98830  0.30570  Biso   1.000  N
  N39      1.0000 0.27480  0.18790  0.02290  Biso   1.000  N
  N40      1.0000 0.16480  0.24130  0.02140  Biso   1.000  N
  C27      1.0000 0.24600  0.20720  0.09360  Biso   1.000  C
  C28      1.0000 0.25820  0.23120  0.96340  Biso   1.000  C
  C29      1.0000 0.19830  0.23660  0.09420  Biso   1.000  C
  C30      1.0000 0.21750  0.25800  0.95910  Biso   1.000  C
  N41      1.0000 0.38240  0.00250  0.24290  Biso   1.000  N
  N42      1.0000 0.18790  0.19860  0.02040  Biso   1.000  N
  C31      1.0000 0.78600  0.79060  0.09080  Biso   1.000  C
  N43      1.0000 0.02910  0.87908  0.26560  Biso   1.000  N
  Mn4      1.0000 0.77340  0.76086  0.28104  Biso   1.000  Mn
  N44      1.0000 0.78070  0.77446  0.15480  Biso   1.000  N
  N45      1.0000 0.70507  0.87976  0.28778  Biso   1.000  N
  N46      1.0000 0.89332  0.82526  0.29051  Biso   1.000  N
  N47      1.0000 0.15461  0.80559  0.23351  Biso   1.000  N
  C32      1.0000 0.95840  0.84639  0.27718  Biso   1.000  C
  C33      1.0000 0.09350  0.83618  0.24847  Biso   1.000  C
  C34      1.0000 0.67134  0.94023  0.28060  Biso   1.000  C
  N48      1.0000 0.66331  0.13945  0.22940  Biso   1.000  N
  C35      1.0000 0.64958  0.07490  0.25080  Biso   1.000  C
  C36      1.0000 0.77300  0.77370  0.96310  Biso   1.000  C
  N49      1.0000 0.75460  0.73810  0.90621  Biso   1.000  N
  N50      1.0000 0.62220  0.00510  0.27820  Biso   1.000  N
  N51      1.0000 0.77310  0.82400  0.02160  Biso   1.000  N
  N52      1.0000 0.64020  0.01170  0.30570  Biso   1.000  N
  N53      1.0000 0.72520  0.81210  0.02290  Biso   1.000  N
  N54      1.0000 0.83520  0.75870  0.02140  Biso   1.000  N
  C37      1.0000 0.75400  0.79280  0.09360  Biso   1.000  C
  C38      1.0000 0.74180  0.76880  0.96340  Biso   1.000  C
  C39      1.0000 0.80170  0.76340  0.09420  Biso   1.000  C
  C40      1.0000 0.78250  0.74200  0.95910  Biso   1.000  C
  N55      1.0000 0.61760  0.99750  0.24290  Biso   1.000  N
  N56      1.0000 0.81210  0.80140  0.02040  Biso   1.000  N
  C41      1.0000 0.70940  0.71400  0.59080  Biso   1.000  C
  N57      1.0000 0.62092  0.47090  0.76560  Biso   1.000  N
  Mn5      1.0000 0.73914  0.72660  0.78104  Biso   1.000  Mn
  N58      1.0000 0.72554  0.71930  0.65480  Biso   1.000  N
  N59      1.0000 0.62024  0.79493  0.78778  Biso   1.000  N
  N60      1.0000 0.67474  0.60668  0.79051  Biso   1.000  N
  N61      1.0000 0.69441  0.34539  0.73351  Biso   1.000  N
  C42      1.0000 0.65361  0.54160  0.77718  Biso   1.000  C
  C43      1.0000 0.66382  0.40650  0.74847  Biso   1.000  C
  C44      1.0000 0.55977  0.82866  0.78060  Biso   1.000  C
  N62      1.0000 0.36055  0.83669  0.72940  Biso   1.000  N
  C45      1.0000 0.42510  0.85042  0.75080  Biso   1.000  C
  C46      1.0000 0.72630  0.72700  0.46310  Biso   1.000  C
  N63      1.0000 0.76190  0.74540  0.40621  Biso   1.000  N
  N64      1.0000 0.49490  0.87780  0.77820  Biso   1.000  N
  N65      1.0000 0.67600  0.72690  0.52160  Biso   1.000  N
  N66      1.0000 0.48830  0.85980  0.80570  Biso   1.000  N
  N67      1.0000 0.68790  0.77480  0.52290  Biso   1.000  N
  N68      1.0000 0.74130  0.66480  0.52140  Biso   1.000  N
  C47      1.0000 0.70720  0.74600  0.59360  Biso   1.000  C
  C48      1.0000 0.73120  0.75820  0.46340  Biso   1.000  C
  C49      1.0000 0.73660  0.69830  0.59420  Biso   1.000  C
  C50      1.0000 0.75800  0.71750  0.45910  Biso   1.000  C
  N69      1.0000 0.50250  0.88240  0.74290  Biso   1.000  N
  N70      1.0000 0.69860  0.68790  0.52040  Biso   1.000  N
  C51      1.0000 0.29060  0.28600  0.59080  Biso   1.000  C
  N71      1.0000 0.37908  0.52910  0.76560  Biso   1.000  N
  Mn6      1.0000 0.26086  0.27340  0.78104  Biso   1.000  Mn
  N72      1.0000 0.27446  0.28070  0.65480  Biso   1.000  N
  N73      1.0000 0.37976  0.20507  0.78778  Biso   1.000  N
  N74      1.0000 0.32526  0.39332  0.79051  Biso   1.000  N
  N75      1.0000 0.30559  0.65461  0.73351  Biso   1.000  N
  C52      1.0000 0.34639  0.45840  0.77718  Biso   1.000  C
  C53      1.0000 0.33618  0.59350  0.74847  Biso   1.000  C
  C54      1.0000 0.44023  0.17134  0.78060  Biso   1.000  C
  N76      1.0000 0.63945  0.16331  0.72940  Biso   1.000  N
  C55      1.0000 0.57490  0.14958  0.75080  Biso   1.000  C
  C56      1.0000 0.27370  0.27300  0.46310  Biso   1.000  C
  N77      1.0000 0.23810  0.25460  0.40621  Biso   1.000  N
  N78      1.0000 0.50510  0.12220  0.77820  Biso   1.000  N
  N79      1.0000 0.32400  0.27310  0.52160  Biso   1.000  N
  N80      1.0000 0.51170  0.14020  0.80570  Biso   1.000  N
  N81      1.0000 0.31210  0.22520  0.52290  Biso   1.000  N
  N82      1.0000 0.25870  0.33520  0.52140  Biso   1.000  N
  C57      1.0000 0.29280  0.25400  0.59360  Biso   1.000  C
  C58      1.0000 0.26880  0.24180  0.46340  Biso   1.000  C
  C59      1.0000 0.26340  0.30170  0.59420  Biso   1.000  C
  C60      1.0000 0.24200  0.28250  0.45910  Biso   1.000  C
  N83      1.0000 0.49750  0.11760  0.74290  Biso   1.000  N
  N84      1.0000 0.30140  0.31210  0.52040  Biso   1.000  N
  C61      1.0000 0.28600  0.70940  0.40920  Biso   1.000  C
  N85      1.0000 0.52910  0.62092  0.23440  Biso   1.000  N
  Mn7      1.0000 0.27340  0.73914  0.21896  Biso   1.000  Mn
  N86      1.0000 0.28070  0.72554  0.34520  Biso   1.000  N
  N87      1.0000 0.20507  0.62024  0.21222  Biso   1.000  N
  N88      1.0000 0.39332  0.67474  0.20949  Biso   1.000  N
  N89      1.0000 0.65461  0.69441  0.26649  Biso   1.000  N
  C62      1.0000 0.45840  0.65361  0.22282  Biso   1.000  C
  C63      1.0000 0.59350  0.66382  0.25153  Biso   1.000  C
  C64      1.0000 0.17134  0.55977  0.21940  Biso   1.000  C
  N90      1.0000 0.16331  0.36055  0.27060  Biso   1.000  N
  C65      1.0000 0.14958  0.42510  0.24920  Biso   1.000  C
  C66      1.0000 0.27300  0.72630  0.53690  Biso   1.000  C
  N91      1.0000 0.25460  0.76190  0.59379  Biso   1.000  N
  N92      1.0000 0.12220  0.49490  0.22180  Biso   1.000  N
  N93      1.0000 0.27310  0.67600  0.47840  Biso   1.000  N
  N94      1.0000 0.14020  0.48830  0.19430  Biso   1.000  N
  N95      1.0000 0.22520  0.68790  0.47710  Biso   1.000  N
  N96      1.0000 0.33520  0.74130  0.47860  Biso   1.000  N
  C67      1.0000 0.25400  0.70720  0.40640  Biso   1.000  C
  C68      1.0000 0.24180  0.73120  0.53660  Biso   1.000  C
  C69      1.0000 0.30170  0.73660  0.40580  Biso   1.000  C
  C70      1.0000 0.28250  0.75800  0.54090  Biso   1.000  C
  N97      1.0000 0.11760  0.50250  0.25710  Biso   1.000  N
  N98      1.0000 0.31210  0.69860  0.47960  Biso   1.000  N
  C71      1.0000 0.71400  0.29060  0.40920  Biso   1.000  C
  N99      1.0000 0.47090  0.37908  0.23440  Biso   1.000  N
  Mn8      1.0000 0.72660  0.26086  0.21896  Biso   1.000  Mn
  N100     1.0000 0.71930  0.27446  0.34520  Biso   1.000  N
  N101     1.0000 0.79493  0.37976  0.21222  Biso   1.000  N
  N102     1.0000 0.60668  0.32526  0.20949  Biso   1.000  N
  N103     1.0000 0.34539  0.30559  0.26649  Biso   1.000  N
  C72      1.0000 0.54160  0.34639  0.22282  Biso   1.000  C
  C73      1.0000 0.40650  0.33618  0.25153  Biso   1.000  C
  C74      1.0000 0.82866  0.44023  0.21940  Biso   1.000  C
  N104     1.0000 0.83669  0.63945  0.27060  Biso   1.000  N
  C75      1.0000 0.85042  0.57490  0.24920  Biso   1.000  C
  C76      1.0000 0.72700  0.27370  0.53690  Biso   1.000  C
  N105     1.0000 0.74540  0.23810  0.59379  Biso   1.000  N
  N106     1.0000 0.87780  0.50510  0.22180  Biso   1.000  N
  N107     1.0000 0.72690  0.32400  0.47840  Biso   1.000  N
  N108     1.0000 0.85980  0.51170  0.19430  Biso   1.000  N
  N109     1.0000 0.77480  0.31210  0.47710  Biso   1.000  N
  N110     1.0000 0.66480  0.25870  0.47860  Biso   1.000  N
  C77      1.0000 0.74600  0.29280  0.40640  Biso   1.000  C
  C78      1.0000 0.75820  0.26880  0.53660  Biso   1.000  C
  C79      1.0000 0.69830  0.26340  0.40580  Biso   1.000  C
  C80      1.0000 0.71750  0.24200  0.54090  Biso   1.000  C
  N111     1.0000 0.88240  0.49750  0.25710  Biso   1.000  N
  N112     1.0000 0.68790  0.30140  0.47960  Biso   1.000  N
