data_image0
_cell_length_a       17.1711
_cell_length_b       22.9918
_cell_length_c       22.75
_cell_angle_alpha    90
_cell_angle_beta     90
_cell_angle_gamma    90

_symmetry_space_group_name_H-M    "P 1"
_symmetry_int_tables_number       1

loop_
  _symmetry_equiv_pos_as_xyz
  'x, y, z'

loop_
  _atom_site_label
  _atom_site_occupancy
  _atom_site_fract_x
  _atom_site_fract_y
  _atom_site_fract_z
  _atom_site_thermal_displace_type
  _atom_site_B_iso_or_equiv
  _atom_site_type_symbol
  Ni1      1.0000 0.47897  0.25590  0.00680  Biso   1.000  Ni
  Ni2      1.0000 0.49731  0.50589  0.25684  Biso   1.000  Ni
  N1       1.0000 0.46648  0.16935  0.03355  Biso   1.000  N
  N2       1.0000 0.49485  0.22801  0.92041  Biso   1.000  N
  N3       1.0000 0.49015  0.34188  0.97805  Biso   1.000  N
  N4       1.0000 0.46531  0.28409  0.09316  Biso   1.000  N
  N5       1.0000 0.35884  0.26024  0.99316  Biso   1.000  N
  N6       1.0000 0.59948  0.25204  0.01975  Biso   1.000  N
  N7       1.0000 0.49074  0.41941  0.22917  Biso   1.000  N
  N8       1.0000 0.49676  0.59199  0.28504  Biso   1.000  N
  N9       1.0000 0.48810  0.47778  0.34405  Biso   1.000  N
  N10      1.0000 0.50614  0.53276  0.16916  Biso   1.000  N
  N11      1.0000 0.37722  0.51017  0.24858  Biso   1.000  N
  N12      1.0000 0.61958  0.50204  0.26111  Biso   1.000  N
  N13      1.0000 0.23240  0.25300  0.94280  Biso   1.000  N
  C1       1.0000 0.29730  0.25630  0.97130  Biso   1.000  C
  C2       1.0000 0.66270  0.25190  0.03490  Biso   1.000  C
  N14      1.0000 0.23220  0.22160  0.95750  Biso   1.000  N
  C3       1.0000 0.29610  0.24160  0.98390  Biso   1.000  C
  C4       1.0000 0.66310  0.23670  0.02150  Biso   1.000  C
  N15      1.0000 0.23140  0.28710  0.95250  Biso   1.000  N
  C5       1.0000 0.29650  0.27400  0.98000  Biso   1.000  C
  C6       1.0000 0.66320  0.26940  0.02780  Biso   1.000  C
  N16      1.0000 0.74800  0.45690  0.25100  Biso   1.000  N
  C7       1.0000 0.68120  0.48310  0.25680  Biso   1.000  C
  C8       1.0000 0.18340  0.98070  0.75700  Biso   1.000  C
  N17      1.0000 0.52260  0.19082  0.82177  Biso   1.000  N
  N18      1.0000 0.45830  0.32187  0.19349  Biso   1.000  N
  N19      1.0000 0.45700  0.06658  0.06122  Biso   1.000  N
  N20      1.0000 0.48940  0.43831  0.93370  Biso   1.000  N
  C9       1.0000 0.46390  0.12212  0.04951  Biso   1.000  C
  C10      1.0000 0.50681  0.20778  0.87529  Biso   1.000  C
  C11      1.0000 0.49070  0.38561  0.95430  Biso   1.000  C
  C12      1.0000 0.46340  0.30433  0.13909  Biso   1.000  C
  C13      1.0000 0.47630  0.37462  0.20946  Biso   1.000  C
  C14      1.0000 0.51096  0.13725  0.80508  Biso   1.000  C
  C15      1.0000 0.47470  0.04551  0.11282  Biso   1.000  C
  C16      1.0000 0.49300  0.45053  0.87811  Biso   1.000  C
  C17      1.0000 0.31580  0.50580  0.22950  Biso   1.000  C
  C18      1.0000 0.68620  0.00500  0.77430  Biso   1.000  C
  Ni3      1.0000 0.02103  0.74410  0.00680  Biso   1.000  Ni
  Ni4      1.0000 0.00269  0.49411  0.25684  Biso   1.000  Ni
  N21      1.0000 0.03352  0.83065  0.03355  Biso   1.000  N
  N22      1.0000 0.00515  0.77199  0.92041  Biso   1.000  N
  N23      1.0000 0.00985  0.65812  0.97805  Biso   1.000  N
  N24      1.0000 0.03469  0.71591  0.09316  Biso   1.000  N
  N25      1.0000 0.14116  0.73976  0.99316  Biso   1.000  N
  N26      1.0000 0.90052  0.74796  0.01975  Biso   1.000  N
  N27      1.0000 0.00926  0.58059  0.22917  Biso   1.000  N
  N28      1.0000 0.00324  0.40801  0.28504  Biso   1.000  N
  N29      1.0000 0.01190  0.52222  0.34405  Biso   1.000  N
  N30      1.0000 0.99386  0.46724  0.16916  Biso   1.000  N
  N31      1.0000 0.12278  0.48983  0.24858  Biso   1.000  N
  N32      1.0000 0.88042  0.49796  0.26111  Biso   1.000  N
  N33      1.0000 0.26760  0.74700  0.94280  Biso   1.000  N
  C19      1.0000 0.20270  0.74370  0.97130  Biso   1.000  C
  C20      1.0000 0.83730  0.74810  0.03490  Biso   1.000  C
  N34      1.0000 0.26780  0.77840  0.95750  Biso   1.000  N
  C21      1.0000 0.20390  0.75840  0.98390  Biso   1.000  C
  C22      1.0000 0.83690  0.76330  0.02150  Biso   1.000  C
  N35      1.0000 0.26860  0.71290  0.95250  Biso   1.000  N
  C23      1.0000 0.20350  0.72600  0.98000  Biso   1.000  C
  C24      1.0000 0.83680  0.73060  0.02780  Biso   1.000  C
  N36      1.0000 0.75200  0.54310  0.25100  Biso   1.000  N
  C25      1.0000 0.81880  0.51690  0.25680  Biso   1.000  C
  C26      1.0000 0.31660  0.01930  0.75700  Biso   1.000  C
  N37      1.0000 0.97740  0.80918  0.82177  Biso   1.000  N
  N38      1.0000 0.04170  0.67813  0.19349  Biso   1.000  N
  N39      1.0000 0.04300  0.93342  0.06122  Biso   1.000  N
  N40      1.0000 0.01060  0.56169  0.93370  Biso   1.000  N
  C27      1.0000 0.03610  0.87788  0.04951  Biso   1.000  C
  C28      1.0000 0.99319  0.79222  0.87529  Biso   1.000  C
  C29      1.0000 0.00930  0.61439  0.95430  Biso   1.000  C
  C30      1.0000 0.03660  0.69567  0.13909  Biso   1.000  C
  C31      1.0000 0.02370  0.62538  0.20946  Biso   1.000  C
  C32      1.0000 0.98904  0.86275  0.80508  Biso   1.000  C
  C33      1.0000 0.02530  0.95449  0.11282  Biso   1.000  C
  C34      1.0000 0.00700  0.54947  0.87811  Biso   1.000  C
  C35      1.0000 0.18420  0.49420  0.22950  Biso   1.000  C
  C36      1.0000 0.81380  0.99500  0.77430  Biso   1.000  C
  Ni5      1.0000 0.02103  0.75590  0.49320  Biso   1.000  Ni
  Ni6      1.0000 0.00269  0.00589  0.24316  Biso   1.000  Ni
  N41      1.0000 0.03352  0.66935  0.46645  Biso   1.000  N
  N42      1.0000 0.00515  0.72801  0.57959  Biso   1.000  N
  N43      1.0000 0.00985  0.84188  0.52195  Biso   1.000  N
  N44      1.0000 0.03469  0.78409  0.40684  Biso   1.000  N
  N45      1.0000 0.14116  0.76024  0.50684  Biso   1.000  N
  N46      1.0000 0.90052  0.75204  0.48025  Biso   1.000  N
  N47      1.0000 0.00926  0.91941  0.27083  Biso   1.000  N
  N48      1.0000 0.00324  0.09199  0.21496  Biso   1.000  N
  N49      1.0000 0.01190  0.97778  0.15595  Biso   1.000  N
  N50      1.0000 0.99386  0.03276  0.33084  Biso   1.000  N
  N51      1.0000 0.12278  0.01017  0.25142  Biso   1.000  N
  N52      1.0000 0.88042  0.00204  0.23889  Biso   1.000  N
  N53      1.0000 0.26760  0.75300  0.55720  Biso   1.000  N
  C37      1.0000 0.20270  0.75630  0.52870  Biso   1.000  C
  C38      1.0000 0.83730  0.75190  0.46510  Biso   1.000  C
  N54      1.0000 0.26780  0.72160  0.54250  Biso   1.000  N
  C39      1.0000 0.20390  0.74160  0.51610  Biso   1.000  C
  C40      1.0000 0.83690  0.73670  0.47850  Biso   1.000  C
  N55      1.0000 0.26860  0.78710  0.54750  Biso   1.000  N
  C41      1.0000 0.20350  0.77400  0.52000  Biso   1.000  C
  C42      1.0000 0.83680  0.76940  0.47220  Biso   1.000  C
  N56      1.0000 0.75200  0.95690  0.24900  Biso   1.000  N
  C43      1.0000 0.81880  0.98310  0.24320  Biso   1.000  C
  C44      1.0000 0.31660  0.48070  0.74300  Biso   1.000  C
  N57      1.0000 0.97740  0.69082  0.67823  Biso   1.000  N
  N58      1.0000 0.04170  0.82187  0.30651  Biso   1.000  N
  N59      1.0000 0.04300  0.56658  0.43878  Biso   1.000  N
  N60      1.0000 0.01060  0.93831  0.56630  Biso   1.000  N
  C45      1.0000 0.03610  0.62212  0.45049  Biso   1.000  C
  C46      1.0000 0.99319  0.70778  0.62471  Biso   1.000  C
  C47      1.0000 0.00930  0.88561  0.54570  Biso   1.000  C
  C48      1.0000 0.03660  0.80433  0.36091  Biso   1.000  C
  C49      1.0000 0.02370  0.87462  0.29054  Biso   1.000  C
  C50      1.0000 0.98904  0.63725  0.69492  Biso   1.000  C
  C51      1.0000 0.02530  0.54551  0.38718  Biso   1.000  C
  C52      1.0000 0.00700  0.95053  0.62189  Biso   1.000  C
  C53      1.0000 0.18420  0.00580  0.27050  Biso   1.000  C
  C54      1.0000 0.81380  0.50500  0.72570  Biso   1.000  C
  Ni7      1.0000 0.47897  0.24410  0.49320  Biso   1.000  Ni
  Ni8      1.0000 0.49731  0.99411  0.24316  Biso   1.000  Ni
  N61      1.0000 0.46648  0.33065  0.46645  Biso   1.000  N
  N62      1.0000 0.49485  0.27199  0.57959  Biso   1.000  N
  N63      1.0000 0.49015  0.15812  0.52195  Biso   1.000  N
  N64      1.0000 0.46531  0.21591  0.40684  Biso   1.000  N
  N65      1.0000 0.35884  0.23976  0.50684  Biso   1.000  N
  N66      1.0000 0.59948  0.24796  0.48025  Biso   1.000  N
  N67      1.0000 0.49074  0.08059  0.27083  Biso   1.000  N
  N68      1.0000 0.49676  0.90801  0.21496  Biso   1.000  N
  N69      1.0000 0.48810  0.02222  0.15595  Biso   1.000  N
  N70      1.0000 0.50614  0.96724  0.33084  Biso   1.000  N
  N71      1.0000 0.37722  0.98983  0.25142  Biso   1.000  N
  N72      1.0000 0.61958  0.99796  0.23889  Biso   1.000  N
  N73      1.0000 0.23240  0.24700  0.55720  Biso   1.000  N
  C55      1.0000 0.29730  0.24370  0.52870  Biso   1.000  C
  C56      1.0000 0.66270  0.24810  0.46510  Biso   1.000  C
  N74      1.0000 0.23220  0.27840  0.54250  Biso   1.000  N
  C57      1.0000 0.29610  0.25840  0.51610  Biso   1.000  C
  C58      1.0000 0.66310  0.26330  0.47850  Biso   1.000  C
  N75      1.0000 0.23140  0.21290  0.54750  Biso   1.000  N
  C59      1.0000 0.29650  0.22600  0.52000  Biso   1.000  C
  C60      1.0000 0.66320  0.23060  0.47220  Biso   1.000  C
  N76      1.0000 0.74800  0.04310  0.24900  Biso   1.000  N
  C61      1.0000 0.68120  0.01690  0.24320  Biso   1.000  C
  C62      1.0000 0.18340  0.51930  0.74300  Biso   1.000  C
  N77      1.0000 0.52260  0.30918  0.67823  Biso   1.000  N
  N78      1.0000 0.45830  0.17813  0.30651  Biso   1.000  N
  N79      1.0000 0.45700  0.43342  0.43878  Biso   1.000  N
  N80      1.0000 0.48940  0.06169  0.56630  Biso   1.000  N
  C63      1.0000 0.46390  0.37788  0.45049  Biso   1.000  C
  C64      1.0000 0.50681  0.29222  0.62471  Biso   1.000  C
  C65      1.0000 0.49070  0.11439  0.54570  Biso   1.000  C
  C66      1.0000 0.46340  0.19567  0.36091  Biso   1.000  C
  C67      1.0000 0.47630  0.12538  0.29054  Biso   1.000  C
  C68      1.0000 0.51096  0.36275  0.69492  Biso   1.000  C
  C69      1.0000 0.47470  0.45449  0.38718  Biso   1.000  C
  C70      1.0000 0.49300  0.04947  0.62189  Biso   1.000  C
  C71      1.0000 0.31580  0.99420  0.27050  Biso   1.000  C
  C72      1.0000 0.68620  0.49500  0.72570  Biso   1.000  C
  Ni9      1.0000 0.52103  0.74410  0.99320  Biso   1.000  Ni
  Ni10     1.0000 0.50269  0.49411  0.74316  Biso   1.000  Ni
  N81      1.0000 0.53352  0.83065  0.96645  Biso   1.000  N
  N82      1.0000 0.50515  0.77199  0.07959  Biso   1.000  N
  N83      1.0000 0.50985  0.65812  0.02195  Biso   1.000  N
  N84      1.0000 0.53469  0.71591  0.90684  Biso   1.000  N
  N85      1.0000 0.64116  0.73976  0.00684  Biso   1.000  N
  N86      1.0000 0.40052  0.74796  0.98025  Biso   1.000  N
  N87      1.0000 0.50926  0.58059  0.77083  Biso   1.000  N
  N88      1.0000 0.50324  0.40801  0.71496  Biso   1.000  N
  N89      1.0000 0.51190  0.52222  0.65595  Biso   1.000  N
  N90      1.0000 0.49386  0.46724  0.83084  Biso   1.000  N
  N91      1.0000 0.62278  0.48983  0.75142  Biso   1.000  N
  N92      1.0000 0.38042  0.49796  0.73889  Biso   1.000  N
  N93      1.0000 0.76760  0.74700  0.05720  Biso   1.000  N
  C73      1.0000 0.70270  0.74370  0.02870  Biso   1.000  C
  C74      1.0000 0.33730  0.74810  0.96510  Biso   1.000  C
  N94      1.0000 0.76780  0.77840  0.04250  Biso   1.000  N
  C75      1.0000 0.70390  0.75840  0.01610  Biso   1.000  C
  C76      1.0000 0.33690  0.76330  0.97850  Biso   1.000  C
  N95      1.0000 0.76860  0.71290  0.04750  Biso   1.000  N
  C77      1.0000 0.70350  0.72600  0.02000  Biso   1.000  C
  C78      1.0000 0.33680  0.73060  0.97220  Biso   1.000  C
  N96      1.0000 0.25200  0.54310  0.74900  Biso   1.000  N
  C79      1.0000 0.31880  0.51690  0.74320  Biso   1.000  C
  C80      1.0000 0.81660  0.01930  0.24300  Biso   1.000  C
  N97      1.0000 0.47740  0.80918  0.17823  Biso   1.000  N
  N98      1.0000 0.54170  0.67813  0.80651  Biso   1.000  N
  N99      1.0000 0.54300  0.93342  0.93878  Biso   1.000  N
  N100     1.0000 0.51060  0.56169  0.06630  Biso   1.000  N
  C81      1.0000 0.53610  0.87788  0.95049  Biso   1.000  C
  C82      1.0000 0.49319  0.79222  0.12471  Biso   1.000  C
  C83      1.0000 0.50930  0.61439  0.04570  Biso   1.000  C
  C84      1.0000 0.53660  0.69567  0.86091  Biso   1.000  C
  C85      1.0000 0.52370  0.62538  0.79054  Biso   1.000  C
  C86      1.0000 0.48904  0.86275  0.19492  Biso   1.000  C
  C87      1.0000 0.52530  0.95449  0.88718  Biso   1.000  C
  C88      1.0000 0.50700  0.54947  0.12189  Biso   1.000  C
  C89      1.0000 0.68420  0.49420  0.77050  Biso   1.000  C
  C90      1.0000 0.31380  0.99500  0.22570  Biso   1.000  C
  Ni11     1.0000 0.97897  0.25590  0.99320  Biso   1.000  Ni
  Ni12     1.0000 0.99731  0.50589  0.74316  Biso   1.000  Ni
  N101     1.0000 0.96648  0.16935  0.96645  Biso   1.000  N
  N102     1.0000 0.99485  0.22801  0.07959  Biso   1.000  N
  N103     1.0000 0.99015  0.34188  0.02195  Biso   1.000  N
  N104     1.0000 0.96531  0.28409  0.90684  Biso   1.000  N
  N105     1.0000 0.85884  0.26024  0.00684  Biso   1.000  N
  N106     1.0000 0.09948  0.25204  0.98025  Biso   1.000  N
  N107     1.0000 0.99074  0.41941  0.77083  Biso   1.000  N
  N108     1.0000 0.99676  0.59199  0.71496  Biso   1.000  N
  N109     1.0000 0.98810  0.47778  0.65595  Biso   1.000  N
  N110     1.0000 0.00614  0.53276  0.83084  Biso   1.000  N
  N111     1.0000 0.87722  0.51017  0.75142  Biso   1.000  N
  N112     1.0000 0.11958  0.50204  0.73889  Biso   1.000  N
  N113     1.0000 0.73240  0.25300  0.05720  Biso   1.000  N
  C91      1.0000 0.79730  0.25630  0.02870  Biso   1.000  C
  C92      1.0000 0.16270  0.25190  0.96510  Biso   1.000  C
  N114     1.0000 0.73220  0.22160  0.04250  Biso   1.000  N
  C93      1.0000 0.79610  0.24160  0.01610  Biso   1.000  C
  C94      1.0000 0.16310  0.23670  0.97850  Biso   1.000  C
  N115     1.0000 0.73140  0.28710  0.04750  Biso   1.000  N
  C95      1.0000 0.79650  0.27400  0.02000  Biso   1.000  C
  C96      1.0000 0.16320  0.26940  0.97220  Biso   1.000  C
  N116     1.0000 0.24800  0.45690  0.74900  Biso   1.000  N
  C97      1.0000 0.18120  0.48310  0.74320  Biso   1.000  C
  C98      1.0000 0.68340  0.98070  0.24300  Biso   1.000  C
  N117     1.0000 0.02260  0.19082  0.17823  Biso   1.000  N
  N118     1.0000 0.95830  0.32187  0.80651  Biso   1.000  N
  N119     1.0000 0.95700  0.06658  0.93878  Biso   1.000  N
  N120     1.0000 0.98940  0.43831  0.06630  Biso   1.000  N
  C99      1.0000 0.96390  0.12212  0.95049  Biso   1.000  C
  C100     1.0000 0.00681  0.20778  0.12471  Biso   1.000  C
  C101     1.0000 0.99070  0.38561  0.04570  Biso   1.000  C
  C102     1.0000 0.96340  0.30433  0.86091  Biso   1.000  C
  C103     1.0000 0.97630  0.37462  0.79054  Biso   1.000  C
  C104     1.0000 0.01096  0.13725  0.19492  Biso   1.000  C
  C105     1.0000 0.97470  0.04551  0.88718  Biso   1.000  C
  C106     1.0000 0.99300  0.45053  0.12189  Biso   1.000  C
  C107     1.0000 0.81580  0.50580  0.77050  Biso   1.000  C
  C108     1.0000 0.18620  0.00500  0.22570  Biso   1.000  C
  Ni13     1.0000 0.97897  0.24410  0.50680  Biso   1.000  Ni
  Ni14     1.0000 0.99731  0.99411  0.75684  Biso   1.000  Ni
  N121     1.0000 0.96648  0.33065  0.53355  Biso   1.000  N
  N122     1.0000 0.99485  0.27199  0.42041  Biso   1.000  N
  N123     1.0000 0.99015  0.15812  0.47805  Biso   1.000  N
  N124     1.0000 0.96531  0.21591  0.59316  Biso   1.000  N
  N125     1.0000 0.85884  0.23976  0.49316  Biso   1.000  N
  N126     1.0000 0.09948  0.24796  0.51975  Biso   1.000  N
  N127     1.0000 0.99074  0.08059  0.72917  Biso   1.000  N
  N128     1.0000 0.99676  0.90801  0.78504  Biso   1.000  N
  N129     1.0000 0.98810  0.02222  0.84405  Biso   1.000  N
  N130     1.0000 0.00614  0.96724  0.66916  Biso   1.000  N
  N131     1.0000 0.87722  0.98983  0.74858  Biso   1.000  N
  N132     1.0000 0.11958  0.99796  0.76111  Biso   1.000  N
  N133     1.0000 0.73240  0.24700  0.44280  Biso   1.000  N
  C109     1.0000 0.79730  0.24370  0.47130  Biso   1.000  C
  C110     1.0000 0.16270  0.24810  0.53490  Biso   1.000  C
  N134     1.0000 0.73220  0.27840  0.45750  Biso   1.000  N
  C111     1.0000 0.79610  0.25840  0.48390  Biso   1.000  C
  C112     1.0000 0.16310  0.26330  0.52150  Biso   1.000  C
  N135     1.0000 0.73140  0.21290  0.45250  Biso   1.000  N
  C113     1.0000 0.79650  0.22600  0.48000  Biso   1.000  C
  C114     1.0000 0.16320  0.23060  0.52780  Biso   1.000  C
  N136     1.0000 0.24800  0.04310  0.75100  Biso   1.000  N
  C115     1.0000 0.18120  0.01690  0.75680  Biso   1.000  C
  C116     1.0000 0.68340  0.51930  0.25700  Biso   1.000  C
  N137     1.0000 0.02260  0.30918  0.32177  Biso   1.000  N
  N138     1.0000 0.95830  0.17813  0.69349  Biso   1.000  N
  N139     1.0000 0.95700  0.43342  0.56122  Biso   1.000  N
  N140     1.0000 0.98940  0.06169  0.43370  Biso   1.000  N
  C117     1.0000 0.96390  0.37788  0.54951  Biso   1.000  C
  C118     1.0000 0.00681  0.29222  0.37529  Biso   1.000  C
  C119     1.0000 0.99070  0.11439  0.45430  Biso   1.000  C
  C120     1.0000 0.96340  0.19567  0.63909  Biso   1.000  C
  C121     1.0000 0.97630  0.12538  0.70946  Biso   1.000  C
  C122     1.0000 0.01096  0.36275  0.30508  Biso   1.000  C
  C123     1.0000 0.97470  0.45449  0.61282  Biso   1.000  C
  C124     1.0000 0.99300  0.04947  0.37811  Biso   1.000  C
  C125     1.0000 0.81580  0.99420  0.72950  Biso   1.000  C
  C126     1.0000 0.18620  0.49500  0.27430  Biso   1.000  C
  Ni15     1.0000 0.52103  0.75590  0.50680  Biso   1.000  Ni
  Ni16     1.0000 0.50269  0.00589  0.75684  Biso   1.000  Ni
  N141     1.0000 0.53352  0.66935  0.53355  Biso   1.000  N
  N142     1.0000 0.50515  0.72801  0.42041  Biso   1.000  N
  N143     1.0000 0.50985  0.84188  0.47805  Biso   1.000  N
  N144     1.0000 0.53469  0.78409  0.59316  Biso   1.000  N
  N145     1.0000 0.64116  0.76024  0.49316  Biso   1.000  N
  N146     1.0000 0.40052  0.75204  0.51975  Biso   1.000  N
  N147     1.0000 0.50926  0.91941  0.72917  Biso   1.000  N
  N148     1.0000 0.50324  0.09199  0.78504  Biso   1.000  N
  N149     1.0000 0.51190  0.97778  0.84405  Biso   1.000  N
  N150     1.0000 0.49386  0.03276  0.66916  Biso   1.000  N
  N151     1.0000 0.62278  0.01017  0.74858  Biso   1.000  N
  N152     1.0000 0.38042  0.00204  0.76111  Biso   1.000  N
  N153     1.0000 0.76760  0.75300  0.44280  Biso   1.000  N
  C127     1.0000 0.70270  0.75630  0.47130  Biso   1.000  C
  C128     1.0000 0.33730  0.75190  0.53490  Biso   1.000  C
  N154     1.0000 0.76780  0.72160  0.45750  Biso   1.000  N
  C129     1.0000 0.70390  0.74160  0.48390  Biso   1.000  C
  C130     1.0000 0.33690  0.73670  0.52150  Biso   1.000  C
  N155     1.0000 0.76860  0.78710  0.45250  Biso   1.000  N
  C131     1.0000 0.70350  0.77400  0.48000  Biso   1.000  C
  C132     1.0000 0.33680  0.76940  0.52780  Biso   1.000  C
  N156     1.0000 0.25200  0.95690  0.75100  Biso   1.000  N
  C133     1.0000 0.31880  0.98310  0.75680  Biso   1.000  C
  C134     1.0000 0.81660  0.48070  0.25700  Biso   1.000  C
  N157     1.0000 0.47740  0.69082  0.32177  Biso   1.000  N
  N158     1.0000 0.54170  0.82187  0.69349  Biso   1.000  N
  N159     1.0000 0.54300  0.56658  0.56122  Biso   1.000  N
  N160     1.0000 0.51060  0.93831  0.43370  Biso   1.000  N
  C135     1.0000 0.53610  0.62212  0.54951  Biso   1.000  C
  C136     1.0000 0.49319  0.70778  0.37529  Biso   1.000  C
  C137     1.0000 0.50930  0.88561  0.45430  Biso   1.000  C
  C138     1.0000 0.53660  0.80433  0.63909  Biso   1.000  C
  C139     1.0000 0.52370  0.87462  0.70946  Biso   1.000  C
  C140     1.0000 0.48904  0.63725  0.30508  Biso   1.000  C
  C141     1.0000 0.52530  0.54551  0.61282  Biso   1.000  C
  C142     1.0000 0.50700  0.95053  0.37811  Biso   1.000  C
  C143     1.0000 0.68420  0.00580  0.72950  Biso   1.000  C
  C144     1.0000 0.31380  0.50500  0.27430  Biso   1.000  C
  N161     1.0000 0.25000  0.50000  0.20340  Biso   1.000  N
  N162     1.0000 0.25000  0.00000  0.29660  Biso   1.000  N
  N163     1.0000 0.75000  0.50000  0.79660  Biso   1.000  N
  N164     1.0000 0.75000  0.00000  0.70340  Biso   1.000  N
  N165     1.0000 0.75000  0.00000  0.80050  Biso   1.000  N
  N166     1.0000 0.75000  0.50000  0.69950  Biso   1.000  N
  N167     1.0000 0.25000  0.00000  0.19950  Biso   1.000  N
  N168     1.0000 0.25000  0.50000  0.30050  Biso   1.000  N
