data_image0
_cell_length_a       16.1461
_cell_length_b       16.1461
_cell_length_c       17.4126
_cell_angle_alpha    90
_cell_angle_beta     90
_cell_angle_gamma    90

_symmetry_space_group_name_H-M    "P 1"
_symmetry_int_tables_number       1

loop_
  _symmetry_equiv_pos_as_xyz
  'x, y, z'

loop_
  _atom_site_label
  _atom_site_occupancy
  _atom_site_fract_x
  _atom_site_fract_y
  _atom_site_fract_z
  _atom_site_thermal_displace_type
  _atom_site_B_iso_or_equiv
  _atom_site_type_symbol
  Mn1      1.0000 0.23852  0.77729  0.21396  Biso   1.000  Mn
  N1       1.0000 0.22380  0.78490  0.33995  Biso   1.000  N
  N2       1.0000 0.11870  0.70639  0.20680  Biso   1.000  N
  N3       1.0000 0.17070  0.89584  0.20470  Biso   1.000  N
  N4       1.0000 0.86046  0.65640  0.27530  Biso   1.000  N
  N5       1.0000 0.19397  0.15797  0.27015  Biso   1.000  N
  N6       1.0000 0.26450  0.75440  0.58899  Biso   1.000  N
  C1       1.0000 0.15010  0.96170  0.21980  Biso   1.000  C
  C2       1.0000 0.16210  0.09750  0.25350  Biso   1.000  C
  N7       1.0000 0.17630  0.77460  0.47460  Biso   1.000  N
  C3       1.0000 0.20450  0.77710  0.40480  Biso   1.000  C
  C4       1.0000 0.22420  0.76340  0.53350  Biso   1.000  C
  N8       1.0000 0.99320  0.62000  0.21740  Biso   1.000  N
  C5       1.0000 0.05750  0.66860  0.21510  Biso   1.000  C
  C6       1.0000 0.92480  0.64340  0.25030  Biso   1.000  C
  N9       1.0000 0.11730  0.03300  0.23390  Biso   1.000  N
  N10      1.0000 0.19170  0.80790  0.47600  Biso   1.000  N
  C7       1.0000 0.21490  0.79540  0.40550  Biso   1.000  C
  C8       1.0000 0.28090  0.73560  0.03340  Biso   1.000  C
  N11      1.0000 0.18310  0.73520  0.46970  Biso   1.000  N
  C9       1.0000 0.20700  0.75480  0.40080  Biso   1.000  C
  C10      1.0000 0.24670  0.72960  0.02970  Biso   1.000  C
  N12      1.0000 0.22620  0.83330  0.47480  Biso   1.000  N
  C11      1.0000 0.23100  0.80790  0.40420  Biso   1.000  C
  C12      1.0000 0.28820  0.75600  0.03010  Biso   1.000  C
  N13      1.0000 0.48460  0.86590  0.30570  Biso   1.000  N
  C13      1.0000 0.05390  0.67410  0.20230  Biso   1.000  C
  C14      1.0000 0.42250  0.85310  0.25980  Biso   1.000  C
  N14      1.0000 0.50430  0.88340  0.25060  Biso   1.000  N
  C15      1.0000 0.06380  0.66740  0.23180  Biso   1.000  C
  C16      1.0000 0.42980  0.85590  0.23840  Biso   1.000  C
  Mn2      1.0000 0.76148  0.22271  0.21396  Biso   1.000  Mn
  N15      1.0000 0.77620  0.21510  0.33995  Biso   1.000  N
  N16      1.0000 0.88130  0.29361  0.20680  Biso   1.000  N
  N17      1.0000 0.82930  0.10416  0.20470  Biso   1.000  N
  N18      1.0000 0.13954  0.34360  0.27530  Biso   1.000  N
  N19      1.0000 0.80603  0.84203  0.27015  Biso   1.000  N
  N20      1.0000 0.73550  0.24560  0.58899  Biso   1.000  N
  C17      1.0000 0.84990  0.03830  0.21980  Biso   1.000  C
  C18      1.0000 0.83790  0.90250  0.25350  Biso   1.000  C
  N21      1.0000 0.82370  0.22540  0.47460  Biso   1.000  N
  C19      1.0000 0.79550  0.22290  0.40480  Biso   1.000  C
  C20      1.0000 0.77580  0.23660  0.53350  Biso   1.000  C
  N22      1.0000 0.00680  0.38000  0.21740  Biso   1.000  N
  C21      1.0000 0.94250  0.33140  0.21510  Biso   1.000  C
  C22      1.0000 0.07520  0.35660  0.25030  Biso   1.000  C
  N23      1.0000 0.88270  0.96700  0.23390  Biso   1.000  N
  N24      1.0000 0.80830  0.19210  0.47600  Biso   1.000  N
  C23      1.0000 0.78510  0.20460  0.40550  Biso   1.000  C
  C24      1.0000 0.71910  0.26440  0.03340  Biso   1.000  C
  N25      1.0000 0.81690  0.26480  0.46970  Biso   1.000  N
  C25      1.0000 0.79300  0.24520  0.40080  Biso   1.000  C
  C26      1.0000 0.75330  0.27040  0.02970  Biso   1.000  C
  N26      1.0000 0.77380  0.16670  0.47480  Biso   1.000  N
  C27      1.0000 0.76900  0.19210  0.40420  Biso   1.000  C
  C28      1.0000 0.71180  0.24400  0.03010  Biso   1.000  C
  N27      1.0000 0.51540  0.13410  0.30570  Biso   1.000  N
  C29      1.0000 0.94610  0.32590  0.20230  Biso   1.000  C
  C30      1.0000 0.57750  0.14690  0.25980  Biso   1.000  C
  N28      1.0000 0.49570  0.11660  0.25060  Biso   1.000  N
  C31      1.0000 0.93620  0.33260  0.23180  Biso   1.000  C
  C32      1.0000 0.57020  0.14410  0.23840  Biso   1.000  C
  Mn3      1.0000 0.77729  0.76148  0.78604  Biso   1.000  Mn
  N29      1.0000 0.78490  0.77620  0.66005  Biso   1.000  N
  N30      1.0000 0.70639  0.88130  0.79320  Biso   1.000  N
  N31      1.0000 0.89584  0.82930  0.79530  Biso   1.000  N
  N32      1.0000 0.65640  0.13954  0.72470  Biso   1.000  N
  N33      1.0000 0.15797  0.80603  0.72985  Biso   1.000  N
  N34      1.0000 0.75440  0.73550  0.41101  Biso   1.000  N
  C33      1.0000 0.96170  0.84990  0.78020  Biso   1.000  C
  C34      1.0000 0.09750  0.83790  0.74650  Biso   1.000  C
  N35      1.0000 0.77460  0.82370  0.52540  Biso   1.000  N
  C35      1.0000 0.77710  0.79550  0.59520  Biso   1.000  C
  C36      1.0000 0.76340  0.77580  0.46650  Biso   1.000  C
  N36      1.0000 0.62000  0.00680  0.78260  Biso   1.000  N
  C37      1.0000 0.66860  0.94250  0.78490  Biso   1.000  C
  C38      1.0000 0.64340  0.07520  0.74970  Biso   1.000  C
  N37      1.0000 0.03300  0.88270  0.76610  Biso   1.000  N
  N38      1.0000 0.80790  0.80830  0.52400  Biso   1.000  N
  C39      1.0000 0.79540  0.78510  0.59450  Biso   1.000  C
  C40      1.0000 0.73560  0.71910  0.96660  Biso   1.000  C
  N39      1.0000 0.73520  0.81690  0.53030  Biso   1.000  N
  C41      1.0000 0.75480  0.79300  0.59920  Biso   1.000  C
  C42      1.0000 0.72960  0.75330  0.97030  Biso   1.000  C
  N40      1.0000 0.83330  0.77380  0.52520  Biso   1.000  N
  C43      1.0000 0.80790  0.76900  0.59580  Biso   1.000  C
  C44      1.0000 0.75600  0.71180  0.96990  Biso   1.000  C
  N41      1.0000 0.86590  0.51540  0.69430  Biso   1.000  N
  C45      1.0000 0.67410  0.94610  0.79770  Biso   1.000  C
  C46      1.0000 0.85310  0.57750  0.74020  Biso   1.000  C
  N42      1.0000 0.88340  0.49570  0.74940  Biso   1.000  N
  C47      1.0000 0.66740  0.93620  0.76820  Biso   1.000  C
  C48      1.0000 0.85590  0.57020  0.76160  Biso   1.000  C
  Mn4      1.0000 0.22271  0.23852  0.78604  Biso   1.000  Mn
  N43      1.0000 0.21510  0.22380  0.66005  Biso   1.000  N
  N44      1.0000 0.29361  0.11870  0.79320  Biso   1.000  N
  N45      1.0000 0.10416  0.17070  0.79530  Biso   1.000  N
  N46      1.0000 0.34360  0.86046  0.72470  Biso   1.000  N
  N47      1.0000 0.84203  0.19397  0.72985  Biso   1.000  N
  N48      1.0000 0.24560  0.26450  0.41101  Biso   1.000  N
  C49      1.0000 0.03830  0.15010  0.78020  Biso   1.000  C
  C50      1.0000 0.90250  0.16210  0.74650  Biso   1.000  C
  N49      1.0000 0.22540  0.17630  0.52540  Biso   1.000  N
  C51      1.0000 0.22290  0.20450  0.59520  Biso   1.000  C
  C52      1.0000 0.23660  0.22420  0.46650  Biso   1.000  C
  N50      1.0000 0.38000  0.99320  0.78260  Biso   1.000  N
  C53      1.0000 0.33140  0.05750  0.78490  Biso   1.000  C
  C54      1.0000 0.35660  0.92480  0.74970  Biso   1.000  C
  N51      1.0000 0.96700  0.11730  0.76610  Biso   1.000  N
  N52      1.0000 0.19210  0.19170  0.52400  Biso   1.000  N
  C55      1.0000 0.20460  0.21490  0.59450  Biso   1.000  C
  C56      1.0000 0.26440  0.28090  0.96660  Biso   1.000  C
  N53      1.0000 0.26480  0.18310  0.53030  Biso   1.000  N
  C57      1.0000 0.24520  0.20700  0.59920  Biso   1.000  C
  C58      1.0000 0.27040  0.24670  0.97030  Biso   1.000  C
  N54      1.0000 0.16670  0.22620  0.52520  Biso   1.000  N
  C59      1.0000 0.19210  0.23100  0.59580  Biso   1.000  C
  C60      1.0000 0.24400  0.28820  0.96990  Biso   1.000  C
  N55      1.0000 0.13410  0.48460  0.69430  Biso   1.000  N
  C61      1.0000 0.32590  0.05390  0.79770  Biso   1.000  C
  C62      1.0000 0.14690  0.42250  0.74020  Biso   1.000  C
  N56      1.0000 0.11660  0.50430  0.74940  Biso   1.000  N
  C63      1.0000 0.33260  0.06380  0.76820  Biso   1.000  C
  C64      1.0000 0.14410  0.42980  0.76160  Biso   1.000  C
  Mn5      1.0000 0.26148  0.27729  0.28604  Biso   1.000  Mn
  N57      1.0000 0.27620  0.28490  0.16005  Biso   1.000  N
  N58      1.0000 0.38130  0.20639  0.29320  Biso   1.000  N
  N59      1.0000 0.32930  0.39584  0.29530  Biso   1.000  N
  N60      1.0000 0.63954  0.15640  0.22470  Biso   1.000  N
  N61      1.0000 0.30603  0.65797  0.22985  Biso   1.000  N
  N62      1.0000 0.23550  0.25440  0.91101  Biso   1.000  N
  C65      1.0000 0.34990  0.46170  0.28020  Biso   1.000  C
  C66      1.0000 0.33790  0.59750  0.24650  Biso   1.000  C
  N63      1.0000 0.32370  0.27460  0.02540  Biso   1.000  N
  C67      1.0000 0.29550  0.27710  0.09520  Biso   1.000  C
  C68      1.0000 0.27580  0.26340  0.96650  Biso   1.000  C
  N64      1.0000 0.50680  0.12000  0.28260  Biso   1.000  N
  C69      1.0000 0.44250  0.16860  0.28490  Biso   1.000  C
  C70      1.0000 0.57520  0.14340  0.24970  Biso   1.000  C
  N65      1.0000 0.38270  0.53300  0.26610  Biso   1.000  N
  N66      1.0000 0.30830  0.30790  0.02400  Biso   1.000  N
  C71      1.0000 0.28510  0.29540  0.09450  Biso   1.000  C
  C72      1.0000 0.21910  0.23560  0.46660  Biso   1.000  C
  N67      1.0000 0.31690  0.23520  0.03030  Biso   1.000  N
  C73      1.0000 0.29300  0.25480  0.09920  Biso   1.000  C
  C74      1.0000 0.25330  0.22960  0.47030  Biso   1.000  C
  N68      1.0000 0.27380  0.33330  0.02520  Biso   1.000  N
  C75      1.0000 0.26900  0.30790  0.09580  Biso   1.000  C
  C76      1.0000 0.21180  0.25600  0.46990  Biso   1.000  C
  N69      1.0000 0.01540  0.36590  0.19430  Biso   1.000  N
  C77      1.0000 0.44610  0.17410  0.29770  Biso   1.000  C
  C78      1.0000 0.07750  0.35310  0.24020  Biso   1.000  C
  N70      1.0000 0.99570  0.38340  0.24940  Biso   1.000  N
  C79      1.0000 0.43620  0.16740  0.26820  Biso   1.000  C
  C80      1.0000 0.07020  0.35590  0.26160  Biso   1.000  C
  Mn6      1.0000 0.73852  0.72271  0.28604  Biso   1.000  Mn
  N71      1.0000 0.72380  0.71510  0.16005  Biso   1.000  N
  N72      1.0000 0.61870  0.79361  0.29320  Biso   1.000  N
  N73      1.0000 0.67070  0.60416  0.29530  Biso   1.000  N
  N74      1.0000 0.36046  0.84360  0.22470  Biso   1.000  N
  N75      1.0000 0.69397  0.34203  0.22985  Biso   1.000  N
  N76      1.0000 0.76450  0.74560  0.91101  Biso   1.000  N
  C81      1.0000 0.65010  0.53830  0.28020  Biso   1.000  C
  C82      1.0000 0.66210  0.40250  0.24650  Biso   1.000  C
  N77      1.0000 0.67630  0.72540  0.02540  Biso   1.000  N
  C83      1.0000 0.70450  0.72290  0.09520  Biso   1.000  C
  C84      1.0000 0.72420  0.73660  0.96650  Biso   1.000  C
  N78      1.0000 0.49320  0.88000  0.28260  Biso   1.000  N
  C85      1.0000 0.55750  0.83140  0.28490  Biso   1.000  C
  C86      1.0000 0.42480  0.85660  0.24970  Biso   1.000  C
  N79      1.0000 0.61730  0.46700  0.26610  Biso   1.000  N
  N80      1.0000 0.69170  0.69210  0.02400  Biso   1.000  N
  C87      1.0000 0.71490  0.70460  0.09450  Biso   1.000  C
  C88      1.0000 0.78090  0.76440  0.46660  Biso   1.000  C
  N81      1.0000 0.68310  0.76480  0.03030  Biso   1.000  N
  C89      1.0000 0.70700  0.74520  0.09920  Biso   1.000  C
  C90      1.0000 0.74670  0.77040  0.47030  Biso   1.000  C
  N82      1.0000 0.72620  0.66670  0.02520  Biso   1.000  N
  C91      1.0000 0.73100  0.69210  0.09580  Biso   1.000  C
  C92      1.0000 0.78820  0.74400  0.46990  Biso   1.000  C
  N83      1.0000 0.98460  0.63410  0.19430  Biso   1.000  N
  C93      1.0000 0.55390  0.82590  0.29770  Biso   1.000  C
  C94      1.0000 0.92250  0.64690  0.24020  Biso   1.000  C
  N84      1.0000 0.00430  0.61660  0.24940  Biso   1.000  N
  C95      1.0000 0.56380  0.83260  0.26820  Biso   1.000  C
  C96      1.0000 0.92980  0.64410  0.26160  Biso   1.000  C
  Mn7      1.0000 0.72271  0.26148  0.71396  Biso   1.000  Mn
  N85      1.0000 0.71510  0.27620  0.83995  Biso   1.000  N
  N86      1.0000 0.79361  0.38130  0.70680  Biso   1.000  N
  N87      1.0000 0.60416  0.32930  0.70470  Biso   1.000  N
  N88      1.0000 0.84360  0.63954  0.77530  Biso   1.000  N
  N89      1.0000 0.34203  0.30603  0.77015  Biso   1.000  N
  N90      1.0000 0.74560  0.23550  0.08899  Biso   1.000  N
  C97      1.0000 0.53830  0.34990  0.71980  Biso   1.000  C
  C98      1.0000 0.40250  0.33790  0.75350  Biso   1.000  C
  N91      1.0000 0.72540  0.32370  0.97460  Biso   1.000  N
  C99      1.0000 0.72290  0.29550  0.90480  Biso   1.000  C
  C100     1.0000 0.73660  0.27580  0.03350  Biso   1.000  C
  N92      1.0000 0.88000  0.50680  0.71740  Biso   1.000  N
  C101     1.0000 0.83140  0.44250  0.71510  Biso   1.000  C
  C102     1.0000 0.85660  0.57520  0.75030  Biso   1.000  C
  N93      1.0000 0.46700  0.38270  0.73390  Biso   1.000  N
  N94      1.0000 0.69210  0.30830  0.97600  Biso   1.000  N
  C103     1.0000 0.70460  0.28510  0.90550  Biso   1.000  C
  C104     1.0000 0.76440  0.21910  0.53340  Biso   1.000  C
  N95      1.0000 0.76480  0.31690  0.96970  Biso   1.000  N
  C105     1.0000 0.74520  0.29300  0.90080  Biso   1.000  C
  C106     1.0000 0.77040  0.25330  0.52970  Biso   1.000  C
  N96      1.0000 0.66670  0.27380  0.97480  Biso   1.000  N
  C107     1.0000 0.69210  0.26900  0.90420  Biso   1.000  C
  C108     1.0000 0.74400  0.21180  0.53010  Biso   1.000  C
  N97      1.0000 0.63410  0.01540  0.80570  Biso   1.000  N
  C109     1.0000 0.82590  0.44610  0.70230  Biso   1.000  C
  C110     1.0000 0.64690  0.07750  0.75980  Biso   1.000  C
  N98      1.0000 0.61660  0.99570  0.75060  Biso   1.000  N
  C111     1.0000 0.83260  0.43620  0.73180  Biso   1.000  C
  C112     1.0000 0.64410  0.07020  0.73840  Biso   1.000  C
  Mn8      1.0000 0.27729  0.73852  0.71396  Biso   1.000  Mn
  N99      1.0000 0.28490  0.72380  0.83995  Biso   1.000  N
  N100     1.0000 0.20639  0.61870  0.70680  Biso   1.000  N
  N101     1.0000 0.39584  0.67070  0.70470  Biso   1.000  N
  N102     1.0000 0.15640  0.36046  0.77530  Biso   1.000  N
  N103     1.0000 0.65797  0.69397  0.77015  Biso   1.000  N
  N104     1.0000 0.25440  0.76450  0.08899  Biso   1.000  N
  C113     1.0000 0.46170  0.65010  0.71980  Biso   1.000  C
  C114     1.0000 0.59750  0.66210  0.75350  Biso   1.000  C
  N105     1.0000 0.27460  0.67630  0.97460  Biso   1.000  N
  C115     1.0000 0.27710  0.70450  0.90480  Biso   1.000  C
  C116     1.0000 0.26340  0.72420  0.03350  Biso   1.000  C
  N106     1.0000 0.12000  0.49320  0.71740  Biso   1.000  N
  C117     1.0000 0.16860  0.55750  0.71510  Biso   1.000  C
  C118     1.0000 0.14340  0.42480  0.75030  Biso   1.000  C
  N107     1.0000 0.53300  0.61730  0.73390  Biso   1.000  N
  N108     1.0000 0.30790  0.69170  0.97600  Biso   1.000  N
  C119     1.0000 0.29540  0.71490  0.90550  Biso   1.000  C
  C120     1.0000 0.23560  0.78090  0.53340  Biso   1.000  C
  N109     1.0000 0.23520  0.68310  0.96970  Biso   1.000  N
  C121     1.0000 0.25480  0.70700  0.90080  Biso   1.000  C
  C122     1.0000 0.22960  0.74670  0.52970  Biso   1.000  C
  N110     1.0000 0.33330  0.72620  0.97480  Biso   1.000  N
  C123     1.0000 0.30790  0.73100  0.90420  Biso   1.000  C
  C124     1.0000 0.25600  0.78820  0.53010  Biso   1.000  C
  N111     1.0000 0.36590  0.98460  0.80570  Biso   1.000  N
  C125     1.0000 0.17410  0.55390  0.70230  Biso   1.000  C
  C126     1.0000 0.35310  0.92250  0.75980  Biso   1.000  C
  N112     1.0000 0.38340  0.00430  0.75060  Biso   1.000  N
  C127     1.0000 0.16740  0.56380  0.73180  Biso   1.000  C
  C128     1.0000 0.35590  0.92980  0.73840  Biso   1.000  C
