data_image0
_cell_length_a       16.0107
_cell_length_b       16.0114
_cell_length_c       21.5577
_cell_angle_alpha    90
_cell_angle_beta     90
_cell_angle_gamma    90

_symmetry_space_group_name_H-M    "P 1"
_symmetry_int_tables_number       1

loop_
  _symmetry_equiv_pos_as_xyz
  'x, y, z'

loop_
  _atom_site_label
  _atom_site_occupancy
  _atom_site_fract_x
  _atom_site_fract_y
  _atom_site_fract_z
  _atom_site_thermal_displace_type
  _atom_site_B_iso_or_equiv
  _atom_site_type_symbol
  N1       1.0000 0.90790  0.01520  0.40500  Biso   1.000  N
  N2       1.0000 0.10390  0.98700  0.25982  Biso   1.000  N
  N3       1.0000 0.01210  0.13920  0.32150  Biso   1.000  N
  N4       1.0000 0.00490  0.39540  0.24736  Biso   1.000  N
  N5       1.0000 0.98770  0.59110  0.09950  Biso   1.000  N
  N6       1.0000 0.13700  0.50990  0.17990  Biso   1.000  N
  N7       1.0000 0.39750  0.51260  0.24904  Biso   1.000  N
  N8       1.0000 0.90500  0.99900  0.60671  Biso   1.000  N
  N9       1.0000 0.98710  0.13800  0.68680  Biso   1.000  N
  N10      1.0000 0.98970  0.39710  0.75440  Biso   1.000  N
  N11      1.0000 0.36130  0.98640  0.18309  Biso   1.000  N
  N12      1.0000 0.00010  0.59230  0.89893  Biso   1.000  N
  N13      1.0000 0.86300  0.06570  0.50630  Biso   1.000  N
  N14      1.0000 0.84220  0.03270  0.50730  Biso   1.000  N
  N15      1.0000 0.20900  0.96700  0.17920  Biso   1.000  N
  N16      1.0000 0.04460  0.28660  0.31670  Biso   1.000  N
  N17      1.0000 0.99820  0.28730  0.32510  Biso   1.000  N
  N18      1.0000 0.98610  0.66190  0.00020  Biso   1.000  N
  N19      1.0000 0.94630  0.64680  0.99810  Biso   1.000  N
  N20      1.0000 0.29270  0.51760  0.16770  Biso   1.000  N
  N21      1.0000 0.28300  0.47780  0.17800  Biso   1.000  N
  N22      1.0000 0.97290  0.28580  0.67940  Biso   1.000  N
  C1       1.0000 0.88670  0.02810  0.45460  Biso   1.000  C
  C2       1.0000 0.15780  0.98180  0.22580  Biso   1.000  C
  C3       1.0000 0.01230  0.20720  0.31790  Biso   1.000  C
  C4       1.0000 0.01180  0.34270  0.27910  Biso   1.000  C
  C5       1.0000 0.97740  0.61670  0.05150  Biso   1.000  C
  C6       1.0000 0.20830  0.50900  0.18020  Biso   1.000  C
  C7       1.0000 0.34320  0.50770  0.21500  Biso   1.000  C
  C8       1.0000 0.88330  0.01990  0.55810  Biso   1.000  C
  C9       1.0000 0.97950  0.20700  0.68780  Biso   1.000  C
  C10      1.0000 0.97940  0.34170  0.72260  Biso   1.000  C
  C11      1.0000 0.28990  0.97780  0.18590  Biso   1.000  C
  C12      1.0000 0.98210  0.61690  0.94591  Biso   1.000  C
  N23      1.0000 0.09210  0.98480  0.40500  Biso   1.000  N
  N24      1.0000 0.89610  0.01300  0.25982  Biso   1.000  N
  N25      1.0000 0.98790  0.86080  0.32150  Biso   1.000  N
  N26      1.0000 0.99510  0.60460  0.24736  Biso   1.000  N
  N27      1.0000 0.01230  0.40890  0.09950  Biso   1.000  N
  N28      1.0000 0.86300  0.49010  0.17990  Biso   1.000  N
  N29      1.0000 0.60250  0.48740  0.24904  Biso   1.000  N
  N30      1.0000 0.09500  0.00100  0.60671  Biso   1.000  N
  N31      1.0000 0.01290  0.86200  0.68680  Biso   1.000  N
  N32      1.0000 0.01030  0.60290  0.75440  Biso   1.000  N
  N33      1.0000 0.63870  0.01360  0.18309  Biso   1.000  N
  N34      1.0000 0.99990  0.40770  0.89893  Biso   1.000  N
  N35      1.0000 0.13700  0.93430  0.50630  Biso   1.000  N
  N36      1.0000 0.15780  0.96730  0.50730  Biso   1.000  N
  N37      1.0000 0.79100  0.03300  0.17920  Biso   1.000  N
  N38      1.0000 0.95540  0.71340  0.31670  Biso   1.000  N
  N39      1.0000 0.00180  0.71270  0.32510  Biso   1.000  N
  N40      1.0000 0.01390  0.33810  0.00020  Biso   1.000  N
  N41      1.0000 0.05370  0.35320  0.99810  Biso   1.000  N
  N42      1.0000 0.70730  0.48240  0.16770  Biso   1.000  N
  N43      1.0000 0.71700  0.52220  0.17800  Biso   1.000  N
  N44      1.0000 0.02710  0.71420  0.67940  Biso   1.000  N
  C13      1.0000 0.11330  0.97190  0.45460  Biso   1.000  C
  C14      1.0000 0.84220  0.01820  0.22580  Biso   1.000  C
  C15      1.0000 0.98770  0.79280  0.31790  Biso   1.000  C
  C16      1.0000 0.98820  0.65730  0.27910  Biso   1.000  C
  C17      1.0000 0.02260  0.38330  0.05150  Biso   1.000  C
  C18      1.0000 0.79170  0.49100  0.18020  Biso   1.000  C
  C19      1.0000 0.65680  0.49230  0.21500  Biso   1.000  C
  C20      1.0000 0.11670  0.98010  0.55810  Biso   1.000  C
  C21      1.0000 0.02050  0.79300  0.68780  Biso   1.000  C
  C22      1.0000 0.02060  0.65830  0.72260  Biso   1.000  C
  C23      1.0000 0.71010  0.02220  0.18590  Biso   1.000  C
  C24      1.0000 0.01790  0.38310  0.94591  Biso   1.000  C
  N45      1.0000 0.59210  0.51520  0.59500  Biso   1.000  N
  N46      1.0000 0.39610  0.48700  0.74018  Biso   1.000  N
  N47      1.0000 0.48790  0.63920  0.67850  Biso   1.000  N
  N48      1.0000 0.49510  0.89540  0.75264  Biso   1.000  N
  N49      1.0000 0.51230  0.09110  0.90050  Biso   1.000  N
  N50      1.0000 0.36300  0.00990  0.82010  Biso   1.000  N
  N51      1.0000 0.10250  0.01260  0.75096  Biso   1.000  N
  N52      1.0000 0.59500  0.49900  0.39329  Biso   1.000  N
  N53      1.0000 0.51290  0.63800  0.31320  Biso   1.000  N
  N54      1.0000 0.51030  0.89710  0.24560  Biso   1.000  N
  N55      1.0000 0.13870  0.48640  0.81691  Biso   1.000  N
  N56      1.0000 0.49990  0.09230  0.10107  Biso   1.000  N
  N57      1.0000 0.63700  0.56570  0.49370  Biso   1.000  N
  N58      1.0000 0.65780  0.53270  0.49270  Biso   1.000  N
  N59      1.0000 0.29100  0.46700  0.82080  Biso   1.000  N
  N60      1.0000 0.45540  0.78660  0.68330  Biso   1.000  N
  N61      1.0000 0.50180  0.78730  0.67490  Biso   1.000  N
  N62      1.0000 0.51390  0.16190  0.99980  Biso   1.000  N
  N63      1.0000 0.55370  0.14680  0.00190  Biso   1.000  N
  N64      1.0000 0.20730  0.01760  0.83230  Biso   1.000  N
  N65      1.0000 0.21700  0.97780  0.82200  Biso   1.000  N
  N66      1.0000 0.52710  0.78580  0.32060  Biso   1.000  N
  C25      1.0000 0.61330  0.52810  0.54540  Biso   1.000  C
  C26      1.0000 0.34220  0.48180  0.77420  Biso   1.000  C
  C27      1.0000 0.48770  0.70720  0.68210  Biso   1.000  C
  C28      1.0000 0.48820  0.84270  0.72090  Biso   1.000  C
  C29      1.0000 0.52260  0.11670  0.94850  Biso   1.000  C
  C30      1.0000 0.29170  0.00900  0.81980  Biso   1.000  C
  C31      1.0000 0.15680  0.00770  0.78500  Biso   1.000  C
  C32      1.0000 0.61670  0.51990  0.44190  Biso   1.000  C
  C33      1.0000 0.52050  0.70700  0.31220  Biso   1.000  C
  C34      1.0000 0.52060  0.84170  0.27740  Biso   1.000  C
  C35      1.0000 0.21010  0.47780  0.81410  Biso   1.000  C
  C36      1.0000 0.51790  0.11690  0.05409  Biso   1.000  C
  N67      1.0000 0.40790  0.48480  0.59500  Biso   1.000  N
  N68      1.0000 0.60390  0.51300  0.74018  Biso   1.000  N
  N69      1.0000 0.51210  0.36080  0.67850  Biso   1.000  N
  N70      1.0000 0.50490  0.10460  0.75264  Biso   1.000  N
  N71      1.0000 0.48770  0.90890  0.90050  Biso   1.000  N
  N72      1.0000 0.63700  0.99010  0.82010  Biso   1.000  N
  N73      1.0000 0.89750  0.98740  0.75096  Biso   1.000  N
  N74      1.0000 0.40500  0.50100  0.39329  Biso   1.000  N
  N75      1.0000 0.48710  0.36200  0.31320  Biso   1.000  N
  N76      1.0000 0.48970  0.10290  0.24560  Biso   1.000  N
  N77      1.0000 0.86130  0.51360  0.81691  Biso   1.000  N
  N78      1.0000 0.50010  0.90770  0.10107  Biso   1.000  N
  N79      1.0000 0.36300  0.43430  0.49370  Biso   1.000  N
  N80      1.0000 0.34220  0.46730  0.49270  Biso   1.000  N
  N81      1.0000 0.70900  0.53300  0.82080  Biso   1.000  N
  N82      1.0000 0.54460  0.21340  0.68330  Biso   1.000  N
  N83      1.0000 0.49820  0.21270  0.67490  Biso   1.000  N
  N84      1.0000 0.48610  0.83810  0.99980  Biso   1.000  N
  N85      1.0000 0.44630  0.85320  0.00190  Biso   1.000  N
  N86      1.0000 0.79270  0.98240  0.83230  Biso   1.000  N
  N87      1.0000 0.78300  0.02220  0.82200  Biso   1.000  N
  N88      1.0000 0.47290  0.21420  0.32060  Biso   1.000  N
  C37      1.0000 0.38670  0.47190  0.54540  Biso   1.000  C
  C38      1.0000 0.65780  0.51820  0.77420  Biso   1.000  C
  C39      1.0000 0.51230  0.29280  0.68210  Biso   1.000  C
  C40      1.0000 0.51180  0.15730  0.72090  Biso   1.000  C
  C41      1.0000 0.47740  0.88330  0.94850  Biso   1.000  C
  C42      1.0000 0.70830  0.99100  0.81980  Biso   1.000  C
  C43      1.0000 0.84320  0.99230  0.78500  Biso   1.000  C
  C44      1.0000 0.38330  0.48010  0.44190  Biso   1.000  C
  C45      1.0000 0.47950  0.29300  0.31220  Biso   1.000  C
  C46      1.0000 0.47940  0.15830  0.27740  Biso   1.000  C
  C47      1.0000 0.78990  0.52220  0.81410  Biso   1.000  C
  C48      1.0000 0.48210  0.88310  0.05409  Biso   1.000  C
  Mn1      1.0000 0.00000  0.00000  0.32744  Biso   1.000  Mn
  Mn2      1.0000 0.00000  0.00000  0.68315  Biso   1.000  Mn
  Mn3      1.0000 0.50000  0.50000  0.67256  Biso   1.000  Mn
  Mn4      1.0000 0.50000  0.50000  0.31685  Biso   1.000  Mn
  Mn5      1.0000 0.00000  0.50000  0.17792  Biso   1.000  Mn
  Mn6      1.0000 0.50000  0.00000  0.82208  Biso   1.000  Mn
  Mn7      1.0000 0.50000  0.00000  0.17806  Biso   1.000  Mn
  Mn8      1.0000 0.00000  0.50000  0.82194  Biso   1.000  Mn
  N89      1.0000 0.24540  0.22310  0.12917  Biso   1.000  N
  C49      1.0000 0.26230  0.20250  0.19530  Biso   1.000  C
  H1       1.0000 0.32060  0.18710  0.19890  Biso   1.000  H
  H2       1.0000 0.22950  0.15360  0.20600  Biso   1.000  H
  C50      1.0000 0.24400  0.27070  0.24420  Biso   1.000  C
  H3       1.0000 0.28240  0.31700  0.23840  Biso   1.000  H
  H4       1.0000 0.18770  0.29160  0.23850  Biso   1.000  H
  C51      1.0000 0.25270  0.23830  0.30570  Biso   1.000  C
  H5       1.0000 0.30540  0.20910  0.31040  Biso   1.000  H
  H6       1.0000 0.20750  0.20020  0.31540  Biso   1.000  H
  C52      1.0000 0.24930  0.32140  0.35090  Biso   1.000  C
  H7       1.0000 0.25490  0.30440  0.39340  Biso   1.000  H
  H8       1.0000 0.19690  0.34950  0.34540  Biso   1.000  H
  H9       1.0000 0.29420  0.35850  0.34030  Biso   1.000  H
  H10      1.0000 0.30520  0.20810  0.30340  Biso   1.000  H
  H11      1.0000 0.21010  0.19530  0.30700  Biso   1.000  H
  C53      1.0000 0.25300  0.26950  0.36960  Biso   1.000  C
  H12      1.0000 0.25960  0.22350  0.39770  Biso   1.000  H
  H13      1.0000 0.20110  0.29740  0.37800  Biso   1.000  H
  H14      1.0000 0.29840  0.30800  0.37490  Biso   1.000  H
  C54      1.0000 0.27330  0.14580  0.09240  Biso   1.000  C
  H15      1.0000 0.33110  0.13420  0.10280  Biso   1.000  H
  H16      1.0000 0.24030  0.09850  0.10620  Biso   1.000  H
  C55      1.0000 0.26610  0.15150  0.02230  Biso   1.000  C
  H17      1.0000 0.29550  0.20070  0.00760  Biso   1.000  H
  H18      1.0000 0.20780  0.15660  0.01050  Biso   1.000  H
  C56      1.0000 0.30520  0.07010  0.99160  Biso   1.000  C
  H19      1.0000 0.31400  0.07880  0.94760  Biso   1.000  H
  H20      1.0000 0.35850  0.05700  0.01070  Biso   1.000  H
  C57      1.0000 0.24310  0.99870  0.00220  Biso   1.000  C
  H21      1.0000 0.26440  0.94850  0.98380  Biso   1.000  H
  H22      1.0000 0.19050  0.01270  0.98350  Biso   1.000  H
  H23      1.0000 0.23550  0.99040  0.04590  Biso   1.000  H
  H24      1.0000 0.32040  0.16590  0.00540  Biso   1.000  H
  H25      1.0000 0.22780  0.19640  0.01190  Biso   1.000  H
  C58      1.0000 0.23540  0.07040  0.99120  Biso   1.000  C
  H26      1.0000 0.18570  0.04920  0.01160  Biso   1.000  H
  H27      1.0000 0.22300  0.07960  0.94760  Biso   1.000  H
  C59      1.0000 0.30940  0.00980  0.99910  Biso   1.000  C
  H28      1.0000 0.29840  0.95940  0.97640  Biso   1.000  H
  H29      1.0000 0.31630  0.99680  0.04230  Biso   1.000  H
  H30      1.0000 0.35940  0.03540  0.98360  Biso   1.000  H
  C60      1.0000 0.15200  0.24010  0.12040  Biso   1.000  C
  H31      1.0000 0.13800  0.29110  0.14240  Biso   1.000  H
  H32      1.0000 0.14160  0.24970  0.07670  Biso   1.000  H
  C61      1.0000 0.09470  0.17190  0.14240  Biso   1.000  C
  H33      1.0000 0.10720  0.16190  0.18580  Biso   1.000  H
  H34      1.0000 0.10960  0.12150  0.12000  Biso   1.000  H
  C62      1.0000 0.00110  0.18240  0.13690  Biso   1.000  C
  H35      1.0000 0.98740  0.23380  0.11530  Biso   1.000  H
  H36      1.0000 0.97510  0.18320  0.17750  Biso   1.000  H
  C63      1.0000 0.97110  0.10240  0.09780  Biso   1.000  C
  H37      1.0000 0.91160  0.10460  0.09220  Biso   1.000  H
  H38      1.0000 0.98570  0.05240  0.11980  Biso   1.000  H
  H39      1.0000 0.99800  0.10260  0.05800  Biso   1.000  H
  H40      1.0000 0.06140  0.19010  0.17740  Biso   1.000  H
  H41      1.0000 0.12570  0.12220  0.15380  Biso   1.000  H
  C64      1.0000 0.03960  0.15630  0.08440  Biso   1.000  C
  H42      1.0000 0.06980  0.18080  0.04990  Biso   1.000  H
  H43      1.0000 0.04070  0.09640  0.07770  Biso   1.000  H
  C65      1.0000 0.96020  0.17900  0.07700  Biso   1.000  C
  H44      1.0000 0.94100  0.16160  0.03690  Biso   1.000  H
  H45      1.0000 0.95590  0.23880  0.08020  Biso   1.000  H
  H46      1.0000 0.92650  0.15360  0.10850  Biso   1.000  H
  C66      1.0000 0.29290  0.29830  0.10920  Biso   1.000  C
  H47      1.0000 0.27040  0.34620  0.13120  Biso   1.000  H
  H48      1.0000 0.28220  0.30710  0.06540  Biso   1.000  H
  C67      1.0000 0.38710  0.29750  0.11880  Biso   1.000  C
  H49      1.0000 0.39890  0.29970  0.16290  Biso   1.000  H
  H50      1.0000 0.40940  0.24540  0.10290  Biso   1.000  H
  C68      1.0000 0.43050  0.36890  0.08730  Biso   1.000  C
  H51      1.0000 0.42140  0.36480  0.04290  Biso   1.000  H
  H52      1.0000 0.40570  0.42090  0.10130  Biso   1.000  H
  C69      1.0000 0.52220  0.37130  0.09960  Biso   1.000  C
  H53      1.0000 0.54600  0.41990  0.08040  Biso   1.000  H
  H54      1.0000 0.54790  0.32210  0.08290  Biso   1.000  H
  H55      1.0000 0.53180  0.37360  0.14360  Biso   1.000  H
  N90      1.0000 0.75460  0.77690  0.12917  Biso   1.000  N
  C70      1.0000 0.73770  0.79750  0.19530  Biso   1.000  C
  H56      1.0000 0.67940  0.81290  0.19890  Biso   1.000  H
  H57      1.0000 0.77050  0.84640  0.20600  Biso   1.000  H
  C71      1.0000 0.75600  0.72930  0.24420  Biso   1.000  C
  H58      1.0000 0.71760  0.68300  0.23840  Biso   1.000  H
  H59      1.0000 0.81230  0.70840  0.23850  Biso   1.000  H
  C72      1.0000 0.74730  0.76170  0.30570  Biso   1.000  C
  H60      1.0000 0.69460  0.79090  0.31040  Biso   1.000  H
  H61      1.0000 0.79250  0.79980  0.31540  Biso   1.000  H
  C73      1.0000 0.75070  0.67860  0.35090  Biso   1.000  C
  H62      1.0000 0.74510  0.69560  0.39340  Biso   1.000  H
  H63      1.0000 0.80310  0.65050  0.34540  Biso   1.000  H
  H64      1.0000 0.70580  0.64150  0.34030  Biso   1.000  H
  H65      1.0000 0.69480  0.79190  0.30340  Biso   1.000  H
  H66      1.0000 0.78990  0.80470  0.30700  Biso   1.000  H
  C74      1.0000 0.74700  0.73050  0.36960  Biso   1.000  C
  H67      1.0000 0.74040  0.77650  0.39770  Biso   1.000  H
  H68      1.0000 0.79890  0.70260  0.37800  Biso   1.000  H
  H69      1.0000 0.70160  0.69200  0.37490  Biso   1.000  H
  C75      1.0000 0.72670  0.85420  0.09240  Biso   1.000  C
  H70      1.0000 0.66890  0.86580  0.10280  Biso   1.000  H
  H71      1.0000 0.75970  0.90150  0.10620  Biso   1.000  H
  C76      1.0000 0.73390  0.84850  0.02230  Biso   1.000  C
  H72      1.0000 0.70450  0.79930  0.00760  Biso   1.000  H
  H73      1.0000 0.79220  0.84340  0.01050  Biso   1.000  H
  C77      1.0000 0.69480  0.92990  0.99160  Biso   1.000  C
  H74      1.0000 0.68600  0.92120  0.94760  Biso   1.000  H
  H75      1.0000 0.64150  0.94300  0.01070  Biso   1.000  H
  C78      1.0000 0.75690  0.00130  0.00220  Biso   1.000  C
  H76      1.0000 0.73560  0.05150  0.98380  Biso   1.000  H
  H77      1.0000 0.80950  0.98730  0.98350  Biso   1.000  H
  H78      1.0000 0.76450  0.00960  0.04590  Biso   1.000  H
  H79      1.0000 0.67960  0.83410  0.00540  Biso   1.000  H
  H80      1.0000 0.77220  0.80360  0.01190  Biso   1.000  H
  C79      1.0000 0.76460  0.92960  0.99120  Biso   1.000  C
  H81      1.0000 0.81430  0.95080  0.01160  Biso   1.000  H
  H82      1.0000 0.77700  0.92040  0.94760  Biso   1.000  H
  C80      1.0000 0.69060  0.99020  0.99910  Biso   1.000  C
  H83      1.0000 0.70160  0.04060  0.97640  Biso   1.000  H
  H84      1.0000 0.68370  0.00320  0.04230  Biso   1.000  H
  H85      1.0000 0.64060  0.96460  0.98360  Biso   1.000  H
  C81      1.0000 0.84800  0.75990  0.12040  Biso   1.000  C
  H86      1.0000 0.86200  0.70890  0.14240  Biso   1.000  H
  H87      1.0000 0.85840  0.75030  0.07670  Biso   1.000  H
  C82      1.0000 0.90530  0.82810  0.14240  Biso   1.000  C
  H88      1.0000 0.89280  0.83810  0.18580  Biso   1.000  H
  H89      1.0000 0.89040  0.87850  0.12000  Biso   1.000  H
  C83      1.0000 0.99890  0.81760  0.13690  Biso   1.000  C
  H90      1.0000 0.01260  0.76620  0.11530  Biso   1.000  H
  H91      1.0000 0.02490  0.81680  0.17750  Biso   1.000  H
  C84      1.0000 0.02890  0.89760  0.09780  Biso   1.000  C
  H92      1.0000 0.08840  0.89540  0.09220  Biso   1.000  H
  H93      1.0000 0.01430  0.94760  0.11980  Biso   1.000  H
  H94      1.0000 0.00200  0.89740  0.05800  Biso   1.000  H
  H95      1.0000 0.93860  0.80990  0.17740  Biso   1.000  H
  H96      1.0000 0.87430  0.87780  0.15380  Biso   1.000  H
  C85      1.0000 0.96040  0.84370  0.08440  Biso   1.000  C
  H97      1.0000 0.93020  0.81920  0.04990  Biso   1.000  H
  H98      1.0000 0.95930  0.90360  0.07770  Biso   1.000  H
  C86      1.0000 0.03980  0.82100  0.07700  Biso   1.000  C
  H99      1.0000 0.05900  0.83840  0.03690  Biso   1.000  H
  H100     1.0000 0.04410  0.76120  0.08020  Biso   1.000  H
  H101     1.0000 0.07350  0.84640  0.10850  Biso   1.000  H
  C87      1.0000 0.70710  0.70170  0.10920  Biso   1.000  C
  H102     1.0000 0.72960  0.65380  0.13120  Biso   1.000  H
  H103     1.0000 0.71780  0.69290  0.06540  Biso   1.000  H
  C88      1.0000 0.61290  0.70250  0.11880  Biso   1.000  C
  H104     1.0000 0.60110  0.70030  0.16290  Biso   1.000  H
  H105     1.0000 0.59060  0.75460  0.10290  Biso   1.000  H
  C89      1.0000 0.56950  0.63110  0.08730  Biso   1.000  C
  H106     1.0000 0.57860  0.63520  0.04290  Biso   1.000  H
  H107     1.0000 0.59430  0.57910  0.10130  Biso   1.000  H
  C90      1.0000 0.47780  0.62870  0.09960  Biso   1.000  C
  H108     1.0000 0.45400  0.58010  0.08040  Biso   1.000  H
  H109     1.0000 0.45210  0.67790  0.08290  Biso   1.000  H
  H110     1.0000 0.46820  0.62640  0.14360  Biso   1.000  H
  N91      1.0000 0.25460  0.72310  0.87083  Biso   1.000  N
  C91      1.0000 0.23770  0.70250  0.80470  Biso   1.000  C
  H111     1.0000 0.17940  0.68710  0.80110  Biso   1.000  H
  H112     1.0000 0.27050  0.65360  0.79400  Biso   1.000  H
  C92      1.0000 0.25600  0.77070  0.75580  Biso   1.000  C
  H113     1.0000 0.21760  0.81700  0.76160  Biso   1.000  H
  H114     1.0000 0.31230  0.79160  0.76150  Biso   1.000  H
  C93      1.0000 0.24730  0.73830  0.69430  Biso   1.000  C
  H115     1.0000 0.19460  0.70910  0.68960  Biso   1.000  H
  H116     1.0000 0.29250  0.70020  0.68460  Biso   1.000  H
  C94      1.0000 0.25070  0.82140  0.64910  Biso   1.000  C
  H117     1.0000 0.24510  0.80440  0.60660  Biso   1.000  H
  H118     1.0000 0.30310  0.84950  0.65460  Biso   1.000  H
  H119     1.0000 0.20580  0.85850  0.65970  Biso   1.000  H
  H120     1.0000 0.19480  0.70810  0.69660  Biso   1.000  H
  H121     1.0000 0.28990  0.69530  0.69300  Biso   1.000  H
  C95      1.0000 0.24700  0.76950  0.63040  Biso   1.000  C
  H122     1.0000 0.24040  0.72350  0.60230  Biso   1.000  H
  H123     1.0000 0.29890  0.79740  0.62200  Biso   1.000  H
  H124     1.0000 0.20160  0.80800  0.62510  Biso   1.000  H
  C96      1.0000 0.22670  0.64580  0.90760  Biso   1.000  C
  H125     1.0000 0.16890  0.63420  0.89720  Biso   1.000  H
  H126     1.0000 0.25970  0.59850  0.89380  Biso   1.000  H
  C97      1.0000 0.23390  0.65150  0.97770  Biso   1.000  C
  H127     1.0000 0.20450  0.70070  0.99240  Biso   1.000  H
  H128     1.0000 0.29220  0.65660  0.98950  Biso   1.000  H
  C98      1.0000 0.19480  0.57010  0.00840  Biso   1.000  C
  H129     1.0000 0.18600  0.57880  0.05240  Biso   1.000  H
  H130     1.0000 0.14150  0.55700  0.98930  Biso   1.000  H
  C99      1.0000 0.25690  0.49870  0.99780  Biso   1.000  C
  H131     1.0000 0.23560  0.44850  0.01620  Biso   1.000  H
  H132     1.0000 0.30950  0.51270  0.01650  Biso   1.000  H
  H133     1.0000 0.26450  0.49040  0.95410  Biso   1.000  H
  H134     1.0000 0.17960  0.66590  0.99460  Biso   1.000  H
  H135     1.0000 0.27220  0.69640  0.98810  Biso   1.000  H
  C100     1.0000 0.26460  0.57040  0.00880  Biso   1.000  C
  H136     1.0000 0.31430  0.54920  0.98840  Biso   1.000  H
  H137     1.0000 0.27700  0.57960  0.05240  Biso   1.000  H
  C101     1.0000 0.19060  0.50980  0.00090  Biso   1.000  C
  H138     1.0000 0.20160  0.45940  0.02360  Biso   1.000  H
  H139     1.0000 0.18370  0.49680  0.95770  Biso   1.000  H
  H140     1.0000 0.14060  0.53540  0.01640  Biso   1.000  H
  C102     1.0000 0.34800  0.74010  0.87960  Biso   1.000  C
  H141     1.0000 0.36200  0.79110  0.85760  Biso   1.000  H
  H142     1.0000 0.35840  0.74970  0.92330  Biso   1.000  H
  C103     1.0000 0.40530  0.67190  0.85760  Biso   1.000  C
  H143     1.0000 0.39280  0.66190  0.81420  Biso   1.000  H
  H144     1.0000 0.39040  0.62150  0.88000  Biso   1.000  H
  C104     1.0000 0.49890  0.68240  0.86310  Biso   1.000  C
  H145     1.0000 0.51260  0.73380  0.88470  Biso   1.000  H
  H146     1.0000 0.52490  0.68320  0.82250  Biso   1.000  H
  C105     1.0000 0.52890  0.60240  0.90220  Biso   1.000  C
  H147     1.0000 0.58840  0.60460  0.90780  Biso   1.000  H
  H148     1.0000 0.51430  0.55240  0.88020  Biso   1.000  H
  H149     1.0000 0.50200  0.60260  0.94200  Biso   1.000  H
  H150     1.0000 0.43860  0.69010  0.82260  Biso   1.000  H
  H151     1.0000 0.37430  0.62220  0.84620  Biso   1.000  H
  C106     1.0000 0.46040  0.65630  0.91560  Biso   1.000  C
  H152     1.0000 0.43020  0.68080  0.95010  Biso   1.000  H
  H153     1.0000 0.45930  0.59640  0.92230  Biso   1.000  H
  C107     1.0000 0.53980  0.67900  0.92300  Biso   1.000  C
  H154     1.0000 0.55900  0.66160  0.96310  Biso   1.000  H
  H155     1.0000 0.54410  0.73880  0.91980  Biso   1.000  H
  H156     1.0000 0.57350  0.65360  0.89150  Biso   1.000  H
  C108     1.0000 0.20710  0.79830  0.89080  Biso   1.000  C
  H157     1.0000 0.22960  0.84620  0.86880  Biso   1.000  H
  H158     1.0000 0.21780  0.80710  0.93460  Biso   1.000  H
  C109     1.0000 0.11290  0.79750  0.88120  Biso   1.000  C
  H159     1.0000 0.10110  0.79970  0.83710  Biso   1.000  H
  H160     1.0000 0.09060  0.74540  0.89710  Biso   1.000  H
  C110     1.0000 0.06950  0.86890  0.91270  Biso   1.000  C
  H161     1.0000 0.07860  0.86480  0.95710  Biso   1.000  H
  H162     1.0000 0.09430  0.92090  0.89870  Biso   1.000  H
  C111     1.0000 0.97780  0.87130  0.90040  Biso   1.000  C
  H163     1.0000 0.95400  0.91990  0.91960  Biso   1.000  H
  H164     1.0000 0.95210  0.82210  0.91710  Biso   1.000  H
  H165     1.0000 0.96820  0.87360  0.85640  Biso   1.000  H
  N92      1.0000 0.74540  0.27690  0.87083  Biso   1.000  N
  C112     1.0000 0.76230  0.29750  0.80470  Biso   1.000  C
  H166     1.0000 0.82060  0.31290  0.80110  Biso   1.000  H
  H167     1.0000 0.72950  0.34640  0.79400  Biso   1.000  H
  C113     1.0000 0.74400  0.22930  0.75580  Biso   1.000  C
  H168     1.0000 0.78240  0.18300  0.76160  Biso   1.000  H
  H169     1.0000 0.68770  0.20840  0.76150  Biso   1.000  H
  C114     1.0000 0.75270  0.26170  0.69430  Biso   1.000  C
  H170     1.0000 0.80540  0.29090  0.68960  Biso   1.000  H
  H171     1.0000 0.70750  0.29980  0.68460  Biso   1.000  H
  C115     1.0000 0.74930  0.17860  0.64910  Biso   1.000  C
  H172     1.0000 0.75490  0.19560  0.60660  Biso   1.000  H
  H173     1.0000 0.69690  0.15050  0.65460  Biso   1.000  H
  H174     1.0000 0.79420  0.14150  0.65970  Biso   1.000  H
  H175     1.0000 0.80520  0.29190  0.69660  Biso   1.000  H
  H176     1.0000 0.71010  0.30470  0.69300  Biso   1.000  H
  C116     1.0000 0.75300  0.23050  0.63040  Biso   1.000  C
  H177     1.0000 0.75960  0.27650  0.60230  Biso   1.000  H
  H178     1.0000 0.70110  0.20260  0.62200  Biso   1.000  H
  H179     1.0000 0.79840  0.19200  0.62510  Biso   1.000  H
  C117     1.0000 0.77330  0.35420  0.90760  Biso   1.000  C
  H180     1.0000 0.83110  0.36580  0.89720  Biso   1.000  H
  H181     1.0000 0.74030  0.40150  0.89380  Biso   1.000  H
  C118     1.0000 0.76610  0.34850  0.97770  Biso   1.000  C
  H182     1.0000 0.79550  0.29930  0.99240  Biso   1.000  H
  H183     1.0000 0.70780  0.34340  0.98950  Biso   1.000  H
  C119     1.0000 0.80520  0.42990  0.00840  Biso   1.000  C
  H184     1.0000 0.81400  0.42120  0.05240  Biso   1.000  H
  H185     1.0000 0.85850  0.44300  0.98930  Biso   1.000  H
  C120     1.0000 0.74310  0.50130  0.99780  Biso   1.000  C
  H186     1.0000 0.76440  0.55150  0.01620  Biso   1.000  H
  H187     1.0000 0.69050  0.48730  0.01650  Biso   1.000  H
  H188     1.0000 0.73550  0.50960  0.95410  Biso   1.000  H
  H189     1.0000 0.82040  0.33410  0.99460  Biso   1.000  H
  H190     1.0000 0.72780  0.30360  0.98810  Biso   1.000  H
  C121     1.0000 0.73540  0.42960  0.00880  Biso   1.000  C
  H191     1.0000 0.68570  0.45080  0.98840  Biso   1.000  H
  H192     1.0000 0.72300  0.42040  0.05240  Biso   1.000  H
  C122     1.0000 0.80940  0.49020  0.00090  Biso   1.000  C
  H193     1.0000 0.79840  0.54060  0.02360  Biso   1.000  H
  H194     1.0000 0.81630  0.50320  0.95770  Biso   1.000  H
  H195     1.0000 0.85940  0.46460  0.01640  Biso   1.000  H
  C123     1.0000 0.65200  0.25990  0.87960  Biso   1.000  C
  H196     1.0000 0.63800  0.20890  0.85760  Biso   1.000  H
  H197     1.0000 0.64160  0.25030  0.92330  Biso   1.000  H
  C124     1.0000 0.59470  0.32810  0.85760  Biso   1.000  C
  H198     1.0000 0.60720  0.33810  0.81420  Biso   1.000  H
  H199     1.0000 0.60960  0.37850  0.88000  Biso   1.000  H
  C125     1.0000 0.50110  0.31760  0.86310  Biso   1.000  C
  H200     1.0000 0.48740  0.26620  0.88470  Biso   1.000  H
  H201     1.0000 0.47510  0.31680  0.82250  Biso   1.000  H
  C126     1.0000 0.47110  0.39760  0.90220  Biso   1.000  C
  H202     1.0000 0.41160  0.39540  0.90780  Biso   1.000  H
  H203     1.0000 0.48570  0.44760  0.88020  Biso   1.000  H
  H204     1.0000 0.49800  0.39740  0.94200  Biso   1.000  H
  H205     1.0000 0.56140  0.30990  0.82260  Biso   1.000  H
  H206     1.0000 0.62570  0.37780  0.84620  Biso   1.000  H
  C127     1.0000 0.53960  0.34370  0.91560  Biso   1.000  C
  H207     1.0000 0.56980  0.31920  0.95010  Biso   1.000  H
  H208     1.0000 0.54070  0.40360  0.92230  Biso   1.000  H
  C128     1.0000 0.46020  0.32100  0.92300  Biso   1.000  C
  H209     1.0000 0.44100  0.33840  0.96310  Biso   1.000  H
  H210     1.0000 0.45590  0.26120  0.91980  Biso   1.000  H
  H211     1.0000 0.42650  0.34640  0.89150  Biso   1.000  H
  C129     1.0000 0.79290  0.20170  0.89080  Biso   1.000  C
  H212     1.0000 0.77040  0.15380  0.86880  Biso   1.000  H
  H213     1.0000 0.78220  0.19290  0.93460  Biso   1.000  H
  C130     1.0000 0.88710  0.20250  0.88120  Biso   1.000  C
  H214     1.0000 0.89890  0.20030  0.83710  Biso   1.000  H
  H215     1.0000 0.90940  0.25460  0.89710  Biso   1.000  H
  C131     1.0000 0.93050  0.13110  0.91270  Biso   1.000  C
  H216     1.0000 0.92140  0.13520  0.95710  Biso   1.000  H
  H217     1.0000 0.90570  0.07910  0.89870  Biso   1.000  H
  C132     1.0000 0.02220  0.12870  0.90040  Biso   1.000  C
  H218     1.0000 0.04600  0.08010  0.91960  Biso   1.000  H
  H219     1.0000 0.04790  0.17790  0.91710  Biso   1.000  H
  H220     1.0000 0.03180  0.12640  0.85640  Biso   1.000  H
