data_image0
_cell_length_a       16.2945
_cell_length_b       16.2945
_cell_length_c       17.4321
_cell_angle_alpha    90
_cell_angle_beta     90
_cell_angle_gamma    90

_symmetry_space_group_name_H-M    "P 1"
_symmetry_int_tables_number       1

loop_
  _symmetry_equiv_pos_as_xyz
  'x, y, z'

loop_
  _atom_site_label
  _atom_site_occupancy
  _atom_site_fract_x
  _atom_site_fract_y
  _atom_site_fract_z
  _atom_site_thermal_displace_type
  _atom_site_B_iso_or_equiv
  _atom_site_type_symbol
  Mn1      1.0000 0.23920  0.77370  0.21873  Biso   1.000  Mn
  N1       1.0000 0.22510  0.78080  0.34515  Biso   1.000  N
  N2       1.0000 0.12006  0.70549  0.21184  Biso   1.000  N
  N3       1.0000 0.17497  0.89328  0.20958  Biso   1.000  N
  N4       1.0000 0.86072  0.66258  0.27065  Biso   1.000  N
  N5       1.0000 0.19433  0.15468  0.26681  Biso   1.000  N
  N6       1.0000 0.26210  0.75430  0.59381  Biso   1.000  N
  C1       1.0000 0.15368  0.95822  0.22246  Biso   1.000  C
  C2       1.0000 0.16362  0.09362  0.25158  Biso   1.000  C
  N7       1.0000 0.17610  0.77550  0.47880  Biso   1.000  N
  C3       1.0000 0.20370  0.77520  0.40900  Biso   1.000  C
  C4       1.0000 0.22250  0.76160  0.53750  Biso   1.000  C
  N8       1.0000 0.99480  0.62210  0.22180  Biso   1.000  N
  C5       1.0000 0.05910  0.66920  0.21970  Biso   1.000  C
  C6       1.0000 0.92520  0.64790  0.24850  Biso   1.000  C
  N9       1.0000 0.12090  0.02915  0.23470  Biso   1.000  N
  N10      1.0000 0.19620  0.81160  0.47970  Biso   1.000  N
  C7       1.0000 0.21530  0.79480  0.40920  Biso   1.000  C
  C8       1.0000 0.28110  0.73340  0.03820  Biso   1.000  C
  N11      1.0000 0.18600  0.73340  0.47550  Biso   1.000  N
  C9       1.0000 0.21190  0.75120  0.40660  Biso   1.000  C
  C10      1.0000 0.24060  0.73660  0.03290  Biso   1.000  C
  N12      1.0000 0.23460  0.83270  0.47800  Biso   1.000  N
  C11      1.0000 0.23700  0.80300  0.40860  Biso   1.000  C
  C12      1.0000 0.28710  0.75800  0.03570  Biso   1.000  C
  N13      1.0000 0.48750  0.86080  0.30410  Biso   1.000  N
  C13      1.0000 0.05550  0.67990  0.20320  Biso   1.000  C
  C14      1.0000 0.42300  0.84630  0.26370  Biso   1.000  C
  N14      1.0000 0.50320  0.88100  0.24490  Biso   1.000  N
  C15      1.0000 0.06310  0.66740  0.23550  Biso   1.000  C
  C16      1.0000 0.42880  0.85390  0.23560  Biso   1.000  C
  Mn2      1.0000 0.76080  0.22630  0.21873  Biso   1.000  Mn
  N15      1.0000 0.77490  0.21920  0.34515  Biso   1.000  N
  N16      1.0000 0.87994  0.29451  0.21184  Biso   1.000  N
  N17      1.0000 0.82503  0.10672  0.20958  Biso   1.000  N
  N18      1.0000 0.13928  0.33742  0.27065  Biso   1.000  N
  N19      1.0000 0.80567  0.84532  0.26681  Biso   1.000  N
  N20      1.0000 0.73790  0.24570  0.59381  Biso   1.000  N
  C17      1.0000 0.84632  0.04178  0.22246  Biso   1.000  C
  C18      1.0000 0.83638  0.90638  0.25158  Biso   1.000  C
  N21      1.0000 0.82390  0.22450  0.47880  Biso   1.000  N
  C19      1.0000 0.79630  0.22480  0.40900  Biso   1.000  C
  C20      1.0000 0.77750  0.23840  0.53750  Biso   1.000  C
  N22      1.0000 0.00520  0.37790  0.22180  Biso   1.000  N
  C21      1.0000 0.94090  0.33080  0.21970  Biso   1.000  C
  C22      1.0000 0.07480  0.35210  0.24850  Biso   1.000  C
  N23      1.0000 0.87910  0.97085  0.23470  Biso   1.000  N
  N24      1.0000 0.80380  0.18840  0.47970  Biso   1.000  N
  C23      1.0000 0.78470  0.20520  0.40920  Biso   1.000  C
  C24      1.0000 0.71890  0.26660  0.03820  Biso   1.000  C
  N25      1.0000 0.81400  0.26660  0.47550  Biso   1.000  N
  C25      1.0000 0.78810  0.24880  0.40660  Biso   1.000  C
  C26      1.0000 0.75940  0.26340  0.03290  Biso   1.000  C
  N26      1.0000 0.76540  0.16730  0.47800  Biso   1.000  N
  C27      1.0000 0.76300  0.19700  0.40860  Biso   1.000  C
  C28      1.0000 0.71290  0.24200  0.03570  Biso   1.000  C
  N27      1.0000 0.51250  0.13920  0.30410  Biso   1.000  N
  C29      1.0000 0.94450  0.32010  0.20320  Biso   1.000  C
  C30      1.0000 0.57700  0.15370  0.26370  Biso   1.000  C
  N28      1.0000 0.49680  0.11900  0.24490  Biso   1.000  N
  C31      1.0000 0.93690  0.33260  0.23550  Biso   1.000  C
  C32      1.0000 0.57120  0.14610  0.23560  Biso   1.000  C
  Mn3      1.0000 0.77370  0.76080  0.78127  Biso   1.000  Mn
  N29      1.0000 0.78080  0.77490  0.65485  Biso   1.000  N
  N30      1.0000 0.70549  0.87994  0.78816  Biso   1.000  N
  N31      1.0000 0.89328  0.82503  0.79042  Biso   1.000  N
  N32      1.0000 0.66258  0.13928  0.72935  Biso   1.000  N
  N33      1.0000 0.15468  0.80567  0.73319  Biso   1.000  N
  N34      1.0000 0.75430  0.73790  0.40619  Biso   1.000  N
  C33      1.0000 0.95822  0.84632  0.77754  Biso   1.000  C
  C34      1.0000 0.09362  0.83638  0.74842  Biso   1.000  C
  N35      1.0000 0.77550  0.82390  0.52120  Biso   1.000  N
  C35      1.0000 0.77520  0.79630  0.59100  Biso   1.000  C
  C36      1.0000 0.76160  0.77750  0.46250  Biso   1.000  C
  N36      1.0000 0.62210  0.00520  0.77820  Biso   1.000  N
  C37      1.0000 0.66920  0.94090  0.78030  Biso   1.000  C
  C38      1.0000 0.64790  0.07480  0.75150  Biso   1.000  C
  N37      1.0000 0.02915  0.87910  0.76530  Biso   1.000  N
  N38      1.0000 0.81160  0.80380  0.52030  Biso   1.000  N
  C39      1.0000 0.79480  0.78470  0.59080  Biso   1.000  C
  C40      1.0000 0.73340  0.71890  0.96180  Biso   1.000  C
  N39      1.0000 0.73340  0.81400  0.52450  Biso   1.000  N
  C41      1.0000 0.75120  0.78810  0.59340  Biso   1.000  C
  C42      1.0000 0.73660  0.75940  0.96710  Biso   1.000  C
  N40      1.0000 0.83270  0.76540  0.52200  Biso   1.000  N
  C43      1.0000 0.80300  0.76300  0.59140  Biso   1.000  C
  C44      1.0000 0.75800  0.71290  0.96430  Biso   1.000  C
  N41      1.0000 0.86080  0.51250  0.69590  Biso   1.000  N
  C45      1.0000 0.67990  0.94450  0.79680  Biso   1.000  C
  C46      1.0000 0.84630  0.57700  0.73630  Biso   1.000  C
  N42      1.0000 0.88100  0.49680  0.75510  Biso   1.000  N
  C47      1.0000 0.66740  0.93690  0.76450  Biso   1.000  C
  C48      1.0000 0.85390  0.57120  0.76440  Biso   1.000  C
  Mn4      1.0000 0.22630  0.23920  0.78127  Biso   1.000  Mn
  N43      1.0000 0.21920  0.22510  0.65485  Biso   1.000  N
  N44      1.0000 0.29451  0.12006  0.78816  Biso   1.000  N
  N45      1.0000 0.10672  0.17497  0.79042  Biso   1.000  N
  N46      1.0000 0.33742  0.86072  0.72935  Biso   1.000  N
  N47      1.0000 0.84532  0.19433  0.73319  Biso   1.000  N
  N48      1.0000 0.24570  0.26210  0.40619  Biso   1.000  N
  C49      1.0000 0.04178  0.15368  0.77754  Biso   1.000  C
  C50      1.0000 0.90638  0.16362  0.74842  Biso   1.000  C
  N49      1.0000 0.22450  0.17610  0.52120  Biso   1.000  N
  C51      1.0000 0.22480  0.20370  0.59100  Biso   1.000  C
  C52      1.0000 0.23840  0.22250  0.46250  Biso   1.000  C
  N50      1.0000 0.37790  0.99480  0.77820  Biso   1.000  N
  C53      1.0000 0.33080  0.05910  0.78030  Biso   1.000  C
  C54      1.0000 0.35210  0.92520  0.75150  Biso   1.000  C
  N51      1.0000 0.97085  0.12090  0.76530  Biso   1.000  N
  N52      1.0000 0.18840  0.19620  0.52030  Biso   1.000  N
  C55      1.0000 0.20520  0.21530  0.59080  Biso   1.000  C
  C56      1.0000 0.26660  0.28110  0.96180  Biso   1.000  C
  N53      1.0000 0.26660  0.18600  0.52450  Biso   1.000  N
  C57      1.0000 0.24880  0.21190  0.59340  Biso   1.000  C
  C58      1.0000 0.26340  0.24060  0.96710  Biso   1.000  C
  N54      1.0000 0.16730  0.23460  0.52200  Biso   1.000  N
  C59      1.0000 0.19700  0.23700  0.59140  Biso   1.000  C
  C60      1.0000 0.24200  0.28710  0.96430  Biso   1.000  C
  N55      1.0000 0.13920  0.48750  0.69590  Biso   1.000  N
  C61      1.0000 0.32010  0.05550  0.79680  Biso   1.000  C
  C62      1.0000 0.15370  0.42300  0.73630  Biso   1.000  C
  N56      1.0000 0.11900  0.50320  0.75510  Biso   1.000  N
  C63      1.0000 0.33260  0.06310  0.76450  Biso   1.000  C
  C64      1.0000 0.14610  0.42880  0.76440  Biso   1.000  C
  Mn5      1.0000 0.26080  0.27370  0.28127  Biso   1.000  Mn
  N57      1.0000 0.27490  0.28080  0.15485  Biso   1.000  N
  N58      1.0000 0.37994  0.20549  0.28816  Biso   1.000  N
  N59      1.0000 0.32503  0.39328  0.29042  Biso   1.000  N
  N60      1.0000 0.63928  0.16258  0.22935  Biso   1.000  N
  N61      1.0000 0.30567  0.65468  0.23319  Biso   1.000  N
  N62      1.0000 0.23790  0.25430  0.90619  Biso   1.000  N
  C65      1.0000 0.34632  0.45822  0.27754  Biso   1.000  C
  C66      1.0000 0.33638  0.59362  0.24842  Biso   1.000  C
  N63      1.0000 0.32390  0.27550  0.02120  Biso   1.000  N
  C67      1.0000 0.29630  0.27520  0.09100  Biso   1.000  C
  C68      1.0000 0.27750  0.26160  0.96250  Biso   1.000  C
  N64      1.0000 0.50520  0.12210  0.27820  Biso   1.000  N
  C69      1.0000 0.44090  0.16920  0.28030  Biso   1.000  C
  C70      1.0000 0.57480  0.14790  0.25150  Biso   1.000  C
  N65      1.0000 0.37910  0.52915  0.26530  Biso   1.000  N
  N66      1.0000 0.30380  0.31160  0.02030  Biso   1.000  N
  C71      1.0000 0.28470  0.29480  0.09080  Biso   1.000  C
  C72      1.0000 0.21890  0.23340  0.46180  Biso   1.000  C
  N67      1.0000 0.31400  0.23340  0.02450  Biso   1.000  N
  C73      1.0000 0.28810  0.25120  0.09340  Biso   1.000  C
  C74      1.0000 0.25940  0.23660  0.46710  Biso   1.000  C
  N68      1.0000 0.26540  0.33270  0.02200  Biso   1.000  N
  C75      1.0000 0.26300  0.30300  0.09140  Biso   1.000  C
  C76      1.0000 0.21290  0.25800  0.46430  Biso   1.000  C
  N69      1.0000 0.01250  0.36080  0.19590  Biso   1.000  N
  C77      1.0000 0.44450  0.17990  0.29680  Biso   1.000  C
  C78      1.0000 0.07700  0.34630  0.23630  Biso   1.000  C
  N70      1.0000 0.99680  0.38100  0.25510  Biso   1.000  N
  C79      1.0000 0.43690  0.16740  0.26450  Biso   1.000  C
  C80      1.0000 0.07120  0.35390  0.26440  Biso   1.000  C
  Mn6      1.0000 0.73920  0.72630  0.28127  Biso   1.000  Mn
  N71      1.0000 0.72510  0.71920  0.15485  Biso   1.000  N
  N72      1.0000 0.62006  0.79451  0.28816  Biso   1.000  N
  N73      1.0000 0.67497  0.60672  0.29042  Biso   1.000  N
  N74      1.0000 0.36072  0.83742  0.22935  Biso   1.000  N
  N75      1.0000 0.69433  0.34532  0.23319  Biso   1.000  N
  N76      1.0000 0.76210  0.74570  0.90619  Biso   1.000  N
  C81      1.0000 0.65368  0.54178  0.27754  Biso   1.000  C
  C82      1.0000 0.66362  0.40638  0.24842  Biso   1.000  C
  N77      1.0000 0.67610  0.72450  0.02120  Biso   1.000  N
  C83      1.0000 0.70370  0.72480  0.09100  Biso   1.000  C
  C84      1.0000 0.72250  0.73840  0.96250  Biso   1.000  C
  N78      1.0000 0.49480  0.87790  0.27820  Biso   1.000  N
  C85      1.0000 0.55910  0.83080  0.28030  Biso   1.000  C
  C86      1.0000 0.42520  0.85210  0.25150  Biso   1.000  C
  N79      1.0000 0.62090  0.47085  0.26530  Biso   1.000  N
  N80      1.0000 0.69620  0.68840  0.02030  Biso   1.000  N
  C87      1.0000 0.71530  0.70520  0.09080  Biso   1.000  C
  C88      1.0000 0.78110  0.76660  0.46180  Biso   1.000  C
  N81      1.0000 0.68600  0.76660  0.02450  Biso   1.000  N
  C89      1.0000 0.71190  0.74880  0.09340  Biso   1.000  C
  C90      1.0000 0.74060  0.76340  0.46710  Biso   1.000  C
  N82      1.0000 0.73460  0.66730  0.02200  Biso   1.000  N
  C91      1.0000 0.73700  0.69700  0.09140  Biso   1.000  C
  C92      1.0000 0.78710  0.74200  0.46430  Biso   1.000  C
  N83      1.0000 0.98750  0.63920  0.19590  Biso   1.000  N
  C93      1.0000 0.55550  0.82010  0.29680  Biso   1.000  C
  C94      1.0000 0.92300  0.65370  0.23630  Biso   1.000  C
  N84      1.0000 0.00320  0.61900  0.25510  Biso   1.000  N
  C95      1.0000 0.56310  0.83260  0.26450  Biso   1.000  C
  C96      1.0000 0.92880  0.64610  0.26440  Biso   1.000  C
  Mn7      1.0000 0.72630  0.26080  0.71873  Biso   1.000  Mn
  N85      1.0000 0.71920  0.27490  0.84515  Biso   1.000  N
  N86      1.0000 0.79451  0.37994  0.71184  Biso   1.000  N
  N87      1.0000 0.60672  0.32503  0.70958  Biso   1.000  N
  N88      1.0000 0.83742  0.63928  0.77065  Biso   1.000  N
  N89      1.0000 0.34532  0.30567  0.76681  Biso   1.000  N
  N90      1.0000 0.74570  0.23790  0.09381  Biso   1.000  N
  C97      1.0000 0.54178  0.34632  0.72246  Biso   1.000  C
  C98      1.0000 0.40638  0.33638  0.75158  Biso   1.000  C
  N91      1.0000 0.72450  0.32390  0.97880  Biso   1.000  N
  C99      1.0000 0.72480  0.29630  0.90900  Biso   1.000  C
  C100     1.0000 0.73840  0.27750  0.03750  Biso   1.000  C
  N92      1.0000 0.87790  0.50520  0.72180  Biso   1.000  N
  C101     1.0000 0.83080  0.44090  0.71970  Biso   1.000  C
  C102     1.0000 0.85210  0.57480  0.74850  Biso   1.000  C
  N93      1.0000 0.47085  0.37910  0.73470  Biso   1.000  N
  N94      1.0000 0.68840  0.30380  0.97970  Biso   1.000  N
  C103     1.0000 0.70520  0.28470  0.90920  Biso   1.000  C
  C104     1.0000 0.76660  0.21890  0.53820  Biso   1.000  C
  N95      1.0000 0.76660  0.31400  0.97550  Biso   1.000  N
  C105     1.0000 0.74880  0.28810  0.90660  Biso   1.000  C
  C106     1.0000 0.76340  0.25940  0.53290  Biso   1.000  C
  N96      1.0000 0.66730  0.26540  0.97800  Biso   1.000  N
  C107     1.0000 0.69700  0.26300  0.90860  Biso   1.000  C
  C108     1.0000 0.74200  0.21290  0.53570  Biso   1.000  C
  N97      1.0000 0.63920  0.01250  0.80410  Biso   1.000  N
  C109     1.0000 0.82010  0.44450  0.70320  Biso   1.000  C
  C110     1.0000 0.65370  0.07700  0.76370  Biso   1.000  C
  N98      1.0000 0.61900  0.99680  0.74490  Biso   1.000  N
  C111     1.0000 0.83260  0.43690  0.73550  Biso   1.000  C
  C112     1.0000 0.64610  0.07120  0.73560  Biso   1.000  C
  Mn8      1.0000 0.27370  0.73920  0.71873  Biso   1.000  Mn
  N99      1.0000 0.28080  0.72510  0.84515  Biso   1.000  N
  N100     1.0000 0.20549  0.62006  0.71184  Biso   1.000  N
  N101     1.0000 0.39328  0.67497  0.70958  Biso   1.000  N
  N102     1.0000 0.16258  0.36072  0.77065  Biso   1.000  N
  N103     1.0000 0.65468  0.69433  0.76681  Biso   1.000  N
  N104     1.0000 0.25430  0.76210  0.09381  Biso   1.000  N
  C113     1.0000 0.45822  0.65368  0.72246  Biso   1.000  C
  C114     1.0000 0.59362  0.66362  0.75158  Biso   1.000  C
  N105     1.0000 0.27550  0.67610  0.97880  Biso   1.000  N
  C115     1.0000 0.27520  0.70370  0.90900  Biso   1.000  C
  C116     1.0000 0.26160  0.72250  0.03750  Biso   1.000  C
  N106     1.0000 0.12210  0.49480  0.72180  Biso   1.000  N
  C117     1.0000 0.16920  0.55910  0.71970  Biso   1.000  C
  C118     1.0000 0.14790  0.42520  0.74850  Biso   1.000  C
  N107     1.0000 0.52915  0.62090  0.73470  Biso   1.000  N
  N108     1.0000 0.31160  0.69620  0.97970  Biso   1.000  N
  C119     1.0000 0.29480  0.71530  0.90920  Biso   1.000  C
  C120     1.0000 0.23340  0.78110  0.53820  Biso   1.000  C
  N109     1.0000 0.23340  0.68600  0.97550  Biso   1.000  N
  C121     1.0000 0.25120  0.71190  0.90660  Biso   1.000  C
  C122     1.0000 0.23660  0.74060  0.53290  Biso   1.000  C
  N110     1.0000 0.33270  0.73460  0.97800  Biso   1.000  N
  C123     1.0000 0.30300  0.73700  0.90860  Biso   1.000  C
  C124     1.0000 0.25800  0.78710  0.53570  Biso   1.000  C
  N111     1.0000 0.36080  0.98750  0.80410  Biso   1.000  N
  C125     1.0000 0.17990  0.55550  0.70320  Biso   1.000  C
  C126     1.0000 0.34630  0.92300  0.76370  Biso   1.000  C
  N112     1.0000 0.38100  0.00320  0.74490  Biso   1.000  N
  C127     1.0000 0.16740  0.56310  0.73550  Biso   1.000  C
  C128     1.0000 0.35390  0.92880  0.73560  Biso   1.000  C
