data_image0
_cell_length_a       17.116
_cell_length_b       22.8
_cell_length_c       22.641
_cell_angle_alpha    90
_cell_angle_beta     90
_cell_angle_gamma    90

_symmetry_space_group_name_H-M    "P 1"
_symmetry_int_tables_number       1

loop_
  _symmetry_equiv_pos_as_xyz
  'x, y, z'

loop_
  _atom_site_label
  _atom_site_occupancy
  _atom_site_fract_x
  _atom_site_fract_y
  _atom_site_fract_z
  _atom_site_thermal_displace_type
  _atom_site_B_iso_or_equiv
  _atom_site_type_symbol
  Ni1      1.0000 0.47401  0.25790  0.00925  Biso   1.000  Ni
  Ni2      1.0000 0.49687  0.50790  0.25911  Biso   1.000  Ni
  N1       1.0000 0.46120  0.17021  0.03430  Biso   1.000  N
  N2       1.0000 0.49155  0.23124  0.92239  Biso   1.000  N
  N3       1.0000 0.48589  0.34500  0.98136  Biso   1.000  N
  N4       1.0000 0.45850  0.28468  0.09599  Biso   1.000  N
  N5       1.0000 0.35422  0.26240  0.99310  Biso   1.000  N
  N6       1.0000 0.59402  0.25377  0.02351  Biso   1.000  N
  N7       1.0000 0.48904  0.42048  0.23318  Biso   1.000  N
  N8       1.0000 0.49784  0.59467  0.28561  Biso   1.000  N
  N9       1.0000 0.48470  0.48161  0.34689  Biso   1.000  N
  N10      1.0000 0.50864  0.53252  0.17053  Biso   1.000  N
  N11      1.0000 0.37718  0.51345  0.24793  Biso   1.000  N
  N12      1.0000 0.61909  0.50218  0.26463  Biso   1.000  N
  N13      1.0000 0.22900  0.25630  0.94070  Biso   1.000  N
  C1       1.0000 0.29330  0.26030  0.97180  Biso   1.000  C
  C2       1.0000 0.65940  0.25490  0.03670  Biso   1.000  C
  N14      1.0000 0.22810  0.22850  0.94900  Biso   1.000  N
  C3       1.0000 0.29240  0.24610  0.97520  Biso   1.000  C
  C4       1.0000 0.65780  0.24240  0.03210  Biso   1.000  C
  N15      1.0000 0.22820  0.28510  0.94680  Biso   1.000  N
  C5       1.0000 0.29320  0.27380  0.97600  Biso   1.000  C
  C6       1.0000 0.65860  0.26910  0.03400  Biso   1.000  C
  N16      1.0000 0.74880  0.45480  0.24840  Biso   1.000  N
  C7       1.0000 0.68160  0.48100  0.25750  Biso   1.000  C
  C8       1.0000 0.68260  0.52150  0.25840  Biso   1.000  C
  N17      1.0000 0.52162  0.19490  0.82259  Biso   1.000  N
  N18      1.0000 0.45124  0.32250  0.19749  Biso   1.000  N
  N19      1.0000 0.45139  0.06499  0.05816  Biso   1.000  N
  N20      1.0000 0.47993  0.44196  0.93463  Biso   1.000  N
  C9       1.0000 0.45843  0.12154  0.04842  Biso   1.000  C
  C10      1.0000 0.50465  0.21137  0.87654  Biso   1.000  C
  C11      1.0000 0.48447  0.38886  0.95658  Biso   1.000  C
  C12      1.0000 0.45681  0.30498  0.14258  Biso   1.000  C
  C13      1.0000 0.47214  0.37553  0.21347  Biso   1.000  C
  C14      1.0000 0.51022  0.14055  0.80575  Biso   1.000  C
  C15      1.0000 0.47024  0.04261  0.10977  Biso   1.000  C
  C16      1.0000 0.48744  0.45213  0.87802  Biso   1.000  C
  C17      1.0000 0.31582  0.50702  0.22915  Biso   1.000  C
  Ni3      1.0000 0.02599  0.74210  0.00925  Biso   1.000  Ni
  Ni4      1.0000 0.00313  0.49210  0.25911  Biso   1.000  Ni
  N21      1.0000 0.03880  0.82979  0.03430  Biso   1.000  N
  N22      1.0000 0.00845  0.76876  0.92239  Biso   1.000  N
  N23      1.0000 0.01411  0.65500  0.98136  Biso   1.000  N
  N24      1.0000 0.04150  0.71532  0.09599  Biso   1.000  N
  N25      1.0000 0.14578  0.73760  0.99310  Biso   1.000  N
  N26      1.0000 0.90598  0.74623  0.02351  Biso   1.000  N
  N27      1.0000 0.01096  0.57952  0.23318  Biso   1.000  N
  N28      1.0000 0.00216  0.40533  0.28561  Biso   1.000  N
  N29      1.0000 0.01530  0.51839  0.34689  Biso   1.000  N
  N30      1.0000 0.99136  0.46748  0.17053  Biso   1.000  N
  N31      1.0000 0.12282  0.48655  0.24793  Biso   1.000  N
  N32      1.0000 0.88091  0.49782  0.26463  Biso   1.000  N
  N33      1.0000 0.27100  0.74370  0.94070  Biso   1.000  N
  C18      1.0000 0.20670  0.73970  0.97180  Biso   1.000  C
  C19      1.0000 0.84060  0.74510  0.03670  Biso   1.000  C
  N34      1.0000 0.27190  0.77150  0.94900  Biso   1.000  N
  C20      1.0000 0.20760  0.75390  0.97520  Biso   1.000  C
  C21      1.0000 0.84220  0.75760  0.03210  Biso   1.000  C
  N35      1.0000 0.27180  0.71490  0.94680  Biso   1.000  N
  C22      1.0000 0.20680  0.72620  0.97600  Biso   1.000  C
  C23      1.0000 0.84140  0.73090  0.03400  Biso   1.000  C
  N36      1.0000 0.75120  0.54520  0.24840  Biso   1.000  N
  C24      1.0000 0.81840  0.51900  0.25750  Biso   1.000  C
  C25      1.0000 0.81740  0.47850  0.25840  Biso   1.000  C
  N37      1.0000 0.97838  0.80510  0.82259  Biso   1.000  N
  N38      1.0000 0.04876  0.67750  0.19749  Biso   1.000  N
  N39      1.0000 0.04861  0.93501  0.05816  Biso   1.000  N
  N40      1.0000 0.02007  0.55804  0.93463  Biso   1.000  N
  C26      1.0000 0.04157  0.87846  0.04842  Biso   1.000  C
  C27      1.0000 0.99535  0.78863  0.87654  Biso   1.000  C
  C28      1.0000 0.01553  0.61114  0.95658  Biso   1.000  C
  C29      1.0000 0.04319  0.69502  0.14258  Biso   1.000  C
  C30      1.0000 0.02786  0.62447  0.21347  Biso   1.000  C
  C31      1.0000 0.98978  0.85945  0.80575  Biso   1.000  C
  C32      1.0000 0.02976  0.95739  0.10977  Biso   1.000  C
  C33      1.0000 0.01256  0.54787  0.87802  Biso   1.000  C
  C34      1.0000 0.18418  0.49298  0.22915  Biso   1.000  C
  Ni5      1.0000 0.02599  0.75790  0.49075  Biso   1.000  Ni
  Ni6      1.0000 0.00313  0.00790  0.24089  Biso   1.000  Ni
  N41      1.0000 0.03880  0.67021  0.46570  Biso   1.000  N
  N42      1.0000 0.00845  0.73124  0.57761  Biso   1.000  N
  N43      1.0000 0.01411  0.84500  0.51864  Biso   1.000  N
  N44      1.0000 0.04150  0.78468  0.40401  Biso   1.000  N
  N45      1.0000 0.14578  0.76240  0.50690  Biso   1.000  N
  N46      1.0000 0.90598  0.75377  0.47649  Biso   1.000  N
  N47      1.0000 0.01096  0.92048  0.26682  Biso   1.000  N
  N48      1.0000 0.00216  0.09467  0.21439  Biso   1.000  N
  N49      1.0000 0.01530  0.98161  0.15311  Biso   1.000  N
  N50      1.0000 0.99136  0.03252  0.32947  Biso   1.000  N
  N51      1.0000 0.12282  0.01345  0.25207  Biso   1.000  N
  N52      1.0000 0.88091  0.00218  0.23537  Biso   1.000  N
  N53      1.0000 0.27100  0.75630  0.55930  Biso   1.000  N
  C35      1.0000 0.20670  0.76030  0.52820  Biso   1.000  C
  C36      1.0000 0.84060  0.75490  0.46330  Biso   1.000  C
  N54      1.0000 0.27190  0.72850  0.55100  Biso   1.000  N
  C37      1.0000 0.20760  0.74610  0.52480  Biso   1.000  C
  C38      1.0000 0.84220  0.74240  0.46790  Biso   1.000  C
  N55      1.0000 0.27180  0.78510  0.55320  Biso   1.000  N
  C39      1.0000 0.20680  0.77380  0.52400  Biso   1.000  C
  C40      1.0000 0.84140  0.76910  0.46600  Biso   1.000  C
  N56      1.0000 0.75120  0.95480  0.25160  Biso   1.000  N
  C41      1.0000 0.81840  0.98100  0.24250  Biso   1.000  C
  C42      1.0000 0.81740  0.02150  0.24160  Biso   1.000  C
  N57      1.0000 0.97838  0.69490  0.67741  Biso   1.000  N
  N58      1.0000 0.04876  0.82250  0.30251  Biso   1.000  N
  N59      1.0000 0.04861  0.56499  0.44184  Biso   1.000  N
  N60      1.0000 0.02007  0.94196  0.56537  Biso   1.000  N
  C43      1.0000 0.04157  0.62154  0.45158  Biso   1.000  C
  C44      1.0000 0.99535  0.71137  0.62346  Biso   1.000  C
  C45      1.0000 0.01553  0.88886  0.54342  Biso   1.000  C
  C46      1.0000 0.04319  0.80498  0.35742  Biso   1.000  C
  C47      1.0000 0.02786  0.87553  0.28653  Biso   1.000  C
  C48      1.0000 0.98978  0.64055  0.69425  Biso   1.000  C
  C49      1.0000 0.02976  0.54261  0.39023  Biso   1.000  C
  C50      1.0000 0.01256  0.95213  0.62198  Biso   1.000  C
  C51      1.0000 0.18418  0.00702  0.27085  Biso   1.000  C
  Ni7      1.0000 0.47401  0.24210  0.49075  Biso   1.000  Ni
  Ni8      1.0000 0.49687  0.99210  0.24089  Biso   1.000  Ni
  N61      1.0000 0.46120  0.32979  0.46570  Biso   1.000  N
  N62      1.0000 0.49155  0.26876  0.57761  Biso   1.000  N
  N63      1.0000 0.48589  0.15500  0.51864  Biso   1.000  N
  N64      1.0000 0.45850  0.21532  0.40401  Biso   1.000  N
  N65      1.0000 0.35422  0.23760  0.50690  Biso   1.000  N
  N66      1.0000 0.59402  0.24623  0.47649  Biso   1.000  N
  N67      1.0000 0.48904  0.07952  0.26682  Biso   1.000  N
  N68      1.0000 0.49784  0.90533  0.21439  Biso   1.000  N
  N69      1.0000 0.48470  0.01839  0.15311  Biso   1.000  N
  N70      1.0000 0.50864  0.96748  0.32947  Biso   1.000  N
  N71      1.0000 0.37718  0.98655  0.25207  Biso   1.000  N
  N72      1.0000 0.61909  0.99782  0.23537  Biso   1.000  N
  N73      1.0000 0.22900  0.24370  0.55930  Biso   1.000  N
  C52      1.0000 0.29330  0.23970  0.52820  Biso   1.000  C
  C53      1.0000 0.65940  0.24510  0.46330  Biso   1.000  C
  N74      1.0000 0.22810  0.27150  0.55100  Biso   1.000  N
  C54      1.0000 0.29240  0.25390  0.52480  Biso   1.000  C
  C55      1.0000 0.65780  0.25760  0.46790  Biso   1.000  C
  N75      1.0000 0.22820  0.21490  0.55320  Biso   1.000  N
  C56      1.0000 0.29320  0.22620  0.52400  Biso   1.000  C
  C57      1.0000 0.65860  0.23090  0.46600  Biso   1.000  C
  N76      1.0000 0.74880  0.04520  0.25160  Biso   1.000  N
  C58      1.0000 0.68160  0.01900  0.24250  Biso   1.000  C
  C59      1.0000 0.68260  0.97850  0.24160  Biso   1.000  C
  N77      1.0000 0.52162  0.30510  0.67741  Biso   1.000  N
  N78      1.0000 0.45124  0.17750  0.30251  Biso   1.000  N
  N79      1.0000 0.45139  0.43501  0.44184  Biso   1.000  N
  N80      1.0000 0.47993  0.05804  0.56537  Biso   1.000  N
  C60      1.0000 0.45843  0.37846  0.45158  Biso   1.000  C
  C61      1.0000 0.50465  0.28863  0.62346  Biso   1.000  C
  C62      1.0000 0.48447  0.11114  0.54342  Biso   1.000  C
  C63      1.0000 0.45681  0.19502  0.35742  Biso   1.000  C
  C64      1.0000 0.47214  0.12447  0.28653  Biso   1.000  C
  C65      1.0000 0.51022  0.35945  0.69425  Biso   1.000  C
  C66      1.0000 0.47024  0.45739  0.39023  Biso   1.000  C
  C67      1.0000 0.48744  0.04787  0.62198  Biso   1.000  C
  C68      1.0000 0.31582  0.99298  0.27085  Biso   1.000  C
  Ni9      1.0000 0.52599  0.74210  0.99075  Biso   1.000  Ni
  Ni10     1.0000 0.50313  0.49210  0.74089  Biso   1.000  Ni
  N81      1.0000 0.53880  0.82979  0.96570  Biso   1.000  N
  N82      1.0000 0.50845  0.76876  0.07761  Biso   1.000  N
  N83      1.0000 0.51411  0.65500  0.01864  Biso   1.000  N
  N84      1.0000 0.54150  0.71532  0.90401  Biso   1.000  N
  N85      1.0000 0.64578  0.73760  0.00690  Biso   1.000  N
  N86      1.0000 0.40598  0.74623  0.97649  Biso   1.000  N
  N87      1.0000 0.51096  0.57952  0.76682  Biso   1.000  N
  N88      1.0000 0.50216  0.40533  0.71439  Biso   1.000  N
  N89      1.0000 0.51530  0.51839  0.65311  Biso   1.000  N
  N90      1.0000 0.49136  0.46748  0.82947  Biso   1.000  N
  N91      1.0000 0.62282  0.48655  0.75207  Biso   1.000  N
  N92      1.0000 0.38091  0.49782  0.73537  Biso   1.000  N
  N93      1.0000 0.77100  0.74370  0.05930  Biso   1.000  N
  C69      1.0000 0.70670  0.73970  0.02820  Biso   1.000  C
  C70      1.0000 0.34060  0.74510  0.96330  Biso   1.000  C
  N94      1.0000 0.77190  0.77150  0.05100  Biso   1.000  N
  C71      1.0000 0.70760  0.75390  0.02480  Biso   1.000  C
  C72      1.0000 0.34220  0.75760  0.96790  Biso   1.000  C
  N95      1.0000 0.77180  0.71490  0.05320  Biso   1.000  N
  C73      1.0000 0.70680  0.72620  0.02400  Biso   1.000  C
  C74      1.0000 0.34140  0.73090  0.96600  Biso   1.000  C
  N96      1.0000 0.25120  0.54520  0.75160  Biso   1.000  N
  C75      1.0000 0.31840  0.51900  0.74250  Biso   1.000  C
  C76      1.0000 0.31740  0.47850  0.74160  Biso   1.000  C
  N97      1.0000 0.47838  0.80510  0.17741  Biso   1.000  N
  N98      1.0000 0.54876  0.67750  0.80251  Biso   1.000  N
  N99      1.0000 0.54861  0.93501  0.94184  Biso   1.000  N
  N100     1.0000 0.52007  0.55804  0.06537  Biso   1.000  N
  C77      1.0000 0.54157  0.87846  0.95158  Biso   1.000  C
  C78      1.0000 0.49535  0.78863  0.12346  Biso   1.000  C
  C79      1.0000 0.51553  0.61114  0.04342  Biso   1.000  C
  C80      1.0000 0.54319  0.69502  0.85742  Biso   1.000  C
  C81      1.0000 0.52786  0.62447  0.78653  Biso   1.000  C
  C82      1.0000 0.48978  0.85945  0.19425  Biso   1.000  C
  C83      1.0000 0.52976  0.95739  0.89023  Biso   1.000  C
  C84      1.0000 0.51256  0.54787  0.12198  Biso   1.000  C
  C85      1.0000 0.68418  0.49298  0.77085  Biso   1.000  C
  Ni11     1.0000 0.97401  0.25790  0.99075  Biso   1.000  Ni
  Ni12     1.0000 0.99687  0.50790  0.74089  Biso   1.000  Ni
  N101     1.0000 0.96120  0.17021  0.96570  Biso   1.000  N
  N102     1.0000 0.99155  0.23124  0.07761  Biso   1.000  N
  N103     1.0000 0.98589  0.34500  0.01864  Biso   1.000  N
  N104     1.0000 0.95850  0.28468  0.90401  Biso   1.000  N
  N105     1.0000 0.85422  0.26240  0.00690  Biso   1.000  N
  N106     1.0000 0.09402  0.25377  0.97649  Biso   1.000  N
  N107     1.0000 0.98904  0.42048  0.76682  Biso   1.000  N
  N108     1.0000 0.99784  0.59467  0.71439  Biso   1.000  N
  N109     1.0000 0.98470  0.48161  0.65311  Biso   1.000  N
  N110     1.0000 0.00864  0.53252  0.82947  Biso   1.000  N
  N111     1.0000 0.87718  0.51345  0.75207  Biso   1.000  N
  N112     1.0000 0.11909  0.50218  0.73537  Biso   1.000  N
  N113     1.0000 0.72900  0.25630  0.05930  Biso   1.000  N
  C86      1.0000 0.79330  0.26030  0.02820  Biso   1.000  C
  C87      1.0000 0.15940  0.25490  0.96330  Biso   1.000  C
  N114     1.0000 0.72810  0.22850  0.05100  Biso   1.000  N
  C88      1.0000 0.79240  0.24610  0.02480  Biso   1.000  C
  C89      1.0000 0.15780  0.24240  0.96790  Biso   1.000  C
  N115     1.0000 0.72820  0.28510  0.05320  Biso   1.000  N
  C90      1.0000 0.79320  0.27380  0.02400  Biso   1.000  C
  C91      1.0000 0.15860  0.26910  0.96600  Biso   1.000  C
  N116     1.0000 0.24880  0.45480  0.75160  Biso   1.000  N
  C92      1.0000 0.18160  0.48100  0.74250  Biso   1.000  C
  C93      1.0000 0.18260  0.52150  0.74160  Biso   1.000  C
  N117     1.0000 0.02162  0.19490  0.17741  Biso   1.000  N
  N118     1.0000 0.95124  0.32250  0.80251  Biso   1.000  N
  N119     1.0000 0.95139  0.06499  0.94184  Biso   1.000  N
  N120     1.0000 0.97993  0.44196  0.06537  Biso   1.000  N
  C94      1.0000 0.95843  0.12154  0.95158  Biso   1.000  C
  C95      1.0000 0.00465  0.21137  0.12346  Biso   1.000  C
  C96      1.0000 0.98447  0.38886  0.04342  Biso   1.000  C
  C97      1.0000 0.95681  0.30498  0.85742  Biso   1.000  C
  C98      1.0000 0.97214  0.37553  0.78653  Biso   1.000  C
  C99      1.0000 0.01022  0.14055  0.19425  Biso   1.000  C
  C100     1.0000 0.97024  0.04261  0.89023  Biso   1.000  C
  C101     1.0000 0.98744  0.45213  0.12198  Biso   1.000  C
  C102     1.0000 0.81582  0.50702  0.77085  Biso   1.000  C
  Ni13     1.0000 0.97401  0.24210  0.50924  Biso   1.000  Ni
  Ni14     1.0000 0.99687  0.99210  0.75911  Biso   1.000  Ni
  N121     1.0000 0.96120  0.32979  0.53430  Biso   1.000  N
  N122     1.0000 0.99155  0.26876  0.42239  Biso   1.000  N
  N123     1.0000 0.98589  0.15500  0.48136  Biso   1.000  N
  N124     1.0000 0.95850  0.21532  0.59599  Biso   1.000  N
  N125     1.0000 0.85422  0.23760  0.49310  Biso   1.000  N
  N126     1.0000 0.09402  0.24623  0.52351  Biso   1.000  N
  N127     1.0000 0.98904  0.07952  0.73318  Biso   1.000  N
  N128     1.0000 0.99784  0.90533  0.78561  Biso   1.000  N
  N129     1.0000 0.98470  0.01839  0.84689  Biso   1.000  N
  N130     1.0000 0.00864  0.96748  0.67053  Biso   1.000  N
  N131     1.0000 0.87718  0.98655  0.74793  Biso   1.000  N
  N132     1.0000 0.11909  0.99782  0.76463  Biso   1.000  N
  N133     1.0000 0.72900  0.24370  0.44070  Biso   1.000  N
  C103     1.0000 0.79330  0.23970  0.47180  Biso   1.000  C
  C104     1.0000 0.15940  0.24510  0.53670  Biso   1.000  C
  N134     1.0000 0.72810  0.27150  0.44900  Biso   1.000  N
  C105     1.0000 0.79240  0.25390  0.47520  Biso   1.000  C
  C106     1.0000 0.15780  0.25760  0.53210  Biso   1.000  C
  N135     1.0000 0.72820  0.21490  0.44680  Biso   1.000  N
  C107     1.0000 0.79320  0.22620  0.47600  Biso   1.000  C
  C108     1.0000 0.15860  0.23090  0.53400  Biso   1.000  C
  N136     1.0000 0.24880  0.04520  0.74840  Biso   1.000  N
  C109     1.0000 0.18160  0.01900  0.75750  Biso   1.000  C
  C110     1.0000 0.18260  0.97850  0.75840  Biso   1.000  C
  N137     1.0000 0.02162  0.30510  0.32259  Biso   1.000  N
  N138     1.0000 0.95124  0.17750  0.69749  Biso   1.000  N
  N139     1.0000 0.95139  0.43501  0.55816  Biso   1.000  N
  N140     1.0000 0.97993  0.05804  0.43463  Biso   1.000  N
  C111     1.0000 0.95843  0.37846  0.54842  Biso   1.000  C
  C112     1.0000 0.00465  0.28863  0.37654  Biso   1.000  C
  C113     1.0000 0.98447  0.11114  0.45658  Biso   1.000  C
  C114     1.0000 0.95681  0.19502  0.64258  Biso   1.000  C
  C115     1.0000 0.97214  0.12447  0.71347  Biso   1.000  C
  C116     1.0000 0.01022  0.35945  0.30575  Biso   1.000  C
  C117     1.0000 0.97024  0.45739  0.60977  Biso   1.000  C
  C118     1.0000 0.98744  0.04787  0.37802  Biso   1.000  C
  C119     1.0000 0.81582  0.99298  0.72915  Biso   1.000  C
  Ni15     1.0000 0.52599  0.75790  0.50924  Biso   1.000  Ni
  Ni16     1.0000 0.50313  0.00790  0.75911  Biso   1.000  Ni
  N141     1.0000 0.53880  0.67021  0.53430  Biso   1.000  N
  N142     1.0000 0.50845  0.73124  0.42239  Biso   1.000  N
  N143     1.0000 0.51411  0.84500  0.48136  Biso   1.000  N
  N144     1.0000 0.54150  0.78468  0.59599  Biso   1.000  N
  N145     1.0000 0.64578  0.76240  0.49310  Biso   1.000  N
  N146     1.0000 0.40598  0.75377  0.52351  Biso   1.000  N
  N147     1.0000 0.51096  0.92048  0.73318  Biso   1.000  N
  N148     1.0000 0.50216  0.09467  0.78561  Biso   1.000  N
  N149     1.0000 0.51530  0.98161  0.84689  Biso   1.000  N
  N150     1.0000 0.49136  0.03252  0.67053  Biso   1.000  N
  N151     1.0000 0.62282  0.01345  0.74793  Biso   1.000  N
  N152     1.0000 0.38091  0.00218  0.76463  Biso   1.000  N
  N153     1.0000 0.77100  0.75630  0.44070  Biso   1.000  N
  C120     1.0000 0.70670  0.76030  0.47180  Biso   1.000  C
  C121     1.0000 0.34060  0.75490  0.53670  Biso   1.000  C
  N154     1.0000 0.77190  0.72850  0.44900  Biso   1.000  N
  C122     1.0000 0.70760  0.74610  0.47520  Biso   1.000  C
  C123     1.0000 0.34220  0.74240  0.53210  Biso   1.000  C
  N155     1.0000 0.77180  0.78510  0.44680  Biso   1.000  N
  C124     1.0000 0.70680  0.77380  0.47600  Biso   1.000  C
  C125     1.0000 0.34140  0.76910  0.53400  Biso   1.000  C
  N156     1.0000 0.25120  0.95480  0.74840  Biso   1.000  N
  C126     1.0000 0.31840  0.98100  0.75750  Biso   1.000  C
  C127     1.0000 0.31740  0.02150  0.75840  Biso   1.000  C
  N157     1.0000 0.47838  0.69490  0.32259  Biso   1.000  N
  N158     1.0000 0.54876  0.82250  0.69749  Biso   1.000  N
  N159     1.0000 0.54861  0.56499  0.55816  Biso   1.000  N
  N160     1.0000 0.52007  0.94196  0.43463  Biso   1.000  N
  C128     1.0000 0.54157  0.62154  0.54842  Biso   1.000  C
  C129     1.0000 0.49535  0.71137  0.37654  Biso   1.000  C
  C130     1.0000 0.51553  0.88886  0.45658  Biso   1.000  C
  C131     1.0000 0.54319  0.80498  0.64258  Biso   1.000  C
  C132     1.0000 0.52786  0.87553  0.71347  Biso   1.000  C
  C133     1.0000 0.48978  0.64055  0.30575  Biso   1.000  C
  C134     1.0000 0.52976  0.54261  0.60977  Biso   1.000  C
  C135     1.0000 0.51256  0.95213  0.37802  Biso   1.000  C
  C136     1.0000 0.68418  0.00702  0.72915  Biso   1.000  C
  N161     1.0000 0.25000  0.50000  0.20190  Biso   1.000  N
  N162     1.0000 0.25000  0.00000  0.29810  Biso   1.000  N
  N163     1.0000 0.75000  0.50000  0.79810  Biso   1.000  N
  N164     1.0000 0.75000  0.00000  0.70190  Biso   1.000  N
