data_image0
_cell_length_a       16.0985
_cell_length_b       16.0985
_cell_length_c       17.0287
_cell_angle_alpha    90
_cell_angle_beta     90
_cell_angle_gamma    90

_symmetry_space_group_name_H-M    "P 1"
_symmetry_int_tables_number       1

loop_
  _symmetry_equiv_pos_as_xyz
  'x, y, z'

loop_
  _atom_site_label
  _atom_site_occupancy
  _atom_site_fract_x
  _atom_site_fract_y
  _atom_site_fract_z
  _atom_site_thermal_displace_type
  _atom_site_B_iso_or_equiv
  _atom_site_type_symbol
  Ni1      1.0000 0.25225  0.27109  0.27717  Biso   1.000  Ni
  N1       1.0000 0.27190  0.28090  0.15660  Biso   1.000  N
  C1       1.0000 0.28660  0.28130  0.09230  Biso   1.000  C
  N2       1.0000 0.30800  0.38660  0.29090  Biso   1.000  N
  C2       1.0000 0.33350  0.45260  0.28260  Biso   1.000  C
  N3       1.0000 0.13550  0.32750  0.26230  Biso   1.000  N
  C3       1.0000 0.06920  0.34210  0.24530  Biso   1.000  C
  N4       1.0000 0.86890  0.28800  0.21340  Biso   1.000  N
  C4       1.0000 0.93010  0.32250  0.21950  Biso   1.000  C
  N5       1.0000 0.30430  0.65490  0.23890  Biso   1.000  N
  C5       1.0000 0.33090  0.59190  0.25520  Biso   1.000  C
  N6       1.0000 0.24260  0.26470  0.89700  Biso   1.000  N
  C6       1.0000 0.27310  0.27430  0.95750  Biso   1.000  C
  N7       1.0000 0.31040  0.30440  0.02030  Biso   1.000  N
  N8       1.0000 0.32480  0.26250  0.02050  Biso   1.000  N
  N9       1.0000 0.37090  0.52280  0.27470  Biso   1.000  N
  N10      1.0000 0.99710  0.36930  0.22120  Biso   1.000  N
  Ni2      1.0000 0.74775  0.72891  0.27717  Biso   1.000  Ni
  N11      1.0000 0.72810  0.71910  0.15660  Biso   1.000  N
  C7       1.0000 0.71340  0.71870  0.09230  Biso   1.000  C
  N12      1.0000 0.69200  0.61340  0.29090  Biso   1.000  N
  C8       1.0000 0.66650  0.54740  0.28260  Biso   1.000  C
  N13      1.0000 0.86450  0.67250  0.26230  Biso   1.000  N
  C9       1.0000 0.93080  0.65790  0.24530  Biso   1.000  C
  N14      1.0000 0.13110  0.71200  0.21340  Biso   1.000  N
  C10      1.0000 0.06990  0.67750  0.21950  Biso   1.000  C
  N15      1.0000 0.69570  0.34510  0.23890  Biso   1.000  N
  C11      1.0000 0.66910  0.40810  0.25520  Biso   1.000  C
  N16      1.0000 0.75740  0.73530  0.89700  Biso   1.000  N
  C12      1.0000 0.72690  0.72570  0.95750  Biso   1.000  C
  N17      1.0000 0.68960  0.69560  0.02030  Biso   1.000  N
  N18      1.0000 0.67520  0.73750  0.02050  Biso   1.000  N
  N19      1.0000 0.62910  0.47720  0.27470  Biso   1.000  N
  N20      1.0000 0.00290  0.63070  0.22120  Biso   1.000  N
  Ni3      1.0000 0.27109  0.74775  0.72283  Biso   1.000  Ni
  N21      1.0000 0.28090  0.72810  0.84340  Biso   1.000  N
  C13      1.0000 0.28130  0.71340  0.90770  Biso   1.000  C
  N22      1.0000 0.38660  0.69200  0.70910  Biso   1.000  N
  C14      1.0000 0.45260  0.66650  0.71740  Biso   1.000  C
  N23      1.0000 0.32750  0.86450  0.73770  Biso   1.000  N
  C15      1.0000 0.34210  0.93080  0.75470  Biso   1.000  C
  N24      1.0000 0.28800  0.13110  0.78660  Biso   1.000  N
  C16      1.0000 0.32250  0.06990  0.78050  Biso   1.000  C
  N25      1.0000 0.65490  0.69570  0.76110  Biso   1.000  N
  C17      1.0000 0.59190  0.66910  0.74480  Biso   1.000  C
  N26      1.0000 0.26470  0.75740  0.10300  Biso   1.000  N
  C18      1.0000 0.27430  0.72690  0.04250  Biso   1.000  C
  N27      1.0000 0.30440  0.68960  0.97970  Biso   1.000  N
  N28      1.0000 0.26250  0.67520  0.97950  Biso   1.000  N
  N29      1.0000 0.52280  0.62910  0.72530  Biso   1.000  N
  N30      1.0000 0.36930  0.00290  0.77880  Biso   1.000  N
  Ni4      1.0000 0.72891  0.25225  0.72283  Biso   1.000  Ni
  N31      1.0000 0.71910  0.27190  0.84340  Biso   1.000  N
  C19      1.0000 0.71870  0.28660  0.90770  Biso   1.000  C
  N32      1.0000 0.61340  0.30800  0.70910  Biso   1.000  N
  C20      1.0000 0.54740  0.33350  0.71740  Biso   1.000  C
  N33      1.0000 0.67250  0.13550  0.73770  Biso   1.000  N
  C21      1.0000 0.65790  0.06920  0.75470  Biso   1.000  C
  N34      1.0000 0.71200  0.86890  0.78660  Biso   1.000  N
  C22      1.0000 0.67750  0.93010  0.78050  Biso   1.000  C
  N35      1.0000 0.34510  0.30430  0.76110  Biso   1.000  N
  C23      1.0000 0.40810  0.33090  0.74480  Biso   1.000  C
  N36      1.0000 0.73530  0.24260  0.10300  Biso   1.000  N
  C24      1.0000 0.72570  0.27310  0.04250  Biso   1.000  C
  N37      1.0000 0.69560  0.31040  0.97970  Biso   1.000  N
  N38      1.0000 0.73750  0.32480  0.97950  Biso   1.000  N
  N39      1.0000 0.47720  0.37090  0.72530  Biso   1.000  N
  N40      1.0000 0.63070  0.99710  0.77880  Biso   1.000  N
  Ni5      1.0000 0.24775  0.77109  0.22283  Biso   1.000  Ni
  N41      1.0000 0.22810  0.78090  0.34340  Biso   1.000  N
  C25      1.0000 0.21340  0.78130  0.40770  Biso   1.000  C
  N42      1.0000 0.19200  0.88660  0.20910  Biso   1.000  N
  C26      1.0000 0.16650  0.95260  0.21740  Biso   1.000  C
  N43      1.0000 0.36450  0.82750  0.23770  Biso   1.000  N
  C27      1.0000 0.43080  0.84210  0.25470  Biso   1.000  C
  N44      1.0000 0.63110  0.78800  0.28660  Biso   1.000  N
  C28      1.0000 0.56990  0.82250  0.28050  Biso   1.000  C
  N45      1.0000 0.19570  0.15490  0.26110  Biso   1.000  N
  C29      1.0000 0.16910  0.09190  0.24480  Biso   1.000  C
  N46      1.0000 0.25740  0.76470  0.60300  Biso   1.000  N
  C30      1.0000 0.22690  0.77430  0.54250  Biso   1.000  C
  N47      1.0000 0.18960  0.80440  0.47970  Biso   1.000  N
  N48      1.0000 0.17520  0.76250  0.47950  Biso   1.000  N
  N49      1.0000 0.12910  0.02280  0.22530  Biso   1.000  N
  N50      1.0000 0.50290  0.86930  0.27880  Biso   1.000  N
  Ni6      1.0000 0.75225  0.22891  0.22283  Biso   1.000  Ni
  N51      1.0000 0.77190  0.21910  0.34340  Biso   1.000  N
  C31      1.0000 0.78660  0.21870  0.40770  Biso   1.000  C
  N52      1.0000 0.80800  0.11340  0.20910  Biso   1.000  N
  C32      1.0000 0.83350  0.04740  0.21740  Biso   1.000  C
  N53      1.0000 0.63550  0.17250  0.23770  Biso   1.000  N
  C33      1.0000 0.56920  0.15790  0.25470  Biso   1.000  C
  N54      1.0000 0.36890  0.21200  0.28660  Biso   1.000  N
  C34      1.0000 0.43010  0.17750  0.28050  Biso   1.000  C
  N55      1.0000 0.80430  0.84510  0.26110  Biso   1.000  N
  C35      1.0000 0.83090  0.90810  0.24480  Biso   1.000  C
  N56      1.0000 0.74260  0.23530  0.60300  Biso   1.000  N
  C36      1.0000 0.77310  0.22570  0.54250  Biso   1.000  C
  N57      1.0000 0.81040  0.19560  0.47970  Biso   1.000  N
  N58      1.0000 0.82480  0.23750  0.47950  Biso   1.000  N
  N59      1.0000 0.87090  0.97720  0.22530  Biso   1.000  N
  N60      1.0000 0.49710  0.13070  0.27880  Biso   1.000  N
  Ni7      1.0000 0.22891  0.24775  0.77717  Biso   1.000  Ni
  N61      1.0000 0.21910  0.22810  0.65660  Biso   1.000  N
  C37      1.0000 0.21870  0.21340  0.59230  Biso   1.000  C
  N62      1.0000 0.11340  0.19200  0.79090  Biso   1.000  N
  C38      1.0000 0.04740  0.16650  0.78260  Biso   1.000  C
  N63      1.0000 0.17250  0.36450  0.76230  Biso   1.000  N
  C39      1.0000 0.15790  0.43080  0.74530  Biso   1.000  C
  N64      1.0000 0.21200  0.63110  0.71340  Biso   1.000  N
  C40      1.0000 0.17750  0.56990  0.71950  Biso   1.000  C
  N65      1.0000 0.84510  0.19570  0.73890  Biso   1.000  N
  C41      1.0000 0.90810  0.16910  0.75520  Biso   1.000  C
  N66      1.0000 0.23530  0.25740  0.39700  Biso   1.000  N
  C42      1.0000 0.22570  0.22690  0.45750  Biso   1.000  C
  N67      1.0000 0.19560  0.18960  0.52030  Biso   1.000  N
  N68      1.0000 0.23750  0.17520  0.52050  Biso   1.000  N
  N69      1.0000 0.97720  0.12910  0.77470  Biso   1.000  N
  N70      1.0000 0.13070  0.50290  0.72120  Biso   1.000  N
  Ni8      1.0000 0.77109  0.75225  0.77717  Biso   1.000  Ni
  N71      1.0000 0.78090  0.77190  0.65660  Biso   1.000  N
  C43      1.0000 0.78130  0.78660  0.59230  Biso   1.000  C
  N72      1.0000 0.88660  0.80800  0.79090  Biso   1.000  N
  C44      1.0000 0.95260  0.83350  0.78260  Biso   1.000  C
  N73      1.0000 0.82750  0.63550  0.76230  Biso   1.000  N
  C45      1.0000 0.84210  0.56920  0.74530  Biso   1.000  C
  N74      1.0000 0.78800  0.36890  0.71340  Biso   1.000  N
  C46      1.0000 0.82250  0.43010  0.71950  Biso   1.000  C
  N75      1.0000 0.15490  0.80430  0.73890  Biso   1.000  N
  C47      1.0000 0.09190  0.83090  0.75520  Biso   1.000  C
  N76      1.0000 0.76470  0.74260  0.39700  Biso   1.000  N
  C48      1.0000 0.77430  0.77310  0.45750  Biso   1.000  C
  N77      1.0000 0.80440  0.81040  0.52030  Biso   1.000  N
  N78      1.0000 0.76250  0.82480  0.52050  Biso   1.000  N
  N79      1.0000 0.02280  0.87090  0.77470  Biso   1.000  N
  N80      1.0000 0.86930  0.49710  0.72120  Biso   1.000  N
  C49      1.0000 0.07880  0.49590  0.45080  Biso   1.000  C
  H1       1.0000 0.06510  0.50530  0.39490  Biso   1.000  H
  H2       1.0000 0.10220  0.43930  0.45550  Biso   1.000  H
  C50      1.0000 0.14960  0.56270  0.47710  Biso   1.000  C
  H3       1.0000 0.12230  0.61560  0.49160  Biso   1.000  H
  H4       1.0000 0.17870  0.54140  0.52420  Biso   1.000  H
  C51      1.0000 0.21270  0.57930  0.41350  Biso   1.000  C
  H5       1.0000 0.25960  0.61030  0.43560  Biso   1.000  H
  H6       1.0000 0.18690  0.61200  0.37150  Biso   1.000  H
  H7       1.0000 0.23260  0.52640  0.39210  Biso   1.000  H
  C52      1.0000 0.96880  0.57750  0.53110  Biso   1.000  C
  H8       1.0000 0.91790  0.56590  0.56180  Biso   1.000  H
  H9       1.0000 0.95360  0.61570  0.48790  Biso   1.000  H
  C53      1.0000 0.03080  0.61910  0.58290  Biso   1.000  C
  H10      1.0000 0.08360  0.62550  0.55370  Biso   1.000  H
  H11      1.0000 0.04180  0.58310  0.62890  Biso   1.000  H
  C54      1.0000 0.00270  0.70330  0.61130  Biso   1.000  C
  H12      1.0000 0.04900  0.73150  0.63750  Biso   1.000  H
  H13      1.0000 0.95670  0.69660  0.64850  Biso   1.000  H
  H14      1.0000 0.98410  0.73670  0.56650  Biso   1.000  H
  C55      1.0000 0.93070  0.46430  0.44830  Biso   1.000  C
  H15      1.0000 0.91200  0.41600  0.47960  Biso   1.000  H
  H16      1.0000 0.88600  0.50610  0.45410  Biso   1.000  H
  C56      1.0000 0.92140  0.43950  0.37830  Biso   1.000  C
  H17      1.0000 0.93830  0.38040  0.37490  Biso   1.000  H
  H18      1.0000 0.95840  0.47190  0.34350  Biso   1.000  H
  C57      1.0000 0.83290  0.44800  0.34960  Biso   1.000  C
  H19      1.0000 0.82800  0.42350  0.29710  Biso   1.000  H
  H20      1.0000 0.81780  0.50690  0.34730  Biso   1.000  H
  H21      1.0000 0.79540  0.41900  0.38580  Biso   1.000  H
  C58      1.0000 0.00140  0.43080  0.56590  Biso   1.000  C
  H22      1.0000 0.04110  0.44900  0.60670  Biso   1.000  H
  H23      1.0000 0.94560  0.42920  0.59040  Biso   1.000  H
  C59      1.0000 0.02440  0.34220  0.54170  Biso   1.000  C
  H24      1.0000 0.99070  0.32570  0.49560  Biso   1.000  H
  H25      1.0000 0.08360  0.34060  0.52600  Biso   1.000  H
  C60      1.0000 0.01050  0.28150  0.60650  Biso   1.000  C
  H26      1.0000 0.02800  0.22610  0.58940  Biso   1.000  H
  H27      1.0000 0.95130  0.28040  0.62010  Biso   1.000  H
  H28      1.0000 0.04290  0.29810  0.65260  Biso   1.000  H
  C61      1.0000 0.92120  0.50410  0.45080  Biso   1.000  C
  H29      1.0000 0.93490  0.49470  0.39490  Biso   1.000  H
  H30      1.0000 0.89780  0.56070  0.45550  Biso   1.000  H
  C62      1.0000 0.85040  0.43730  0.47710  Biso   1.000  C
  H31      1.0000 0.87770  0.38440  0.49160  Biso   1.000  H
  H32      1.0000 0.82130  0.45860  0.52420  Biso   1.000  H
  C63      1.0000 0.78730  0.42070  0.41350  Biso   1.000  C
  H33      1.0000 0.74040  0.38970  0.43560  Biso   1.000  H
  H34      1.0000 0.81310  0.38800  0.37150  Biso   1.000  H
  H35      1.0000 0.76740  0.47360  0.39210  Biso   1.000  H
  C64      1.0000 0.03120  0.42250  0.53110  Biso   1.000  C
  H36      1.0000 0.08210  0.43410  0.56180  Biso   1.000  H
  H37      1.0000 0.04640  0.38430  0.48790  Biso   1.000  H
  C65      1.0000 0.96920  0.38090  0.58290  Biso   1.000  C
  H38      1.0000 0.91640  0.37450  0.55370  Biso   1.000  H
  H39      1.0000 0.95820  0.41690  0.62890  Biso   1.000  H
  C66      1.0000 0.99730  0.29670  0.61130  Biso   1.000  C
  H40      1.0000 0.95100  0.26850  0.63750  Biso   1.000  H
  H41      1.0000 0.04330  0.30340  0.64850  Biso   1.000  H
  H42      1.0000 0.01590  0.26330  0.56650  Biso   1.000  H
  C67      1.0000 0.06930  0.53570  0.44830  Biso   1.000  C
  H43      1.0000 0.08800  0.58400  0.47960  Biso   1.000  H
  H44      1.0000 0.11400  0.49390  0.45410  Biso   1.000  H
  C68      1.0000 0.07860  0.56050  0.37830  Biso   1.000  C
  H45      1.0000 0.06170  0.61960  0.37490  Biso   1.000  H
  H46      1.0000 0.04160  0.52810  0.34350  Biso   1.000  H
  C69      1.0000 0.16710  0.55200  0.34960  Biso   1.000  C
  H47      1.0000 0.17200  0.57650  0.29710  Biso   1.000  H
  H48      1.0000 0.18220  0.49310  0.34730  Biso   1.000  H
  H49      1.0000 0.20460  0.58100  0.38580  Biso   1.000  H
  C70      1.0000 0.99860  0.56920  0.56590  Biso   1.000  C
  H50      1.0000 0.95890  0.55100  0.60670  Biso   1.000  H
  H51      1.0000 0.05440  0.57080  0.59040  Biso   1.000  H
  C71      1.0000 0.97560  0.65780  0.54170  Biso   1.000  C
  H52      1.0000 0.00930  0.67430  0.49560  Biso   1.000  H
  H53      1.0000 0.91640  0.65940  0.52600  Biso   1.000  H
  C72      1.0000 0.98950  0.71850  0.60650  Biso   1.000  C
  H54      1.0000 0.97200  0.77390  0.58940  Biso   1.000  H
  H55      1.0000 0.04870  0.71960  0.62010  Biso   1.000  H
  H56      1.0000 0.95710  0.70190  0.65260  Biso   1.000  H
  N81      1.0000 0.00000  0.50000  0.49790  Biso   1.000  N
  C73      1.0000 0.49590  0.92120  0.54920  Biso   1.000  C
  H57      1.0000 0.50530  0.93490  0.60510  Biso   1.000  H
  H58      1.0000 0.43930  0.89780  0.54450  Biso   1.000  H
  C74      1.0000 0.56270  0.85040  0.52290  Biso   1.000  C
  H59      1.0000 0.61560  0.87770  0.50840  Biso   1.000  H
  H60      1.0000 0.54140  0.82130  0.47580  Biso   1.000  H
  C75      1.0000 0.57930  0.78730  0.58650  Biso   1.000  C
  H61      1.0000 0.61030  0.74040  0.56440  Biso   1.000  H
  H62      1.0000 0.61200  0.81310  0.62850  Biso   1.000  H
  H63      1.0000 0.52640  0.76740  0.60790  Biso   1.000  H
  C76      1.0000 0.57750  0.03120  0.46890  Biso   1.000  C
  H64      1.0000 0.56590  0.08210  0.43820  Biso   1.000  H
  H65      1.0000 0.61570  0.04640  0.51210  Biso   1.000  H
  C77      1.0000 0.61910  0.96920  0.41710  Biso   1.000  C
  H66      1.0000 0.62550  0.91640  0.44630  Biso   1.000  H
  H67      1.0000 0.58310  0.95820  0.37110  Biso   1.000  H
  C78      1.0000 0.70330  0.99730  0.38870  Biso   1.000  C
  H68      1.0000 0.73150  0.95100  0.36250  Biso   1.000  H
  H69      1.0000 0.69660  0.04330  0.35150  Biso   1.000  H
  H70      1.0000 0.73670  0.01590  0.43350  Biso   1.000  H
  C79      1.0000 0.46430  0.06930  0.55170  Biso   1.000  C
  H71      1.0000 0.41600  0.08800  0.52040  Biso   1.000  H
  H72      1.0000 0.50610  0.11400  0.54590  Biso   1.000  H
  C80      1.0000 0.43950  0.07860  0.62170  Biso   1.000  C
  H73      1.0000 0.38040  0.06170  0.62510  Biso   1.000  H
  H74      1.0000 0.47190  0.04160  0.65650  Biso   1.000  H
  C81      1.0000 0.44800  0.16710  0.65040  Biso   1.000  C
  H75      1.0000 0.42350  0.17200  0.70290  Biso   1.000  H
  H76      1.0000 0.50690  0.18220  0.65270  Biso   1.000  H
  H77      1.0000 0.41900  0.20460  0.61420  Biso   1.000  H
  C82      1.0000 0.43080  0.99860  0.43410  Biso   1.000  C
  H78      1.0000 0.44900  0.95890  0.39330  Biso   1.000  H
  H79      1.0000 0.42920  0.05440  0.40960  Biso   1.000  H
  C83      1.0000 0.34220  0.97560  0.45830  Biso   1.000  C
  H80      1.0000 0.32570  0.00930  0.50440  Biso   1.000  H
  H81      1.0000 0.34060  0.91640  0.47400  Biso   1.000  H
  C84      1.0000 0.28150  0.98950  0.39350  Biso   1.000  C
  H82      1.0000 0.22610  0.97200  0.41060  Biso   1.000  H
  H83      1.0000 0.28040  0.04870  0.37990  Biso   1.000  H
  H84      1.0000 0.29810  0.95710  0.34740  Biso   1.000  H
  C85      1.0000 0.50410  0.07880  0.54920  Biso   1.000  C
  H85      1.0000 0.49470  0.06510  0.60510  Biso   1.000  H
  H86      1.0000 0.56070  0.10220  0.54450  Biso   1.000  H
  C86      1.0000 0.43730  0.14960  0.52290  Biso   1.000  C
  H87      1.0000 0.38440  0.12230  0.50840  Biso   1.000  H
  H88      1.0000 0.45860  0.17870  0.47580  Biso   1.000  H
  C87      1.0000 0.42070  0.21270  0.58650  Biso   1.000  C
  H89      1.0000 0.38970  0.25960  0.56440  Biso   1.000  H
  H90      1.0000 0.38800  0.18690  0.62850  Biso   1.000  H
  H91      1.0000 0.47360  0.23260  0.60790  Biso   1.000  H
  C88      1.0000 0.42250  0.96880  0.46890  Biso   1.000  C
  H92      1.0000 0.43410  0.91790  0.43820  Biso   1.000  H
  H93      1.0000 0.38430  0.95360  0.51210  Biso   1.000  H
  C89      1.0000 0.38090  0.03080  0.41710  Biso   1.000  C
  H94      1.0000 0.37450  0.08360  0.44630  Biso   1.000  H
  H95      1.0000 0.41690  0.04180  0.37110  Biso   1.000  H
  C90      1.0000 0.29670  0.00270  0.38870  Biso   1.000  C
  H96      1.0000 0.26850  0.04900  0.36250  Biso   1.000  H
  H97      1.0000 0.30340  0.95670  0.35150  Biso   1.000  H
  H98      1.0000 0.26330  0.98410  0.43350  Biso   1.000  H
  C91      1.0000 0.53570  0.93070  0.55170  Biso   1.000  C
  H99      1.0000 0.58400  0.91200  0.52040  Biso   1.000  H
  H100     1.0000 0.49390  0.88600  0.54590  Biso   1.000  H
  C92      1.0000 0.56050  0.92140  0.62170  Biso   1.000  C
  H101     1.0000 0.61960  0.93830  0.62510  Biso   1.000  H
  H102     1.0000 0.52810  0.95840  0.65650  Biso   1.000  H
  C93      1.0000 0.55200  0.83290  0.65040  Biso   1.000  C
  H103     1.0000 0.57650  0.82800  0.70290  Biso   1.000  H
  H104     1.0000 0.49310  0.81780  0.65270  Biso   1.000  H
  H105     1.0000 0.58100  0.79540  0.61420  Biso   1.000  H
  C94      1.0000 0.56920  0.00140  0.43410  Biso   1.000  C
  H106     1.0000 0.55100  0.04110  0.39330  Biso   1.000  H
  H107     1.0000 0.57080  0.94560  0.40960  Biso   1.000  H
  C95      1.0000 0.65780  0.02440  0.45830  Biso   1.000  C
  H108     1.0000 0.67430  0.99070  0.50440  Biso   1.000  H
  H109     1.0000 0.65940  0.08360  0.47400  Biso   1.000  H
  C96      1.0000 0.71850  0.01050  0.39350  Biso   1.000  C
  H110     1.0000 0.77390  0.02800  0.41060  Biso   1.000  H
  H111     1.0000 0.71960  0.95130  0.37990  Biso   1.000  H
  H112     1.0000 0.70190  0.04290  0.34740  Biso   1.000  H
  N82      1.0000 0.50000  0.00000  0.50210  Biso   1.000  N
  C97      1.0000 0.42120  0.99590  0.04920  Biso   1.000  C
  H113     1.0000 0.43490  0.00530  0.10510  Biso   1.000  H
  H114     1.0000 0.39780  0.93930  0.04450  Biso   1.000  H
  C98      1.0000 0.35040  0.06270  0.02290  Biso   1.000  C
  H115     1.0000 0.37770  0.11560  0.00840  Biso   1.000  H
  H116     1.0000 0.32130  0.04140  0.97580  Biso   1.000  H
  C99      1.0000 0.28730  0.07930  0.08650  Biso   1.000  C
  H117     1.0000 0.24040  0.11030  0.06440  Biso   1.000  H
  H118     1.0000 0.31310  0.11200  0.12850  Biso   1.000  H
  H119     1.0000 0.26740  0.02640  0.10790  Biso   1.000  H
  C100     1.0000 0.53120  0.07750  0.96890  Biso   1.000  C
  H120     1.0000 0.58210  0.06590  0.93820  Biso   1.000  H
  H121     1.0000 0.54640  0.11570  0.01210  Biso   1.000  H
  C101     1.0000 0.46920  0.11910  0.91710  Biso   1.000  C
  H122     1.0000 0.41640  0.12550  0.94630  Biso   1.000  H
  H123     1.0000 0.45820  0.08310  0.87110  Biso   1.000  H
  C102     1.0000 0.49730  0.20330  0.88870  Biso   1.000  C
  H124     1.0000 0.45100  0.23150  0.86250  Biso   1.000  H
  H125     1.0000 0.54330  0.19660  0.85150  Biso   1.000  H
  H126     1.0000 0.51590  0.23670  0.93350  Biso   1.000  H
  C103     1.0000 0.56930  0.96430  0.05170  Biso   1.000  C
  H127     1.0000 0.58800  0.91600  0.02040  Biso   1.000  H
  H128     1.0000 0.61400  0.00610  0.04590  Biso   1.000  H
  C104     1.0000 0.57860  0.93950  0.12170  Biso   1.000  C
  H129     1.0000 0.56170  0.88040  0.12510  Biso   1.000  H
  H130     1.0000 0.54160  0.97190  0.15650  Biso   1.000  H
  C105     1.0000 0.66710  0.94800  0.15040  Biso   1.000  C
  H131     1.0000 0.67200  0.92350  0.20290  Biso   1.000  H
  H132     1.0000 0.68220  0.00690  0.15270  Biso   1.000  H
  H133     1.0000 0.70460  0.91900  0.11420  Biso   1.000  H
  C106     1.0000 0.49860  0.93080  0.93410  Biso   1.000  C
  H134     1.0000 0.45890  0.94900  0.89330  Biso   1.000  H
  H135     1.0000 0.55440  0.92920  0.90960  Biso   1.000  H
  C107     1.0000 0.47560  0.84220  0.95830  Biso   1.000  C
  H136     1.0000 0.50930  0.82570  0.00440  Biso   1.000  H
  H137     1.0000 0.41640  0.84060  0.97400  Biso   1.000  H
  C108     1.0000 0.48950  0.78150  0.89350  Biso   1.000  C
  H138     1.0000 0.47200  0.72610  0.91060  Biso   1.000  H
  H139     1.0000 0.54870  0.78040  0.87990  Biso   1.000  H
  H140     1.0000 0.45710  0.79810  0.84740  Biso   1.000  H
  C109     1.0000 0.57880  0.00410  0.04920  Biso   1.000  C
  H141     1.0000 0.56510  0.99470  0.10510  Biso   1.000  H
  H142     1.0000 0.60220  0.06070  0.04450  Biso   1.000  H
  C110     1.0000 0.64960  0.93730  0.02290  Biso   1.000  C
  H143     1.0000 0.62230  0.88440  0.00840  Biso   1.000  H
  H144     1.0000 0.67870  0.95860  0.97580  Biso   1.000  H
  C111     1.0000 0.71270  0.92070  0.08650  Biso   1.000  C
  H145     1.0000 0.75960  0.88970  0.06440  Biso   1.000  H
  H146     1.0000 0.68690  0.88800  0.12850  Biso   1.000  H
  H147     1.0000 0.73260  0.97360  0.10790  Biso   1.000  H
  C112     1.0000 0.46880  0.92250  0.96890  Biso   1.000  C
  H148     1.0000 0.41790  0.93410  0.93820  Biso   1.000  H
  H149     1.0000 0.45360  0.88430  0.01210  Biso   1.000  H
  C113     1.0000 0.53080  0.88090  0.91710  Biso   1.000  C
  H150     1.0000 0.58360  0.87450  0.94630  Biso   1.000  H
  H151     1.0000 0.54180  0.91690  0.87110  Biso   1.000  H
  C114     1.0000 0.50270  0.79670  0.88870  Biso   1.000  C
  H152     1.0000 0.54900  0.76850  0.86250  Biso   1.000  H
  H153     1.0000 0.45670  0.80340  0.85150  Biso   1.000  H
  H154     1.0000 0.48410  0.76330  0.93350  Biso   1.000  H
  C115     1.0000 0.43070  0.03570  0.05170  Biso   1.000  C
  H155     1.0000 0.41200  0.08400  0.02040  Biso   1.000  H
  H156     1.0000 0.38600  0.99390  0.04590  Biso   1.000  H
  C116     1.0000 0.42140  0.06050  0.12170  Biso   1.000  C
  H157     1.0000 0.43830  0.11960  0.12510  Biso   1.000  H
  H158     1.0000 0.45840  0.02810  0.15650  Biso   1.000  H
  C117     1.0000 0.33290  0.05200  0.15040  Biso   1.000  C
  H159     1.0000 0.32800  0.07650  0.20290  Biso   1.000  H
  H160     1.0000 0.31780  0.99310  0.15270  Biso   1.000  H
  H161     1.0000 0.29540  0.08100  0.11420  Biso   1.000  H
  C118     1.0000 0.50140  0.06920  0.93410  Biso   1.000  C
  H162     1.0000 0.54110  0.05100  0.89330  Biso   1.000  H
  H163     1.0000 0.44560  0.07080  0.90960  Biso   1.000  H
  C119     1.0000 0.52440  0.15780  0.95830  Biso   1.000  C
  H164     1.0000 0.49070  0.17430  0.00440  Biso   1.000  H
  H165     1.0000 0.58360  0.15940  0.97400  Biso   1.000  H
  C120     1.0000 0.51050  0.21850  0.89350  Biso   1.000  C
  H166     1.0000 0.52800  0.27390  0.91060  Biso   1.000  H
  H167     1.0000 0.45130  0.21960  0.87990  Biso   1.000  H
  H168     1.0000 0.54290  0.20190  0.84740  Biso   1.000  H
  N83      1.0000 0.50000  0.00000  0.00210  Biso   1.000  N
  C121     1.0000 0.00410  0.42120  0.95080  Biso   1.000  C
  H169     1.0000 0.99470  0.43490  0.89490  Biso   1.000  H
  H170     1.0000 0.06070  0.39780  0.95550  Biso   1.000  H
  C122     1.0000 0.93730  0.35040  0.97710  Biso   1.000  C
  H171     1.0000 0.88440  0.37770  0.99160  Biso   1.000  H
  H172     1.0000 0.95860  0.32130  0.02420  Biso   1.000  H
  C123     1.0000 0.92070  0.28730  0.91350  Biso   1.000  C
  H173     1.0000 0.88970  0.24040  0.93560  Biso   1.000  H
  H174     1.0000 0.88800  0.31310  0.87150  Biso   1.000  H
  H175     1.0000 0.97360  0.26740  0.89210  Biso   1.000  H
  C124     1.0000 0.92250  0.53120  0.03110  Biso   1.000  C
  H176     1.0000 0.93410  0.58210  0.06180  Biso   1.000  H
  H177     1.0000 0.88430  0.54640  0.98790  Biso   1.000  H
  C125     1.0000 0.88090  0.46920  0.08290  Biso   1.000  C
  H178     1.0000 0.87450  0.41640  0.05370  Biso   1.000  H
  H179     1.0000 0.91690  0.45820  0.12890  Biso   1.000  H
  C126     1.0000 0.79670  0.49730  0.11130  Biso   1.000  C
  H180     1.0000 0.76850  0.45100  0.13750  Biso   1.000  H
  H181     1.0000 0.80340  0.54330  0.14850  Biso   1.000  H
  H182     1.0000 0.76330  0.51590  0.06650  Biso   1.000  H
  C127     1.0000 0.03570  0.56930  0.94830  Biso   1.000  C
  H183     1.0000 0.08400  0.58800  0.97960  Biso   1.000  H
  H184     1.0000 0.99390  0.61400  0.95410  Biso   1.000  H
  C128     1.0000 0.06050  0.57860  0.87830  Biso   1.000  C
  H185     1.0000 0.11960  0.56170  0.87490  Biso   1.000  H
  H186     1.0000 0.02810  0.54160  0.84350  Biso   1.000  H
  C129     1.0000 0.05200  0.66710  0.84960  Biso   1.000  C
  H187     1.0000 0.07650  0.67200  0.79710  Biso   1.000  H
  H188     1.0000 0.99310  0.68220  0.84730  Biso   1.000  H
  H189     1.0000 0.08100  0.70460  0.88580  Biso   1.000  H
  C130     1.0000 0.06920  0.49860  0.06590  Biso   1.000  C
  H190     1.0000 0.05100  0.45890  0.10670  Biso   1.000  H
  H191     1.0000 0.07080  0.55440  0.09040  Biso   1.000  H
  C131     1.0000 0.15780  0.47560  0.04170  Biso   1.000  C
  H192     1.0000 0.17430  0.50930  0.99560  Biso   1.000  H
  H193     1.0000 0.15940  0.41640  0.02600  Biso   1.000  H
  C132     1.0000 0.21850  0.48950  0.10650  Biso   1.000  C
  H194     1.0000 0.27390  0.47200  0.08940  Biso   1.000  H
  H195     1.0000 0.21960  0.54870  0.12010  Biso   1.000  H
  H196     1.0000 0.20190  0.45710  0.15260  Biso   1.000  H
  C133     1.0000 0.99590  0.57880  0.95080  Biso   1.000  C
  H197     1.0000 0.00530  0.56510  0.89490  Biso   1.000  H
  H198     1.0000 0.93930  0.60220  0.95550  Biso   1.000  H
  C134     1.0000 0.06270  0.64960  0.97710  Biso   1.000  C
  H199     1.0000 0.11560  0.62230  0.99160  Biso   1.000  H
  H200     1.0000 0.04140  0.67870  0.02420  Biso   1.000  H
  C135     1.0000 0.07930  0.71270  0.91350  Biso   1.000  C
  H201     1.0000 0.11030  0.75960  0.93560  Biso   1.000  H
  H202     1.0000 0.11200  0.68690  0.87150  Biso   1.000  H
  H203     1.0000 0.02640  0.73260  0.89210  Biso   1.000  H
  C136     1.0000 0.07750  0.46880  0.03110  Biso   1.000  C
  H204     1.0000 0.06590  0.41790  0.06180  Biso   1.000  H
  H205     1.0000 0.11570  0.45360  0.98790  Biso   1.000  H
  C137     1.0000 0.11910  0.53080  0.08290  Biso   1.000  C
  H206     1.0000 0.12550  0.58360  0.05370  Biso   1.000  H
  H207     1.0000 0.08310  0.54180  0.12890  Biso   1.000  H
  C138     1.0000 0.20330  0.50270  0.11130  Biso   1.000  C
  H208     1.0000 0.23150  0.54900  0.13750  Biso   1.000  H
  H209     1.0000 0.19660  0.45670  0.14850  Biso   1.000  H
  H210     1.0000 0.23670  0.48410  0.06650  Biso   1.000  H
  C139     1.0000 0.96430  0.43070  0.94830  Biso   1.000  C
  H211     1.0000 0.91600  0.41200  0.97960  Biso   1.000  H
  H212     1.0000 0.00610  0.38600  0.95410  Biso   1.000  H
  C140     1.0000 0.93950  0.42140  0.87830  Biso   1.000  C
  H213     1.0000 0.88040  0.43830  0.87490  Biso   1.000  H
  H214     1.0000 0.97190  0.45840  0.84350  Biso   1.000  H
  C141     1.0000 0.94800  0.33290  0.84960  Biso   1.000  C
  H215     1.0000 0.92350  0.32800  0.79710  Biso   1.000  H
  H216     1.0000 0.00690  0.31780  0.84730  Biso   1.000  H
  H217     1.0000 0.91900  0.29540  0.88580  Biso   1.000  H
  C142     1.0000 0.93080  0.50140  0.06590  Biso   1.000  C
  H218     1.0000 0.94900  0.54110  0.10670  Biso   1.000  H
  H219     1.0000 0.92920  0.44560  0.09040  Biso   1.000  H
  C143     1.0000 0.84220  0.52440  0.04170  Biso   1.000  C
  H220     1.0000 0.82570  0.49070  0.99560  Biso   1.000  H
  H221     1.0000 0.84060  0.58360  0.02600  Biso   1.000  H
  C144     1.0000 0.78150  0.51050  0.10650  Biso   1.000  C
  H222     1.0000 0.72610  0.52800  0.08940  Biso   1.000  H
  H223     1.0000 0.78040  0.45130  0.12010  Biso   1.000  H
  H224     1.0000 0.79810  0.54290  0.15260  Biso   1.000  H
  N84      1.0000 0.00000  0.50000  0.99790  Biso   1.000  N
