data_image0
_cell_length_a       14.107
_cell_length_b       15.163
_cell_length_c       17.765
_cell_angle_alpha    90
_cell_angle_beta     111.025
_cell_angle_gamma    90

_symmetry_space_group_name_H-M    "P 1"
_symmetry_int_tables_number       1

loop_
  _symmetry_equiv_pos_as_xyz
  'x, y, z'

loop_
  _atom_site_label
  _atom_site_occupancy
  _atom_site_fract_x
  _atom_site_fract_y
  _atom_site_fract_z
  _atom_site_thermal_displace_type
  _atom_site_B_iso_or_equiv
  _atom_site_type_symbol
  Mn1      1.0000 0.65196  0.17218  0.44483  Biso   1.000  Mn
  Mn2      1.0000 0.61865  0.40549  0.37389  Biso   1.000  Mn
  O1       1.0000 0.14650  0.26460  0.83510  Biso   1.000  O
  O2       1.0000 0.02820  0.16720  0.76690  Biso   1.000  O
  O3       1.0000 0.76800  0.39150  0.46020  Biso   1.000  O
  O4       1.0000 0.76750  0.25830  0.51230  Biso   1.000  O
  O5       1.0000 0.53700  0.35360  0.44240  Biso   1.000  O
  O6       1.0000 0.49700  0.21110  0.42190  Biso   1.000  O
  O7       1.0000 0.27530  0.57060  0.45020  Biso   1.000  O
  O8       1.0000 0.11750  0.52710  0.40980  Biso   1.000  O
  C1       1.0000 0.07080  0.24200  0.77370  Biso   1.000  C
  C2       1.0000 0.02800  0.30700  0.70750  Biso   1.000  C
  C3       1.0000 0.94170  0.29030  0.64250  Biso   1.000  C
  H1       1.0000 0.90840  0.23690  0.64020  Biso   1.000  H
  C4       1.0000 0.90130  0.35060  0.57910  Biso   1.000  C
  C5       1.0000 0.95080  0.43150  0.58310  Biso   1.000  C
  H2       1.0000 0.92360  0.47350  0.54290  Biso   1.000  H
  C6       1.0000 0.04060  0.44930  0.64690  Biso   1.000  C
  C7       1.0000 0.07900  0.38510  0.71060  Biso   1.000  C
  H3       1.0000 0.13850  0.39660  0.75400  Biso   1.000  H
  C8       1.0000 0.80200  0.33230  0.51160  Biso   1.000  C
  C9       1.0000 0.09490  0.53230  0.64840  Biso   1.000  C
  C10      1.0000 0.14560  0.58180  0.71780  Biso   1.000  C
  H4       1.0000 0.14300  0.56420  0.76720  Biso   1.000  H
  C11      1.0000 0.19820  0.65540  0.71360  Biso   1.000  C
  H5       1.0000 0.23420  0.68690  0.76000  Biso   1.000  H
  C12      1.0000 0.19750  0.68290  0.63860  Biso   1.000  C
  H6       1.0000 0.23150  0.73460  0.63570  Biso   1.000  H
  C13      1.0000 0.10040  0.56420  0.57680  Biso   1.000  C
  H7       1.0000 0.06770  0.53220  0.53000  Biso   1.000  H
  C14      1.0000 0.19780  0.26120  0.40940  Biso   1.000  C
  C15      1.0000 0.17020  0.34980  0.41550  Biso   1.000  C
  H8       1.0000 0.10140  0.36440  0.40860  Biso   1.000  H
  C16      1.0000 0.29820  0.24380  0.42100  Biso   1.000  C
  H9       1.0000 0.31840  0.18350  0.42000  Biso   1.000  H
  C17      1.0000 0.97580  0.05370  0.35980  Biso   1.000  C
  H10      1.0000 0.92790  0.00870  0.34880  Biso   1.000  H
  N1       1.0000 0.07640  0.03410  0.37190  Biso   1.000  N
  C18      1.0000 0.14800  0.10140  0.38830  Biso   1.000  C
  H11      1.0000 0.21750  0.08780  0.39670  Biso   1.000  H
  C19      1.0000 0.11880  0.18820  0.39270  Biso   1.000  C
  C20      1.0000 0.01820  0.20780  0.38060  Biso   1.000  C
  H12      1.0000 0.99870  0.26590  0.38350  Biso   1.000  H
  C21      1.0000 0.94660  0.14060  0.36420  Biso   1.000  C
  H13      1.0000 0.87930  0.15370  0.35610  Biso   1.000  H
  C22      1.0000 0.24520  0.41740  0.43230  Biso   1.000  C
  C23      1.0000 0.34230  0.39750  0.43360  Biso   1.000  C
  H14      1.0000 0.38700  0.44270  0.43390  Biso   1.000  H
  C24      1.0000 0.37200  0.31010  0.43440  Biso   1.000  C
  C25      1.0000 0.20840  0.51100  0.43170  Biso   1.000  C
  C26      1.0000 0.47730  0.28950  0.43280  Biso   1.000  C
  N2       1.0000 0.14990  0.63830  0.57040  Biso   1.000  N
  C27      1.0000 0.22840  0.26380  0.46300  Biso   1.000  C
  C28      1.0000 0.19190  0.35060  0.45230  Biso   1.000  C
  H15      1.0000 0.12870  0.36390  0.45870  Biso   1.000  H
  C29      1.0000 0.32050  0.24430  0.45580  Biso   1.000  C
  H16      1.0000 0.34780  0.18570  0.46570  Biso   1.000  H
  C30      1.0000 0.07260  0.04390  0.51140  Biso   1.000  C
  H17      1.0000 0.04040  0.99500  0.52300  Biso   1.000  H
  N3       1.0000 0.12510  0.03610  0.45880  Biso   1.000  N
  C31      1.0000 0.17320  0.10920  0.44160  Biso   1.000  C
  H18      1.0000 0.20950  0.10380  0.40530  Biso   1.000  H
  C32      1.0000 0.16880  0.19010  0.47690  Biso   1.000  C
  C33      1.0000 0.11630  0.19800  0.52950  Biso   1.000  C
  H19      1.0000 0.11340  0.25210  0.55320  Biso   1.000  H
  C34      1.0000 0.06820  0.12490  0.54680  Biso   1.000  C
  H20      1.0000 0.03310  0.13010  0.58200  Biso   1.000  H
  Mn3      1.0000 0.15196  0.67218  0.44483  Biso   1.000  Mn
  Mn4      1.0000 0.11865  0.90549  0.37389  Biso   1.000  Mn
  O9       1.0000 0.64650  0.76460  0.83510  Biso   1.000  O
  O10      1.0000 0.52820  0.66720  0.76690  Biso   1.000  O
  O11      1.0000 0.26800  0.89150  0.46020  Biso   1.000  O
  O12      1.0000 0.26750  0.75830  0.51230  Biso   1.000  O
  O13      1.0000 0.03700  0.85360  0.44240  Biso   1.000  O
  O14      1.0000 0.99700  0.71110  0.42190  Biso   1.000  O
  O15      1.0000 0.77530  0.07060  0.45020  Biso   1.000  O
  O16      1.0000 0.61750  0.02710  0.40980  Biso   1.000  O
  C35      1.0000 0.57080  0.74200  0.77370  Biso   1.000  C
  C36      1.0000 0.52800  0.80700  0.70750  Biso   1.000  C
  C37      1.0000 0.44170  0.79030  0.64250  Biso   1.000  C
  H21      1.0000 0.40840  0.73690  0.64020  Biso   1.000  H
  C38      1.0000 0.40130  0.85060  0.57910  Biso   1.000  C
  C39      1.0000 0.45080  0.93150  0.58310  Biso   1.000  C
  H22      1.0000 0.42360  0.97350  0.54290  Biso   1.000  H
  C40      1.0000 0.54060  0.94930  0.64690  Biso   1.000  C
  C41      1.0000 0.57900  0.88510  0.71060  Biso   1.000  C
  H23      1.0000 0.63850  0.89660  0.75400  Biso   1.000  H
  C42      1.0000 0.30200  0.83230  0.51160  Biso   1.000  C
  C43      1.0000 0.59490  0.03230  0.64840  Biso   1.000  C
  C44      1.0000 0.64560  0.08180  0.71780  Biso   1.000  C
  H24      1.0000 0.64300  0.06420  0.76720  Biso   1.000  H
  C45      1.0000 0.69820  0.15540  0.71360  Biso   1.000  C
  H25      1.0000 0.73420  0.18690  0.76000  Biso   1.000  H
  C46      1.0000 0.69750  0.18290  0.63860  Biso   1.000  C
  H26      1.0000 0.73150  0.23460  0.63570  Biso   1.000  H
  C47      1.0000 0.60040  0.06420  0.57680  Biso   1.000  C
  H27      1.0000 0.56770  0.03220  0.53000  Biso   1.000  H
  C48      1.0000 0.69780  0.76120  0.40940  Biso   1.000  C
  C49      1.0000 0.67020  0.84980  0.41550  Biso   1.000  C
  H28      1.0000 0.60140  0.86440  0.40860  Biso   1.000  H
  C50      1.0000 0.79820  0.74380  0.42100  Biso   1.000  C
  H29      1.0000 0.81840  0.68350  0.42000  Biso   1.000  H
  C51      1.0000 0.47580  0.55370  0.35980  Biso   1.000  C
  H30      1.0000 0.42790  0.50870  0.34880  Biso   1.000  H
  N4       1.0000 0.57640  0.53410  0.37190  Biso   1.000  N
  C52      1.0000 0.64800  0.60140  0.38830  Biso   1.000  C
  H31      1.0000 0.71750  0.58780  0.39670  Biso   1.000  H
  C53      1.0000 0.61880  0.68820  0.39270  Biso   1.000  C
  C54      1.0000 0.51820  0.70780  0.38060  Biso   1.000  C
  H32      1.0000 0.49870  0.76590  0.38350  Biso   1.000  H
  C55      1.0000 0.44660  0.64060  0.36420  Biso   1.000  C
  H33      1.0000 0.37930  0.65370  0.35610  Biso   1.000  H
  C56      1.0000 0.74520  0.91740  0.43230  Biso   1.000  C
  C57      1.0000 0.84230  0.89750  0.43360  Biso   1.000  C
  H34      1.0000 0.88700  0.94270  0.43390  Biso   1.000  H
  C58      1.0000 0.87200  0.81010  0.43440  Biso   1.000  C
  C59      1.0000 0.70840  0.01100  0.43170  Biso   1.000  C
  C60      1.0000 0.97730  0.78950  0.43280  Biso   1.000  C
  N5       1.0000 0.64990  0.13830  0.57040  Biso   1.000  N
  C61      1.0000 0.72840  0.76380  0.46300  Biso   1.000  C
  C62      1.0000 0.69190  0.85060  0.45230  Biso   1.000  C
  H35      1.0000 0.62870  0.86390  0.45870  Biso   1.000  H
  C63      1.0000 0.82050  0.74430  0.45580  Biso   1.000  C
  H36      1.0000 0.84780  0.68570  0.46570  Biso   1.000  H
  C64      1.0000 0.57260  0.54390  0.51140  Biso   1.000  C
  H37      1.0000 0.54040  0.49500  0.52300  Biso   1.000  H
  N6       1.0000 0.62510  0.53610  0.45880  Biso   1.000  N
  C65      1.0000 0.67320  0.60920  0.44160  Biso   1.000  C
  H38      1.0000 0.70950  0.60380  0.40530  Biso   1.000  H
  C66      1.0000 0.66880  0.69010  0.47690  Biso   1.000  C
  C67      1.0000 0.61630  0.69800  0.52950  Biso   1.000  C
  H39      1.0000 0.61340  0.75210  0.55320  Biso   1.000  H
  C68      1.0000 0.56820  0.62490  0.54680  Biso   1.000  C
  H40      1.0000 0.53310  0.63010  0.58200  Biso   1.000  H
  Mn5      1.0000 0.65196  0.82782  0.94483  Biso   1.000  Mn
  Mn6      1.0000 0.61865  0.59451  0.87389  Biso   1.000  Mn
  O17      1.0000 0.14650  0.73540  0.33510  Biso   1.000  O
  O18      1.0000 0.02820  0.83280  0.26690  Biso   1.000  O
  O19      1.0000 0.76800  0.60850  0.96020  Biso   1.000  O
  O20      1.0000 0.76750  0.74170  0.01230  Biso   1.000  O
  O21      1.0000 0.53700  0.64640  0.94240  Biso   1.000  O
  O22      1.0000 0.49700  0.78890  0.92190  Biso   1.000  O
  O23      1.0000 0.27530  0.42940  0.95020  Biso   1.000  O
  O24      1.0000 0.11750  0.47290  0.90980  Biso   1.000  O
  C69      1.0000 0.07080  0.75800  0.27370  Biso   1.000  C
  C70      1.0000 0.02800  0.69300  0.20750  Biso   1.000  C
  C71      1.0000 0.94170  0.70970  0.14250  Biso   1.000  C
  H41      1.0000 0.90840  0.76310  0.14020  Biso   1.000  H
  C72      1.0000 0.90130  0.64940  0.07910  Biso   1.000  C
  C73      1.0000 0.95080  0.56850  0.08310  Biso   1.000  C
  H42      1.0000 0.92360  0.52650  0.04290  Biso   1.000  H
  C74      1.0000 0.04060  0.55070  0.14690  Biso   1.000  C
  C75      1.0000 0.07900  0.61490  0.21060  Biso   1.000  C
  H43      1.0000 0.13850  0.60340  0.25400  Biso   1.000  H
  C76      1.0000 0.80200  0.66770  0.01160  Biso   1.000  C
  C77      1.0000 0.09490  0.46770  0.14840  Biso   1.000  C
  C78      1.0000 0.14560  0.41820  0.21780  Biso   1.000  C
  H44      1.0000 0.14300  0.43580  0.26720  Biso   1.000  H
  C79      1.0000 0.19820  0.34460  0.21360  Biso   1.000  C
  H45      1.0000 0.23420  0.31310  0.26000  Biso   1.000  H
  C80      1.0000 0.19750  0.31710  0.13860  Biso   1.000  C
  H46      1.0000 0.23150  0.26540  0.13570  Biso   1.000  H
  C81      1.0000 0.10040  0.43580  0.07680  Biso   1.000  C
  H47      1.0000 0.06770  0.46780  0.03000  Biso   1.000  H
  C82      1.0000 0.19780  0.73880  0.90940  Biso   1.000  C
  C83      1.0000 0.17020  0.65020  0.91550  Biso   1.000  C
  H48      1.0000 0.10140  0.63560  0.90860  Biso   1.000  H
  C84      1.0000 0.29820  0.75620  0.92100  Biso   1.000  C
  H49      1.0000 0.31840  0.81650  0.92000  Biso   1.000  H
  C85      1.0000 0.97580  0.94630  0.85980  Biso   1.000  C
  H50      1.0000 0.92790  0.99130  0.84880  Biso   1.000  H
  N7       1.0000 0.07640  0.96590  0.87190  Biso   1.000  N
  C86      1.0000 0.14800  0.89860  0.88830  Biso   1.000  C
  H51      1.0000 0.21750  0.91220  0.89670  Biso   1.000  H
  C87      1.0000 0.11880  0.81180  0.89270  Biso   1.000  C
  C88      1.0000 0.01820  0.79220  0.88060  Biso   1.000  C
  H52      1.0000 0.99870  0.73410  0.88350  Biso   1.000  H
  C89      1.0000 0.94660  0.85940  0.86420  Biso   1.000  C
  H53      1.0000 0.87930  0.84630  0.85610  Biso   1.000  H
  C90      1.0000 0.24520  0.58260  0.93230  Biso   1.000  C
  C91      1.0000 0.34230  0.60250  0.93360  Biso   1.000  C
  H54      1.0000 0.38700  0.55730  0.93390  Biso   1.000  H
  C92      1.0000 0.37200  0.68990  0.93440  Biso   1.000  C
  C93      1.0000 0.20840  0.48900  0.93170  Biso   1.000  C
  C94      1.0000 0.47730  0.71050  0.93280  Biso   1.000  C
  N8       1.0000 0.14990  0.36170  0.07040  Biso   1.000  N
  C95      1.0000 0.22840  0.73620  0.96300  Biso   1.000  C
  C96      1.0000 0.19190  0.64940  0.95230  Biso   1.000  C
  H55      1.0000 0.12870  0.63610  0.95870  Biso   1.000  H
  C97      1.0000 0.32050  0.75570  0.95580  Biso   1.000  C
  H56      1.0000 0.34780  0.81430  0.96570  Biso   1.000  H
  C98      1.0000 0.07260  0.95610  0.01140  Biso   1.000  C
  H57      1.0000 0.04040  0.00500  0.02300  Biso   1.000  H
  N9       1.0000 0.12510  0.96390  0.95880  Biso   1.000  N
  C99      1.0000 0.17320  0.89080  0.94160  Biso   1.000  C
  H58      1.0000 0.20950  0.89620  0.90530  Biso   1.000  H
  C100     1.0000 0.16880  0.80990  0.97690  Biso   1.000  C
  C101     1.0000 0.11630  0.80200  0.02950  Biso   1.000  C
  H59      1.0000 0.11340  0.74790  0.05320  Biso   1.000  H
  C102     1.0000 0.06820  0.87510  0.04680  Biso   1.000  C
  H60      1.0000 0.03310  0.86990  0.08200  Biso   1.000  H
  Mn7      1.0000 0.15196  0.32782  0.94483  Biso   1.000  Mn
  Mn8      1.0000 0.11865  0.09451  0.87389  Biso   1.000  Mn
  O25      1.0000 0.64650  0.23540  0.33510  Biso   1.000  O
  O26      1.0000 0.52820  0.33280  0.26690  Biso   1.000  O
  O27      1.0000 0.26800  0.10850  0.96020  Biso   1.000  O
  O28      1.0000 0.26750  0.24170  0.01230  Biso   1.000  O
  O29      1.0000 0.03700  0.14640  0.94240  Biso   1.000  O
  O30      1.0000 0.99700  0.28890  0.92190  Biso   1.000  O
  O31      1.0000 0.77530  0.92940  0.95020  Biso   1.000  O
  O32      1.0000 0.61750  0.97290  0.90980  Biso   1.000  O
  C103     1.0000 0.57080  0.25800  0.27370  Biso   1.000  C
  C104     1.0000 0.52800  0.19300  0.20750  Biso   1.000  C
  C105     1.0000 0.44170  0.20970  0.14250  Biso   1.000  C
  H61      1.0000 0.40840  0.26310  0.14020  Biso   1.000  H
  C106     1.0000 0.40130  0.14940  0.07910  Biso   1.000  C
  C107     1.0000 0.45080  0.06850  0.08310  Biso   1.000  C
  H62      1.0000 0.42360  0.02650  0.04290  Biso   1.000  H
  C108     1.0000 0.54060  0.05070  0.14690  Biso   1.000  C
  C109     1.0000 0.57900  0.11490  0.21060  Biso   1.000  C
  H63      1.0000 0.63850  0.10340  0.25400  Biso   1.000  H
  C110     1.0000 0.30200  0.16770  0.01160  Biso   1.000  C
  C111     1.0000 0.59490  0.96770  0.14840  Biso   1.000  C
  C112     1.0000 0.64560  0.91820  0.21780  Biso   1.000  C
  H64      1.0000 0.64300  0.93580  0.26720  Biso   1.000  H
  C113     1.0000 0.69820  0.84460  0.21360  Biso   1.000  C
  H65      1.0000 0.73420  0.81310  0.26000  Biso   1.000  H
  C114     1.0000 0.69750  0.81710  0.13860  Biso   1.000  C
  H66      1.0000 0.73150  0.76540  0.13570  Biso   1.000  H
  C115     1.0000 0.60040  0.93580  0.07680  Biso   1.000  C
  H67      1.0000 0.56770  0.96780  0.03000  Biso   1.000  H
  C116     1.0000 0.69780  0.23880  0.90940  Biso   1.000  C
  C117     1.0000 0.67020  0.15020  0.91550  Biso   1.000  C
  H68      1.0000 0.60140  0.13560  0.90860  Biso   1.000  H
  C118     1.0000 0.79820  0.25620  0.92100  Biso   1.000  C
  H69      1.0000 0.81840  0.31650  0.92000  Biso   1.000  H
  C119     1.0000 0.47580  0.44630  0.85980  Biso   1.000  C
  H70      1.0000 0.42790  0.49130  0.84880  Biso   1.000  H
  N10      1.0000 0.57640  0.46590  0.87190  Biso   1.000  N
  C120     1.0000 0.64800  0.39860  0.88830  Biso   1.000  C
  H71      1.0000 0.71750  0.41220  0.89670  Biso   1.000  H
  C121     1.0000 0.61880  0.31180  0.89270  Biso   1.000  C
  C122     1.0000 0.51820  0.29220  0.88060  Biso   1.000  C
  H72      1.0000 0.49870  0.23410  0.88350  Biso   1.000  H
  C123     1.0000 0.44660  0.35940  0.86420  Biso   1.000  C
  H73      1.0000 0.37930  0.34630  0.85610  Biso   1.000  H
  C124     1.0000 0.74520  0.08260  0.93230  Biso   1.000  C
  C125     1.0000 0.84230  0.10250  0.93360  Biso   1.000  C
  H74      1.0000 0.88700  0.05730  0.93390  Biso   1.000  H
  C126     1.0000 0.87200  0.18990  0.93440  Biso   1.000  C
  C127     1.0000 0.70840  0.98900  0.93170  Biso   1.000  C
  C128     1.0000 0.97730  0.21050  0.93280  Biso   1.000  C
  N11      1.0000 0.64990  0.86170  0.07040  Biso   1.000  N
  C129     1.0000 0.72840  0.23620  0.96300  Biso   1.000  C
  C130     1.0000 0.69190  0.14940  0.95230  Biso   1.000  C
  H75      1.0000 0.62870  0.13610  0.95870  Biso   1.000  H
  C131     1.0000 0.82050  0.25570  0.95580  Biso   1.000  C
  H76      1.0000 0.84780  0.31430  0.96570  Biso   1.000  H
  C132     1.0000 0.57260  0.45610  0.01140  Biso   1.000  C
  H77      1.0000 0.54040  0.50500  0.02300  Biso   1.000  H
  N12      1.0000 0.62510  0.46390  0.95880  Biso   1.000  N
  C133     1.0000 0.67320  0.39080  0.94160  Biso   1.000  C
  H78      1.0000 0.70950  0.39620  0.90530  Biso   1.000  H
  C134     1.0000 0.66880  0.30990  0.97690  Biso   1.000  C
  C135     1.0000 0.61630  0.30200  0.02950  Biso   1.000  C
  H79      1.0000 0.61340  0.24790  0.05320  Biso   1.000  H
  C136     1.0000 0.56820  0.37510  0.04680  Biso   1.000  C
  H80      1.0000 0.53310  0.36990  0.08200  Biso   1.000  H
