data_image0
_cell_length_a       12.0317
_cell_length_b       13.8465
_cell_length_c       15.5341
_cell_angle_alpha    110.362
_cell_angle_beta     109.511
_cell_angle_gamma    92.299

_symmetry_space_group_name_H-M    "P 1"
_symmetry_int_tables_number       1

loop_
  _symmetry_equiv_pos_as_xyz
  'x, y, z'

loop_
  _atom_site_label
  _atom_site_occupancy
  _atom_site_fract_x
  _atom_site_fract_y
  _atom_site_fract_z
  _atom_site_thermal_displace_type
  _atom_site_B_iso_or_equiv
  _atom_site_type_symbol
  Zn1      1.0000 0.52586  0.30812  0.35129  Biso   1.000  Zn
  O1       1.0000 0.30640  0.64260  0.61790  Biso   1.000  O
  C1       1.0000 0.37150  0.71630  0.00520  Biso   1.000  C
  Zn2      1.0000 0.43872  0.56061  0.42985  Biso   1.000  Zn
  C2       1.0000 0.30120  0.65350  0.04320  Biso   1.000  C
  B1       1.0000 0.23560  0.63800  0.92260  Biso   1.000  B
  H1       1.0000 0.22370  0.56550  0.85660  Biso   1.000  H
  B2       1.0000 0.27430  0.75870  0.92580  Biso   1.000  B
  H2       1.0000 0.29180  0.76770  0.86240  Biso   1.000  H
  B3       1.0000 0.36100  0.84410  0.04020  Biso   1.000  B
  H3       1.0000 0.43150  0.90920  0.05470  Biso   1.000  H
  B4       1.0000 0.38150  0.77660  0.12140  Biso   1.000  B
  H4       1.0000 0.46450  0.79730  0.18930  Biso   1.000  H
  B5       1.0000 0.15350  0.64210  0.99140  Biso   1.000  B
  H5       1.0000 0.08850  0.57200  0.97530  Biso   1.000  H
  O2       1.0000 0.44840  0.40700  0.42280  Biso   1.000  O
  B6       1.0000 0.12770  0.71600  0.91600  Biso   1.000  B
  H6       1.0000 0.04330  0.69880  0.85010  Biso   1.000  H
  B7       1.0000 0.20470  0.83850  0.98260  Biso   1.000  B
  H7       1.0000 0.17140  0.90300  0.95870  Biso   1.000  H
  B8       1.0000 0.26790  0.85760  0.11190  Biso   1.000  B
  H8       1.0000 0.27330  0.93260  0.17330  Biso   1.000  H
  B9       1.0000 0.23930  0.72870  0.11610  Biso   1.000  B
  H9       1.0000 0.22960  0.71840  0.18170  Biso   1.000  H
  B10      1.0000 0.12670  0.76870  0.02880  Biso   1.000  B
  H10      1.0000 0.04050  0.78580  0.03860  Biso   1.000  H
  C3       1.0000 0.48890  0.68220  0.99620  Biso   1.000  C
  H11      1.0000 0.47090  0.60550  0.95500  Biso   1.000  H
  O3       1.0000 0.57620  0.69860  0.09040  Biso   1.000  O
  H12      1.0000 0.64410  0.71990  0.09320  Biso   1.000  H
  C4       1.0000 0.53910  0.73830  0.94550  Biso   1.000  C
  C5       1.0000 0.62900  0.82410  0.99620  Biso   1.000  C
  H13      1.0000 0.66570  0.84610  0.06600  Biso   1.000  H
  C6       1.0000 0.66750  0.87850  0.95210  Biso   1.000  C
  H14      1.0000 0.72210  0.94290  0.98970  Biso   1.000  H
  C7       1.0000 0.62470  0.83720  0.84930  Biso   1.000  C
  H15      1.0000 0.65070  0.87340  0.81560  Biso   1.000  H
  N1       1.0000 0.54810  0.74810  0.79840  Biso   1.000  N
  C8       1.0000 0.50450  0.70130  0.84490  Biso   1.000  C
  H16      1.0000 0.44640  0.63910  0.80630  Biso   1.000  H
  C9       1.0000 0.34670  0.55530  0.05580  Biso   1.000  C
  H17      1.0000 0.43590  0.57430  0.08830  Biso   1.000  H
  O4       1.0000 0.32100  0.47780  0.95970  Biso   1.000  O
  H18      1.0000 0.37250  0.43860  0.96290  Biso   1.000  H
  C10      1.0000 0.30440  0.51350  0.11810  Biso   1.000  C
  C11      1.0000 0.21550  0.43120  0.07880  Biso   1.000  C
  H19      1.0000 0.17530  0.40070  0.00900  Biso   1.000  H
  C12      1.0000 0.18120  0.39000  0.13520  Biso   1.000  C
  H20      1.0000 0.11700  0.33250  0.10630  Biso   1.000  H
  C13      1.0000 0.24300  0.43490  0.23620  Biso   1.000  C
  H21      1.0000 0.22060  0.40650  0.27680  Biso   1.000  H
  N2       1.0000 0.33190  0.51570  0.27900  Biso   1.000  N
  C14      1.0000 0.36140  0.55430  0.22100  Biso   1.000  C
  H22      1.0000 0.42460  0.61270  0.25100  Biso   1.000  H
  O5       1.0000 0.27640  0.54670  0.46010  Biso   1.000  O
  C15      1.0000 0.24230  0.57600  0.52920  Biso   1.000  C
  C16      1.0000 0.11640  0.53760  0.51500  Biso   1.000  C
  C17      1.0000 0.07790  0.57290  0.59400  Biso   1.000  C
  H23      1.0000 0.12980  0.62190  0.65690  Biso   1.000  H
  C18      1.0000 0.04080  0.46640  0.42220  Biso   1.000  C
  H24      1.0000 0.06910  0.44410  0.36940  Biso   1.000  H
  O6       1.0000 0.51550  0.18450  0.38460  Biso   1.000  O
  C19      1.0000 0.52540  0.19320  0.46990  Biso   1.000  C
  O7       1.0000 0.55070  0.27830  0.54340  Biso   1.000  O
  C20      1.0000 0.51330  0.09390  0.48670  Biso   1.000  C
  C21      1.0000 0.53230  0.09480  0.57890  Biso   1.000  C
  H25      1.0000 0.55410  0.15980  0.63380  Biso   1.000  H
  C22      1.0000 0.52000  0.00220  0.59340  Biso   1.000  C
  H26      1.0000 0.53430  0.00410  0.65800  Biso   1.000  H
  Zn3      1.0000 0.47414  0.69188  0.64871  Biso   1.000  Zn
  O8       1.0000 0.69360  0.35740  0.38210  Biso   1.000  O
  C23      1.0000 0.62850  0.28370  0.99480  Biso   1.000  C
  Zn4      1.0000 0.56128  0.43939  0.57015  Biso   1.000  Zn
  C24      1.0000 0.69880  0.34650  0.95680  Biso   1.000  C
  B11      1.0000 0.76440  0.36200  0.07740  Biso   1.000  B
  H27      1.0000 0.77630  0.43450  0.14340  Biso   1.000  H
  B12      1.0000 0.72570  0.24130  0.07420  Biso   1.000  B
  H28      1.0000 0.70820  0.23230  0.13760  Biso   1.000  H
  B13      1.0000 0.63900  0.15590  0.95980  Biso   1.000  B
  H29      1.0000 0.56850  0.09080  0.94530  Biso   1.000  H
  B14      1.0000 0.61850  0.22340  0.87860  Biso   1.000  B
  H30      1.0000 0.53550  0.20270  0.81070  Biso   1.000  H
  B15      1.0000 0.84650  0.35790  0.00860  Biso   1.000  B
  H31      1.0000 0.91150  0.42800  0.02470  Biso   1.000  H
  O9       1.0000 0.55160  0.59300  0.57720  Biso   1.000  O
  B16      1.0000 0.87230  0.28400  0.08400  Biso   1.000  B
  H32      1.0000 0.95670  0.30120  0.14990  Biso   1.000  H
  B17      1.0000 0.79530  0.16150  0.01740  Biso   1.000  B
  H33      1.0000 0.82860  0.09700  0.04130  Biso   1.000  H
  B18      1.0000 0.73210  0.14240  0.88810  Biso   1.000  B
  H34      1.0000 0.72670  0.06740  0.82670  Biso   1.000  H
  B19      1.0000 0.76070  0.27130  0.88390  Biso   1.000  B
  H35      1.0000 0.77040  0.28160  0.81830  Biso   1.000  H
  B20      1.0000 0.87330  0.23130  0.97120  Biso   1.000  B
  H36      1.0000 0.95950  0.21420  0.96140  Biso   1.000  H
  C25      1.0000 0.51110  0.31780  0.00380  Biso   1.000  C
  H37      1.0000 0.52910  0.39450  0.04500  Biso   1.000  H
  O10      1.0000 0.42380  0.30140  0.90960  Biso   1.000  O
  H38      1.0000 0.35590  0.28010  0.90680  Biso   1.000  H
  C26      1.0000 0.46090  0.26170  0.05450  Biso   1.000  C
  C27      1.0000 0.37100  0.17590  0.00380  Biso   1.000  C
  H39      1.0000 0.33430  0.15390  0.93400  Biso   1.000  H
  C28      1.0000 0.33250  0.12150  0.04790  Biso   1.000  C
  H40      1.0000 0.27790  0.05710  0.01030  Biso   1.000  H
  C29      1.0000 0.37530  0.16280  0.15070  Biso   1.000  C
  H41      1.0000 0.34930  0.12660  0.18440  Biso   1.000  H
  N3       1.0000 0.45190  0.25190  0.20160  Biso   1.000  N
  C30      1.0000 0.49550  0.29870  0.15510  Biso   1.000  C
  H42      1.0000 0.55360  0.36090  0.19370  Biso   1.000  H
  C31      1.0000 0.65330  0.44470  0.94420  Biso   1.000  C
  H43      1.0000 0.56410  0.42570  0.91170  Biso   1.000  H
  O11      1.0000 0.67900  0.52220  0.04030  Biso   1.000  O
  H44      1.0000 0.62750  0.56140  0.03710  Biso   1.000  H
  C32      1.0000 0.69560  0.48650  0.88190  Biso   1.000  C
  C33      1.0000 0.78450  0.56880  0.92120  Biso   1.000  C
  H45      1.0000 0.82470  0.59930  0.99100  Biso   1.000  H
  C34      1.0000 0.81880  0.61000  0.86480  Biso   1.000  C
  H46      1.0000 0.88300  0.66750  0.89370  Biso   1.000  H
  C35      1.0000 0.75700  0.56510  0.76380  Biso   1.000  C
  H47      1.0000 0.77940  0.59350  0.72320  Biso   1.000  H
  N4       1.0000 0.66810  0.48430  0.72100  Biso   1.000  N
  C36      1.0000 0.63860  0.44570  0.77900  Biso   1.000  C
  H48      1.0000 0.57540  0.38730  0.74900  Biso   1.000  H
  O12      1.0000 0.72360  0.45330  0.53990  Biso   1.000  O
  C37      1.0000 0.75770  0.42400  0.47080  Biso   1.000  C
  C38      1.0000 0.88360  0.46240  0.48500  Biso   1.000  C
  C39      1.0000 0.92210  0.42710  0.40600  Biso   1.000  C
  H49      1.0000 0.87020  0.37810  0.34310  Biso   1.000  H
  C40      1.0000 0.95920  0.53360  0.57780  Biso   1.000  C
  H50      1.0000 0.93090  0.55590  0.63060  Biso   1.000  H
  O13      1.0000 0.48450  0.81550  0.61540  Biso   1.000  O
  C41      1.0000 0.47460  0.80680  0.53010  Biso   1.000  C
  O14      1.0000 0.44930  0.72170  0.45660  Biso   1.000  O
  C42      1.0000 0.48670  0.90610  0.51330  Biso   1.000  C
  C43      1.0000 0.46770  0.90520  0.42110  Biso   1.000  C
  H51      1.0000 0.44590  0.84020  0.36620  Biso   1.000  H
  C44      1.0000 0.48000  0.99780  0.40660  Biso   1.000  C
  H52      1.0000 0.46570  0.99590  0.34200  Biso   1.000  H
