data_image0
_cell_length_a       17.749
_cell_length_b       7.2777
_cell_length_c       12.907
_cell_angle_alpha    90
_cell_angle_beta     90
_cell_angle_gamma    90

_symmetry_space_group_name_H-M    "P 1"
_symmetry_int_tables_number       1

loop_
  _symmetry_equiv_pos_as_xyz
  'x, y, z'

loop_
  _atom_site_label
  _atom_site_occupancy
  _atom_site_fract_x
  _atom_site_fract_y
  _atom_site_fract_z
  _atom_site_thermal_displace_type
  _atom_site_B_iso_or_equiv
  _atom_site_type_symbol
  O1       1.0000 0.41280  0.59560  0.39760  Biso   1.000  O
  C1       1.0000 0.27320  0.59520  0.29580  Biso   1.000  C
  H1       1.0000 0.28830  0.48050  0.32400  Biso   1.000  H
  N1       1.0000 0.29600  0.42300  0.33800  Biso   1.000  N
  O2       1.0000 0.27260  0.37500  0.42500  Biso   1.000  O
  O3       1.0000 0.33860  0.32200  0.28800  Biso   1.000  O
  C2       1.0000 0.29040  0.58340  0.26610  Biso   1.000  C
  H2       1.0000 0.30760  0.46580  0.28770  Biso   1.000  H
  N2       1.0000 0.31700  0.40700  0.29800  Biso   1.000  N
  O4       1.0000 0.29710  0.33800  0.38060  Biso   1.000  O
  O5       1.0000 0.36110  0.32600  0.23900  Biso   1.000  O
  O6       1.0000 0.91280  0.09560  0.89760  Biso   1.000  O
  C3       1.0000 0.77320  0.09520  0.79580  Biso   1.000  C
  H3       1.0000 0.78830  0.98050  0.82400  Biso   1.000  H
  N3       1.0000 0.79600  0.92300  0.83800  Biso   1.000  N
  O7       1.0000 0.77260  0.87500  0.92500  Biso   1.000  O
  O8       1.0000 0.83860  0.82200  0.78800  Biso   1.000  O
  C4       1.0000 0.79040  0.08340  0.76610  Biso   1.000  C
  H4       1.0000 0.80760  0.96580  0.78770  Biso   1.000  H
  N4       1.0000 0.81700  0.90700  0.79800  Biso   1.000  N
  O9       1.0000 0.79710  0.83800  0.88060  Biso   1.000  O
  O10      1.0000 0.86110  0.82600  0.73900  Biso   1.000  O
  O11      1.0000 0.58720  0.90440  0.39760  Biso   1.000  O
  C5       1.0000 0.72680  0.90480  0.29580  Biso   1.000  C
  H5       1.0000 0.71170  0.01950  0.32400  Biso   1.000  H
  N5       1.0000 0.70400  0.07700  0.33800  Biso   1.000  N
  O12      1.0000 0.72740  0.12500  0.42500  Biso   1.000  O
  O13      1.0000 0.66140  0.17800  0.28800  Biso   1.000  O
  C6       1.0000 0.70960  0.91660  0.26610  Biso   1.000  C
  H6       1.0000 0.69240  0.03420  0.28770  Biso   1.000  H
  N6       1.0000 0.68300  0.09300  0.29800  Biso   1.000  N
  O14      1.0000 0.70290  0.16200  0.38060  Biso   1.000  O
  O15      1.0000 0.63890  0.17400  0.23900  Biso   1.000  O
  O16      1.0000 0.08720  0.40440  0.89760  Biso   1.000  O
  C7       1.0000 0.22680  0.40480  0.79580  Biso   1.000  C
  H7       1.0000 0.21170  0.51950  0.82400  Biso   1.000  H
  N7       1.0000 0.20400  0.57700  0.83800  Biso   1.000  N
  O17      1.0000 0.22740  0.62500  0.92500  Biso   1.000  O
  O18      1.0000 0.16140  0.67800  0.78800  Biso   1.000  O
  C8       1.0000 0.20960  0.41660  0.76610  Biso   1.000  C
  H8       1.0000 0.19240  0.53420  0.78770  Biso   1.000  H
  N8       1.0000 0.18300  0.59300  0.79800  Biso   1.000  N
  O19      1.0000 0.20290  0.66200  0.88060  Biso   1.000  O
  O20      1.0000 0.13890  0.67400  0.73900  Biso   1.000  O
  O21      1.0000 0.58720  0.09560  0.60240  Biso   1.000  O
  C9       1.0000 0.72680  0.09520  0.70420  Biso   1.000  C
  H9       1.0000 0.71170  0.98050  0.67600  Biso   1.000  H
  N9       1.0000 0.70400  0.92300  0.66200  Biso   1.000  N
  O22      1.0000 0.72740  0.87500  0.57500  Biso   1.000  O
  O23      1.0000 0.66140  0.82200  0.71200  Biso   1.000  O
  C10      1.0000 0.70960  0.08340  0.73390  Biso   1.000  C
  H10      1.0000 0.69240  0.96580  0.71230  Biso   1.000  H
  N10      1.0000 0.68300  0.90700  0.70200  Biso   1.000  N
  O24      1.0000 0.70290  0.83800  0.61940  Biso   1.000  O
  O25      1.0000 0.63890  0.82600  0.76100  Biso   1.000  O
  O26      1.0000 0.08720  0.59560  0.10240  Biso   1.000  O
  C11      1.0000 0.22680  0.59520  0.20420  Biso   1.000  C
  H11      1.0000 0.21170  0.48050  0.17600  Biso   1.000  H
  N11      1.0000 0.20400  0.42300  0.16200  Biso   1.000  N
  O27      1.0000 0.22740  0.37500  0.07500  Biso   1.000  O
  O28      1.0000 0.16140  0.32200  0.21200  Biso   1.000  O
  C12      1.0000 0.20960  0.58340  0.23390  Biso   1.000  C
  H12      1.0000 0.19240  0.46580  0.21230  Biso   1.000  H
  N12      1.0000 0.18300  0.40700  0.20200  Biso   1.000  N
  O29      1.0000 0.20290  0.33800  0.11940  Biso   1.000  O
  O30      1.0000 0.13890  0.32600  0.26100  Biso   1.000  O
  O31      1.0000 0.41280  0.40440  0.60240  Biso   1.000  O
  C13      1.0000 0.27320  0.40480  0.70420  Biso   1.000  C
  H13      1.0000 0.28830  0.51950  0.67600  Biso   1.000  H
  N13      1.0000 0.29600  0.57700  0.66200  Biso   1.000  N
  O32      1.0000 0.27260  0.62500  0.57500  Biso   1.000  O
  O33      1.0000 0.33860  0.67800  0.71200  Biso   1.000  O
  C14      1.0000 0.29040  0.41660  0.73390  Biso   1.000  C
  H14      1.0000 0.30760  0.53420  0.71230  Biso   1.000  H
  N14      1.0000 0.31700  0.59300  0.70200  Biso   1.000  N
  O34      1.0000 0.29710  0.66200  0.61940  Biso   1.000  O
  O35      1.0000 0.36110  0.67400  0.76100  Biso   1.000  O
  O36      1.0000 0.91280  0.90440  0.10240  Biso   1.000  O
  C15      1.0000 0.77320  0.90480  0.20420  Biso   1.000  C
  H15      1.0000 0.78830  0.01950  0.17600  Biso   1.000  H
  N15      1.0000 0.79600  0.07700  0.16200  Biso   1.000  N
  O37      1.0000 0.77260  0.12500  0.07500  Biso   1.000  O
  O38      1.0000 0.83860  0.17800  0.21200  Biso   1.000  O
  C16      1.0000 0.79040  0.91660  0.23390  Biso   1.000  C
  H16      1.0000 0.80760  0.03420  0.21230  Biso   1.000  H
  N16      1.0000 0.81700  0.09300  0.20200  Biso   1.000  N
  O39      1.0000 0.79710  0.16200  0.11940  Biso   1.000  O
  O40      1.0000 0.86110  0.17400  0.26100  Biso   1.000  O
  O41      1.0000 0.58720  0.40440  0.60240  Biso   1.000  O
  C17      1.0000 0.72680  0.40480  0.70420  Biso   1.000  C
  H17      1.0000 0.71170  0.51950  0.67600  Biso   1.000  H
  N17      1.0000 0.70400  0.57700  0.66200  Biso   1.000  N
  O42      1.0000 0.72740  0.62500  0.57500  Biso   1.000  O
  O43      1.0000 0.66140  0.67800  0.71200  Biso   1.000  O
  C18      1.0000 0.70960  0.41660  0.73390  Biso   1.000  C
  H18      1.0000 0.69240  0.53420  0.71230  Biso   1.000  H
  N18      1.0000 0.68300  0.59300  0.70200  Biso   1.000  N
  O44      1.0000 0.70290  0.66200  0.61940  Biso   1.000  O
  O45      1.0000 0.63890  0.67400  0.76100  Biso   1.000  O
  O46      1.0000 0.08720  0.90440  0.10240  Biso   1.000  O
  C19      1.0000 0.22680  0.90480  0.20420  Biso   1.000  C
  H19      1.0000 0.21170  0.01950  0.17600  Biso   1.000  H
  N19      1.0000 0.20400  0.07700  0.16200  Biso   1.000  N
  O47      1.0000 0.22740  0.12500  0.07500  Biso   1.000  O
  O48      1.0000 0.16140  0.17800  0.21200  Biso   1.000  O
  C20      1.0000 0.20960  0.91660  0.23390  Biso   1.000  C
  H20      1.0000 0.19240  0.03420  0.21230  Biso   1.000  H
  N20      1.0000 0.18300  0.09300  0.20200  Biso   1.000  N
  O49      1.0000 0.20290  0.16200  0.11940  Biso   1.000  O
  O50      1.0000 0.13890  0.17400  0.26100  Biso   1.000  O
  O51      1.0000 0.41280  0.09560  0.60240  Biso   1.000  O
  C21      1.0000 0.27320  0.09520  0.70420  Biso   1.000  C
  H21      1.0000 0.28830  0.98050  0.67600  Biso   1.000  H
  N21      1.0000 0.29600  0.92300  0.66200  Biso   1.000  N
  O52      1.0000 0.27260  0.87500  0.57500  Biso   1.000  O
  O53      1.0000 0.33860  0.82200  0.71200  Biso   1.000  O
  C22      1.0000 0.29040  0.08340  0.73390  Biso   1.000  C
  H22      1.0000 0.30760  0.96580  0.71230  Biso   1.000  H
  N22      1.0000 0.31700  0.90700  0.70200  Biso   1.000  N
  O54      1.0000 0.29710  0.83800  0.61940  Biso   1.000  O
  O55      1.0000 0.36110  0.82600  0.76100  Biso   1.000  O
  O56      1.0000 0.91280  0.59560  0.10240  Biso   1.000  O
  C23      1.0000 0.77320  0.59520  0.20420  Biso   1.000  C
  H23      1.0000 0.78830  0.48050  0.17600  Biso   1.000  H
  N23      1.0000 0.79600  0.42300  0.16200  Biso   1.000  N
  O57      1.0000 0.77260  0.37500  0.07500  Biso   1.000  O
  O58      1.0000 0.83860  0.32200  0.21200  Biso   1.000  O
  C24      1.0000 0.79040  0.58340  0.23390  Biso   1.000  C
  H24      1.0000 0.80760  0.46580  0.21230  Biso   1.000  H
  N24      1.0000 0.81700  0.40700  0.20200  Biso   1.000  N
  O59      1.0000 0.79710  0.33800  0.11940  Biso   1.000  O
  O60      1.0000 0.86110  0.32600  0.26100  Biso   1.000  O
  O61      1.0000 0.41280  0.90440  0.39760  Biso   1.000  O
  C25      1.0000 0.27320  0.90480  0.29580  Biso   1.000  C
  H25      1.0000 0.28830  0.01950  0.32400  Biso   1.000  H
  N25      1.0000 0.29600  0.07700  0.33800  Biso   1.000  N
  O62      1.0000 0.27260  0.12500  0.42500  Biso   1.000  O
  O63      1.0000 0.33860  0.17800  0.28800  Biso   1.000  O
  C26      1.0000 0.29040  0.91660  0.26610  Biso   1.000  C
  H26      1.0000 0.30760  0.03420  0.28770  Biso   1.000  H
  N26      1.0000 0.31700  0.09300  0.29800  Biso   1.000  N
  O64      1.0000 0.29710  0.16200  0.38060  Biso   1.000  O
  O65      1.0000 0.36110  0.17400  0.23900  Biso   1.000  O
  O66      1.0000 0.91280  0.40440  0.89760  Biso   1.000  O
  C27      1.0000 0.77320  0.40480  0.79580  Biso   1.000  C
  H27      1.0000 0.78830  0.51950  0.82400  Biso   1.000  H
  N27      1.0000 0.79600  0.57700  0.83800  Biso   1.000  N
  O67      1.0000 0.77260  0.62500  0.92500  Biso   1.000  O
  O68      1.0000 0.83860  0.67800  0.78800  Biso   1.000  O
  C28      1.0000 0.79040  0.41660  0.76610  Biso   1.000  C
  H28      1.0000 0.80760  0.53420  0.78770  Biso   1.000  H
  N28      1.0000 0.81700  0.59300  0.79800  Biso   1.000  N
  O69      1.0000 0.79710  0.66200  0.88060  Biso   1.000  O
  O70      1.0000 0.86110  0.67400  0.73900  Biso   1.000  O
  O71      1.0000 0.58720  0.59560  0.39760  Biso   1.000  O
  C29      1.0000 0.72680  0.59520  0.29580  Biso   1.000  C
  H29      1.0000 0.71170  0.48050  0.32400  Biso   1.000  H
  N29      1.0000 0.70400  0.42300  0.33800  Biso   1.000  N
  O72      1.0000 0.72740  0.37500  0.42500  Biso   1.000  O
  O73      1.0000 0.66140  0.32200  0.28800  Biso   1.000  O
  C30      1.0000 0.70960  0.58340  0.26610  Biso   1.000  C
  H30      1.0000 0.69240  0.46580  0.28770  Biso   1.000  H
  N30      1.0000 0.68300  0.40700  0.29800  Biso   1.000  N
  O74      1.0000 0.70290  0.33800  0.38060  Biso   1.000  O
  O75      1.0000 0.63890  0.32600  0.23900  Biso   1.000  O
  O76      1.0000 0.08720  0.09560  0.89760  Biso   1.000  O
  C31      1.0000 0.22680  0.09520  0.79580  Biso   1.000  C
  H31      1.0000 0.21170  0.98050  0.82400  Biso   1.000  H
  N31      1.0000 0.20400  0.92300  0.83800  Biso   1.000  N
  O77      1.0000 0.22740  0.87500  0.92500  Biso   1.000  O
  O78      1.0000 0.16140  0.82200  0.78800  Biso   1.000  O
  C32      1.0000 0.20960  0.08340  0.76610  Biso   1.000  C
  H32      1.0000 0.19240  0.96580  0.78770  Biso   1.000  H
  N32      1.0000 0.18300  0.90700  0.79800  Biso   1.000  N
  O79      1.0000 0.20290  0.83800  0.88060  Biso   1.000  O
  O80      1.0000 0.13890  0.82600  0.73900  Biso   1.000  O
  In1      1.0000 0.50000  0.50000  0.50000  Biso   1.000  In
  In2      1.0000 0.00000  0.00000  0.00000  Biso   1.000  In
  In3      1.0000 0.50000  0.00000  0.50000  Biso   1.000  In
  In4      1.0000 0.00000  0.50000  0.00000  Biso   1.000  In
  O81      1.0000 0.50000  0.75000  0.57910  Biso   1.000  O
  H33      1.0000 0.50000  0.75000  0.64380  Biso   1.000  H
  O82      1.0000 0.00000  0.25000  0.07910  Biso   1.000  O
  H34      1.0000 0.00000  0.25000  0.14380  Biso   1.000  H
  O83      1.0000 0.50000  0.25000  0.42090  Biso   1.000  O
  H35      1.0000 0.50000  0.25000  0.35620  Biso   1.000  H
  O84      1.0000 0.00000  0.75000  0.92090  Biso   1.000  O
  H36      1.0000 0.00000  0.75000  0.85620  Biso   1.000  H
  C33      1.0000 0.38630  0.75000  0.37400  Biso   1.000  C
  C34      1.0000 0.31080  0.75000  0.32080  Biso   1.000  C
  C35      1.0000 0.32190  0.75000  0.29680  Biso   1.000  C
  C36      1.0000 0.88630  0.25000  0.87400  Biso   1.000  C
  C37      1.0000 0.81080  0.25000  0.82080  Biso   1.000  C
  C38      1.0000 0.82190  0.25000  0.79680  Biso   1.000  C
  C39      1.0000 0.61370  0.75000  0.37400  Biso   1.000  C
  C40      1.0000 0.68920  0.75000  0.32080  Biso   1.000  C
  C41      1.0000 0.67810  0.75000  0.29680  Biso   1.000  C
  C42      1.0000 0.11370  0.25000  0.87400  Biso   1.000  C
  C43      1.0000 0.18920  0.25000  0.82080  Biso   1.000  C
  C44      1.0000 0.17810  0.25000  0.79680  Biso   1.000  C
  C45      1.0000 0.61370  0.25000  0.62600  Biso   1.000  C
  C46      1.0000 0.68920  0.25000  0.67920  Biso   1.000  C
  C47      1.0000 0.67810  0.25000  0.70320  Biso   1.000  C
  C48      1.0000 0.11370  0.75000  0.12600  Biso   1.000  C
  C49      1.0000 0.18920  0.75000  0.17920  Biso   1.000  C
  C50      1.0000 0.17810  0.75000  0.20320  Biso   1.000  C
  C51      1.0000 0.38630  0.25000  0.62600  Biso   1.000  C
  C52      1.0000 0.31080  0.25000  0.67920  Biso   1.000  C
  C53      1.0000 0.32190  0.25000  0.70320  Biso   1.000  C
  C54      1.0000 0.88630  0.75000  0.12600  Biso   1.000  C
  C55      1.0000 0.81080  0.75000  0.17920  Biso   1.000  C
  C56      1.0000 0.82190  0.75000  0.20320  Biso   1.000  C
