data_image0
_cell_length_a       7.163
_cell_length_b       10.443
_cell_length_c       20.003
_cell_angle_alpha    81.2
_cell_angle_beta     85.04
_cell_angle_gamma    86.91

_symmetry_space_group_name_H-M    "P 1"
_symmetry_int_tables_number       1

loop_
  _symmetry_equiv_pos_as_xyz
  'x, y, z'

loop_
  _atom_site_label
  _atom_site_occupancy
  _atom_site_fract_x
  _atom_site_fract_y
  _atom_site_fract_z
  _atom_site_thermal_displace_type
  _atom_site_B_iso_or_equiv
  _atom_site_type_symbol
  Na1      1.0000 0.59416  0.66202  0.76645  Biso   1.000  Na
  Na2      1.0000 0.65326  0.56892  0.93810  Biso   1.000  Na
  P1       1.0000 0.54714  0.00103  0.67050  Biso   1.000  P
  O1       1.0000 0.46581  0.03217  0.73875  Biso   1.000  O
  O2       1.0000 0.58278  0.84877  0.67649  Biso   1.000  O
  H1       1.0000 0.59600  0.82800  0.63800  Biso   1.000  H
  O3       1.0000 0.75022  0.05871  0.66078  Biso   1.000  O
  O4       1.0000 0.43420  0.04958  0.61222  Biso   1.000  O
  O5       1.0000 0.76720  0.12765  0.48978  Biso   1.000  O
  O6       1.0000 0.83953  0.30936  0.52701  Biso   1.000  O
  N1       1.0000 0.09610  0.19424  0.60674  Biso   1.000  N
  H2       1.0000 0.02000  0.22500  0.63870  Biso   1.000  H
  H3       1.0000 0.19400  0.15000  0.62600  Biso   1.000  H
  H4       1.0000 0.14300  0.25700  0.57610  Biso   1.000  H
  C1       1.0000 0.85410  0.19020  0.52611  Biso   1.000  C
  C2       1.0000 0.99270  0.10892  0.57123  Biso   1.000  C
  H5       1.0000 0.08100  0.06780  0.54120  Biso   1.000  H
  C3       1.0000 0.89960  0.00022  0.61960  Biso   1.000  C
  H6       1.0000 0.84600  0.94600  0.58940  Biso   1.000  H
  C4       1.0000 0.02820  0.92030  0.66729  Biso   1.000  C
  H7       1.0000 0.96800  0.84600  0.69310  Biso   1.000  H
  H8       1.0000 0.07000  0.96900  0.70050  Biso   1.000  H
  H9       1.0000 0.14300  0.88700  0.64140  Biso   1.000  H
  P2       1.0000 0.11722  0.50348  0.31617  Biso   1.000  P
  O7       1.0000 0.07525  0.43747  0.25778  Biso   1.000  O
  O8       1.0000 0.12100  0.65537  0.29634  Biso   1.000  O
  H10      1.0000 0.17600  0.67900  0.26040  Biso   1.000  H
  O9       1.0000 0.33255  0.45648  0.32733  Biso   1.000  O
  O10      1.0000 0.99754  0.47725  0.38111  Biso   1.000  O
  O11      1.0000 0.27375  0.36786  0.50665  Biso   1.000  O
  O12      1.0000 0.36257  0.21002  0.44521  Biso   1.000  O
  N2       1.0000 0.67950  0.33511  0.39140  Biso   1.000  N
  H11      1.0000 0.65500  0.31000  0.35270  Biso   1.000  H
  H12      1.0000 0.79200  0.37900  0.38380  Biso   1.000  H
  H13      1.0000 0.69800  0.25800  0.42150  Biso   1.000  H
  C5       1.0000 0.37430  0.32153  0.46133  Biso   1.000  C
  C6       1.0000 0.52310  0.41119  0.42323  Biso   1.000  C
  H14      1.0000 0.57200  0.45670  0.45700  Biso   1.000  H
  C7       1.0000 0.43530  0.51803  0.37324  Biso   1.000  C
  H15      1.0000 0.34600  0.56700  0.40140  Biso   1.000  H
  C8       1.0000 0.57420  0.60700  0.33085  Biso   1.000  C
  H16      1.0000 0.51100  0.68100  0.30620  Biso   1.000  H
  H17      1.0000 0.66000  0.55800  0.30160  Biso   1.000  H
  H18      1.0000 0.64800  0.64200  0.35920  Biso   1.000  H
  O13      1.0000 0.69110  0.76392  0.85367  Biso   1.000  O
  H19      1.0000 0.82100  0.76500  0.85160  Biso   1.000  H
  H20      1.0000 0.65800  0.84200  0.85130  Biso   1.000  H
  O14      1.0000 0.62410  0.35585  0.00281  Biso   1.000  O
  H21      1.0000 0.60000  0.29800  0.97790  Biso   1.000  H
  H22      1.0000 0.73300  0.33100  0.01330  Biso   1.000  H
  O15      1.0000 0.51560  0.48413  0.85092  Biso   1.000  O
  H23      1.0000 0.56800  0.40900  0.84250  Biso   1.000  H
  H24      1.0000 0.41900  0.46200  0.86190  Biso   1.000  H
  O16      1.0000 0.97120  0.53610  0.88109  Biso   1.000  O
  O17      1.0000 0.09400  0.52900  0.12350  Biso   1.000  O
  H25      1.0000 0.02100  0.61700  0.87660  Biso   1.000  H
  H26      1.0000 0.95100  0.52300  0.84350  Biso   1.000  H
  H27      1.0000 0.16000  0.61000  0.13200  Biso   1.000  H
  Na3      1.0000 0.40584  0.33798  0.23355  Biso   1.000  Na
  Na4      1.0000 0.34674  0.43108  0.06190  Biso   1.000  Na
  P3       1.0000 0.45286  0.99897  0.32950  Biso   1.000  P
  O18      1.0000 0.53419  0.96783  0.26125  Biso   1.000  O
  O19      1.0000 0.41722  0.15123  0.32351  Biso   1.000  O
  H28      1.0000 0.40400  0.17200  0.36200  Biso   1.000  H
  O20      1.0000 0.24978  0.94129  0.33922  Biso   1.000  O
  O21      1.0000 0.56580  0.95042  0.38778  Biso   1.000  O
  O22      1.0000 0.23280  0.87235  0.51022  Biso   1.000  O
  O23      1.0000 0.16047  0.69064  0.47299  Biso   1.000  O
  N3       1.0000 0.90390  0.80576  0.39326  Biso   1.000  N
  H29      1.0000 0.98000  0.77500  0.36130  Biso   1.000  H
  H30      1.0000 0.80600  0.85000  0.37400  Biso   1.000  H
  H31      1.0000 0.85700  0.74300  0.42390  Biso   1.000  H
  C9       1.0000 0.14590  0.80980  0.47389  Biso   1.000  C
  C10      1.0000 0.00730  0.89108  0.42877  Biso   1.000  C
  H32      1.0000 0.91900  0.93220  0.45880  Biso   1.000  H
  C11      1.0000 0.10040  0.99978  0.38040  Biso   1.000  C
  H33      1.0000 0.15400  0.05400  0.41060  Biso   1.000  H
  C12      1.0000 0.97180  0.07970  0.33271  Biso   1.000  C
  H34      1.0000 0.03200  0.15400  0.30690  Biso   1.000  H
  H35      1.0000 0.93000  0.03100  0.29950  Biso   1.000  H
  H36      1.0000 0.85700  0.11300  0.35860  Biso   1.000  H
  P4       1.0000 0.88278  0.49652  0.68383  Biso   1.000  P
  O24      1.0000 0.92475  0.56253  0.74222  Biso   1.000  O
  O25      1.0000 0.87900  0.34463  0.70366  Biso   1.000  O
  H37      1.0000 0.82400  0.32100  0.73960  Biso   1.000  H
  O26      1.0000 0.66745  0.54352  0.67267  Biso   1.000  O
  O27      1.0000 0.00246  0.52275  0.61889  Biso   1.000  O
  O28      1.0000 0.72625  0.63214  0.49335  Biso   1.000  O
  O29      1.0000 0.63743  0.78998  0.55479  Biso   1.000  O
  N4       1.0000 0.32050  0.66489  0.60860  Biso   1.000  N
  H38      1.0000 0.34500  0.69000  0.64730  Biso   1.000  H
  H39      1.0000 0.20800  0.62100  0.61620  Biso   1.000  H
  H40      1.0000 0.30200  0.74200  0.57850  Biso   1.000  H
  C13      1.0000 0.62570  0.67847  0.53867  Biso   1.000  C
  C14      1.0000 0.47690  0.58881  0.57677  Biso   1.000  C
  H41      1.0000 0.42800  0.54330  0.54300  Biso   1.000  H
  C15      1.0000 0.56470  0.48197  0.62676  Biso   1.000  C
  H42      1.0000 0.65400  0.43300  0.59860  Biso   1.000  H
  C16      1.0000 0.42580  0.39300  0.66915  Biso   1.000  C
  H43      1.0000 0.48900  0.31900  0.69380  Biso   1.000  H
  H44      1.0000 0.34000  0.44200  0.69840  Biso   1.000  H
  H45      1.0000 0.35200  0.35800  0.64080  Biso   1.000  H
  O30      1.0000 0.30890  0.23608  0.14633  Biso   1.000  O
  H46      1.0000 0.17900  0.23500  0.14840  Biso   1.000  H
  H47      1.0000 0.34200  0.15800  0.14870  Biso   1.000  H
  O31      1.0000 0.37590  0.64415  0.99719  Biso   1.000  O
  H48      1.0000 0.40000  0.70200  0.02210  Biso   1.000  H
  H49      1.0000 0.26700  0.66900  0.98670  Biso   1.000  H
  O32      1.0000 0.48440  0.51587  0.14908  Biso   1.000  O
  H50      1.0000 0.43200  0.59100  0.15750  Biso   1.000  H
  H51      1.0000 0.58100  0.53800  0.13810  Biso   1.000  H
  O33      1.0000 0.02880  0.46390  0.11891  Biso   1.000  O
  O34      1.0000 0.90600  0.47100  0.87650  Biso   1.000  O
  H52      1.0000 0.97900  0.38300  0.12340  Biso   1.000  H
  H53      1.0000 0.04900  0.47700  0.15650  Biso   1.000  H
  H54      1.0000 0.84000  0.39000  0.86800  Biso   1.000  H
  Na5      1.0000 0.00000  0.50000  0.50000  Biso   1.000  Na
  Na6      1.0000 0.50000  0.00000  0.50000  Biso   1.000  Na
