data_image0
_cell_length_a       14.4085
_cell_length_b       18.9382
_cell_length_c       17.0522
_cell_angle_alpha    90
_cell_angle_beta     101.696
_cell_angle_gamma    90

_symmetry_space_group_name_H-M    "P 1"
_symmetry_int_tables_number       1

loop_
  _symmetry_equiv_pos_as_xyz
  'x, y, z'

loop_
  _atom_site_label
  _atom_site_occupancy
  _atom_site_fract_x
  _atom_site_fract_y
  _atom_site_fract_z
  _atom_site_thermal_displace_type
  _atom_site_B_iso_or_equiv
  _atom_site_type_symbol
  P1       1.0000 0.50932  0.16390  0.30776  Biso   1.000  P
  P2       1.0000 0.72458  0.25597  0.50141  Biso   1.000  P
  S1       1.0000 0.00380  0.03320  0.70810  Biso   1.000  S
  C1       1.0000 0.70850  0.31240  0.27430  Biso   1.000  C
  H1       1.0000 0.69740  0.34440  0.31590  Biso   1.000  H
  H2       1.0000 0.67670  0.33140  0.22300  Biso   1.000  H
  C2       1.0000 0.68650  0.19210  0.22360  Biso   1.000  C
  H3       1.0000 0.65390  0.20860  0.17140  Biso   1.000  H
  H4       1.0000 0.66220  0.14570  0.23250  Biso   1.000  H
  C3       1.0000 0.56400  0.24810  0.28880  Biso   1.000  C
  H5       1.0000 0.53050  0.26700  0.23810  Biso   1.000  H
  H6       1.0000 0.55690  0.28150  0.33040  Biso   1.000  H
  C4       1.0000 0.79690  0.18570  0.73610  Biso   1.000  C
  H7       1.0000 0.86300  0.19990  0.74850  Biso   1.000  H
  H8       1.0000 0.79440  0.13610  0.72140  Biso   1.000  H
  C5       1.0000 0.74580  0.30460  0.69010  Biso   1.000  C
  H9       1.0000 0.70960  0.33170  0.64600  Biso   1.000  H
  H10      1.0000 0.81030  0.32230  0.70100  Biso   1.000  H
  C6       1.0000 0.78820  0.21470  0.59440  Biso   1.000  C
  H11      1.0000 0.79030  0.16410  0.58600  Biso   1.000  H
  H12      1.0000 0.85290  0.23180  0.60560  Biso   1.000  H
  N1       1.0000 0.66810  0.24170  0.28650  Biso   1.000  N
  H13      1.0000 0.69880  0.22490  0.33490  Biso   1.000  H
  N2       1.0000 0.74550  0.22810  0.66700  Biso   1.000  N
  H14      1.0000 0.68420  0.21320  0.65550  Biso   1.000  H
  O1       1.0000 0.47030  0.12980  0.22850  Biso   1.000  O
  O2       1.0000 0.43480  0.18540  0.35610  Biso   1.000  O
  O3       1.0000 0.58660  0.12200  0.36350  Biso   1.000  O
  O4       1.0000 0.74630  0.33490  0.50640  Biso   1.000  O
  O5       1.0000 0.76670  0.21970  0.43750  Biso   1.000  O
  O6       1.0000 0.62030  0.24140  0.49740  Biso   1.000  O
  O7       1.0000 0.63330  0.06500  0.52560  Biso   1.000  O
  O8       1.0000 0.05800  0.04630  0.77450  Biso   1.000  O
  O9       1.0000 0.02500  0.98900  0.65400  Biso   1.000  O
  O10      1.0000 0.99600  0.10210  0.66360  Biso   1.000  O
  P3       1.0000 0.00932  0.66390  0.80776  Biso   1.000  P
  P4       1.0000 0.22458  0.75597  0.00141  Biso   1.000  P
  S2       1.0000 0.50380  0.53320  0.20810  Biso   1.000  S
  C7       1.0000 0.20850  0.81240  0.77430  Biso   1.000  C
  H15      1.0000 0.19740  0.84440  0.81590  Biso   1.000  H
  H16      1.0000 0.17670  0.83140  0.72300  Biso   1.000  H
  C8       1.0000 0.18650  0.69210  0.72360  Biso   1.000  C
  H17      1.0000 0.15390  0.70860  0.67140  Biso   1.000  H
  H18      1.0000 0.16220  0.64570  0.73250  Biso   1.000  H
  C9       1.0000 0.06400  0.74810  0.78880  Biso   1.000  C
  H19      1.0000 0.03050  0.76700  0.73810  Biso   1.000  H
  H20      1.0000 0.05690  0.78150  0.83040  Biso   1.000  H
  C10      1.0000 0.29690  0.68570  0.23610  Biso   1.000  C
  H21      1.0000 0.36300  0.69990  0.24850  Biso   1.000  H
  H22      1.0000 0.29440  0.63610  0.22140  Biso   1.000  H
  C11      1.0000 0.24580  0.80460  0.19010  Biso   1.000  C
  H23      1.0000 0.20960  0.83170  0.14600  Biso   1.000  H
  H24      1.0000 0.31030  0.82230  0.20100  Biso   1.000  H
  C12      1.0000 0.28820  0.71470  0.09440  Biso   1.000  C
  H25      1.0000 0.29030  0.66410  0.08600  Biso   1.000  H
  H26      1.0000 0.35290  0.73180  0.10560  Biso   1.000  H
  N3       1.0000 0.16810  0.74170  0.78650  Biso   1.000  N
  H27      1.0000 0.19880  0.72490  0.83490  Biso   1.000  H
  N4       1.0000 0.24550  0.72810  0.16700  Biso   1.000  N
  H28      1.0000 0.18420  0.71320  0.15550  Biso   1.000  H
  O11      1.0000 0.97030  0.62980  0.72850  Biso   1.000  O
  O12      1.0000 0.93480  0.68540  0.85610  Biso   1.000  O
  O13      1.0000 0.08660  0.62200  0.86350  Biso   1.000  O
  O14      1.0000 0.24630  0.83490  0.00640  Biso   1.000  O
  O15      1.0000 0.26670  0.71970  0.93750  Biso   1.000  O
  O16      1.0000 0.12030  0.74140  0.99740  Biso   1.000  O
  O17      1.0000 0.13330  0.56500  0.02560  Biso   1.000  O
  O18      1.0000 0.55800  0.54630  0.27450  Biso   1.000  O
  O19      1.0000 0.52500  0.48900  0.15400  Biso   1.000  O
  O20      1.0000 0.49600  0.60210  0.16360  Biso   1.000  O
  P5       1.0000 0.49068  0.16390  0.69224  Biso   1.000  P
  P6       1.0000 0.27542  0.25597  0.49859  Biso   1.000  P
  S3       1.0000 0.99620  0.03320  0.29190  Biso   1.000  S
  C13      1.0000 0.29150  0.31240  0.72570  Biso   1.000  C
  H29      1.0000 0.30260  0.34440  0.68410  Biso   1.000  H
  H30      1.0000 0.32330  0.33140  0.77700  Biso   1.000  H
  C14      1.0000 0.31350  0.19210  0.77640  Biso   1.000  C
  H31      1.0000 0.34610  0.20860  0.82860  Biso   1.000  H
  H32      1.0000 0.33780  0.14570  0.76750  Biso   1.000  H
  C15      1.0000 0.43600  0.24810  0.71120  Biso   1.000  C
  H33      1.0000 0.46950  0.26700  0.76190  Biso   1.000  H
  H34      1.0000 0.44310  0.28150  0.66960  Biso   1.000  H
  C16      1.0000 0.20310  0.18570  0.26390  Biso   1.000  C
  H35      1.0000 0.13700  0.19990  0.25150  Biso   1.000  H
  H36      1.0000 0.20560  0.13610  0.27860  Biso   1.000  H
  C17      1.0000 0.25420  0.30460  0.30990  Biso   1.000  C
  H37      1.0000 0.29040  0.33170  0.35400  Biso   1.000  H
  H38      1.0000 0.18970  0.32230  0.29900  Biso   1.000  H
  C18      1.0000 0.21180  0.21470  0.40560  Biso   1.000  C
  H39      1.0000 0.20970  0.16410  0.41400  Biso   1.000  H
  H40      1.0000 0.14710  0.23180  0.39440  Biso   1.000  H
  N5       1.0000 0.33190  0.24170  0.71350  Biso   1.000  N
  H41      1.0000 0.30120  0.22490  0.66510  Biso   1.000  H
  N6       1.0000 0.25450  0.22810  0.33300  Biso   1.000  N
  H42      1.0000 0.31580  0.21320  0.34450  Biso   1.000  H
  O21      1.0000 0.52970  0.12980  0.77150  Biso   1.000  O
  O22      1.0000 0.56520  0.18540  0.64390  Biso   1.000  O
  O23      1.0000 0.41340  0.12200  0.63650  Biso   1.000  O
  O24      1.0000 0.25370  0.33490  0.49360  Biso   1.000  O
  O25      1.0000 0.23330  0.21970  0.56250  Biso   1.000  O
  O26      1.0000 0.37970  0.24140  0.50260  Biso   1.000  O
  O27      1.0000 0.36670  0.06500  0.47440  Biso   1.000  O
  O28      1.0000 0.94200  0.04630  0.22550  Biso   1.000  O
  O29      1.0000 0.97500  0.98900  0.34600  Biso   1.000  O
  O30      1.0000 0.00400  0.10210  0.33640  Biso   1.000  O
  P7       1.0000 0.99068  0.66390  0.19224  Biso   1.000  P
  P8       1.0000 0.77542  0.75597  0.99859  Biso   1.000  P
  S4       1.0000 0.49620  0.53320  0.79190  Biso   1.000  S
  C19      1.0000 0.79150  0.81240  0.22570  Biso   1.000  C
  H43      1.0000 0.80260  0.84440  0.18410  Biso   1.000  H
  H44      1.0000 0.82330  0.83140  0.27700  Biso   1.000  H
  C20      1.0000 0.81350  0.69210  0.27640  Biso   1.000  C
  H45      1.0000 0.84610  0.70860  0.32860  Biso   1.000  H
  H46      1.0000 0.83780  0.64570  0.26750  Biso   1.000  H
  C21      1.0000 0.93600  0.74810  0.21120  Biso   1.000  C
  H47      1.0000 0.96950  0.76700  0.26190  Biso   1.000  H
  H48      1.0000 0.94310  0.78150  0.16960  Biso   1.000  H
  C22      1.0000 0.70310  0.68570  0.76390  Biso   1.000  C
  H49      1.0000 0.63700  0.69990  0.75150  Biso   1.000  H
  H50      1.0000 0.70560  0.63610  0.77860  Biso   1.000  H
  C23      1.0000 0.75420  0.80460  0.80990  Biso   1.000  C
  H51      1.0000 0.79040  0.83170  0.85400  Biso   1.000  H
  H52      1.0000 0.68970  0.82230  0.79900  Biso   1.000  H
  C24      1.0000 0.71180  0.71470  0.90560  Biso   1.000  C
  H53      1.0000 0.70970  0.66410  0.91400  Biso   1.000  H
  H54      1.0000 0.64710  0.73180  0.89440  Biso   1.000  H
  N7       1.0000 0.83190  0.74170  0.21350  Biso   1.000  N
  H55      1.0000 0.80120  0.72490  0.16510  Biso   1.000  H
  N8       1.0000 0.75450  0.72810  0.83300  Biso   1.000  N
  H56      1.0000 0.81580  0.71320  0.84450  Biso   1.000  H
  O31      1.0000 0.02970  0.62980  0.27150  Biso   1.000  O
  O32      1.0000 0.06520  0.68540  0.14390  Biso   1.000  O
  O33      1.0000 0.91340  0.62200  0.13650  Biso   1.000  O
  O34      1.0000 0.75370  0.83490  0.99360  Biso   1.000  O
  O35      1.0000 0.73330  0.71970  0.06250  Biso   1.000  O
  O36      1.0000 0.87970  0.74140  0.00260  Biso   1.000  O
  O37      1.0000 0.86670  0.56500  0.97440  Biso   1.000  O
  O38      1.0000 0.44200  0.54630  0.72550  Biso   1.000  O
  O39      1.0000 0.47500  0.48900  0.84600  Biso   1.000  O
  O40      1.0000 0.50400  0.60210  0.83640  Biso   1.000  O
  P9       1.0000 0.49068  0.83610  0.69224  Biso   1.000  P
  P10      1.0000 0.27542  0.74403  0.49859  Biso   1.000  P
  S5       1.0000 0.99620  0.96680  0.29190  Biso   1.000  S
  C25      1.0000 0.29150  0.68760  0.72570  Biso   1.000  C
  H57      1.0000 0.30260  0.65560  0.68410  Biso   1.000  H
  H58      1.0000 0.32330  0.66860  0.77700  Biso   1.000  H
  C26      1.0000 0.31350  0.80790  0.77640  Biso   1.000  C
  H59      1.0000 0.34610  0.79140  0.82860  Biso   1.000  H
  H60      1.0000 0.33780  0.85430  0.76750  Biso   1.000  H
  C27      1.0000 0.43600  0.75190  0.71120  Biso   1.000  C
  H61      1.0000 0.46950  0.73300  0.76190  Biso   1.000  H
  H62      1.0000 0.44310  0.71850  0.66960  Biso   1.000  H
  C28      1.0000 0.20310  0.81430  0.26390  Biso   1.000  C
  H63      1.0000 0.13700  0.80010  0.25150  Biso   1.000  H
  H64      1.0000 0.20560  0.86390  0.27860  Biso   1.000  H
  C29      1.0000 0.25420  0.69540  0.30990  Biso   1.000  C
  H65      1.0000 0.29040  0.66830  0.35400  Biso   1.000  H
  H66      1.0000 0.18970  0.67770  0.29900  Biso   1.000  H
  C30      1.0000 0.21180  0.78530  0.40560  Biso   1.000  C
  H67      1.0000 0.20970  0.83590  0.41400  Biso   1.000  H
  H68      1.0000 0.14710  0.76820  0.39440  Biso   1.000  H
  N9       1.0000 0.33190  0.75830  0.71350  Biso   1.000  N
  H69      1.0000 0.30120  0.77510  0.66510  Biso   1.000  H
  N10      1.0000 0.25450  0.77190  0.33300  Biso   1.000  N
  H70      1.0000 0.31580  0.78680  0.34450  Biso   1.000  H
  O41      1.0000 0.52970  0.87020  0.77150  Biso   1.000  O
  O42      1.0000 0.56520  0.81460  0.64390  Biso   1.000  O
  O43      1.0000 0.41340  0.87800  0.63650  Biso   1.000  O
  O44      1.0000 0.25370  0.66510  0.49360  Biso   1.000  O
  O45      1.0000 0.23330  0.78030  0.56250  Biso   1.000  O
  O46      1.0000 0.37970  0.75860  0.50260  Biso   1.000  O
  O47      1.0000 0.36670  0.93500  0.47440  Biso   1.000  O
  O48      1.0000 0.94200  0.95370  0.22550  Biso   1.000  O
  O49      1.0000 0.97500  0.01100  0.34600  Biso   1.000  O
  O50      1.0000 0.00400  0.89790  0.33640  Biso   1.000  O
  P11      1.0000 0.99068  0.33610  0.19224  Biso   1.000  P
  P12      1.0000 0.77542  0.24403  0.99859  Biso   1.000  P
  S6       1.0000 0.49620  0.46680  0.79190  Biso   1.000  S
  C31      1.0000 0.79150  0.18760  0.22570  Biso   1.000  C
  H71      1.0000 0.80260  0.15560  0.18410  Biso   1.000  H
  H72      1.0000 0.82330  0.16860  0.27700  Biso   1.000  H
  C32      1.0000 0.81350  0.30790  0.27640  Biso   1.000  C
  H73      1.0000 0.84610  0.29140  0.32860  Biso   1.000  H
  H74      1.0000 0.83780  0.35430  0.26750  Biso   1.000  H
  C33      1.0000 0.93600  0.25190  0.21120  Biso   1.000  C
  H75      1.0000 0.96950  0.23300  0.26190  Biso   1.000  H
  H76      1.0000 0.94310  0.21850  0.16960  Biso   1.000  H
  C34      1.0000 0.70310  0.31430  0.76390  Biso   1.000  C
  H77      1.0000 0.63700  0.30010  0.75150  Biso   1.000  H
  H78      1.0000 0.70560  0.36390  0.77860  Biso   1.000  H
  C35      1.0000 0.75420  0.19540  0.80990  Biso   1.000  C
  H79      1.0000 0.79040  0.16830  0.85400  Biso   1.000  H
  H80      1.0000 0.68970  0.17770  0.79900  Biso   1.000  H
  C36      1.0000 0.71180  0.28530  0.90560  Biso   1.000  C
  H81      1.0000 0.70970  0.33590  0.91400  Biso   1.000  H
  H82      1.0000 0.64710  0.26820  0.89440  Biso   1.000  H
  N11      1.0000 0.83190  0.25830  0.21350  Biso   1.000  N
  H83      1.0000 0.80120  0.27510  0.16510  Biso   1.000  H
  N12      1.0000 0.75450  0.27190  0.83300  Biso   1.000  N
  H84      1.0000 0.81580  0.28680  0.84450  Biso   1.000  H
  O51      1.0000 0.02970  0.37020  0.27150  Biso   1.000  O
  O52      1.0000 0.06520  0.31460  0.14390  Biso   1.000  O
  O53      1.0000 0.91340  0.37800  0.13650  Biso   1.000  O
  O54      1.0000 0.75370  0.16510  0.99360  Biso   1.000  O
  O55      1.0000 0.73330  0.28030  0.06250  Biso   1.000  O
  O56      1.0000 0.87970  0.25860  0.00260  Biso   1.000  O
  O57      1.0000 0.86670  0.43500  0.97440  Biso   1.000  O
  O58      1.0000 0.44200  0.45370  0.72550  Biso   1.000  O
  O59      1.0000 0.47500  0.51100  0.84600  Biso   1.000  O
  O60      1.0000 0.50400  0.39790  0.83640  Biso   1.000  O
  P13      1.0000 0.50932  0.83610  0.30776  Biso   1.000  P
  P14      1.0000 0.72458  0.74403  0.50141  Biso   1.000  P
  S7       1.0000 0.00380  0.96680  0.70810  Biso   1.000  S
  C37      1.0000 0.70850  0.68760  0.27430  Biso   1.000  C
  H85      1.0000 0.69740  0.65560  0.31590  Biso   1.000  H
  H86      1.0000 0.67670  0.66860  0.22300  Biso   1.000  H
  C38      1.0000 0.68650  0.80790  0.22360  Biso   1.000  C
  H87      1.0000 0.65390  0.79140  0.17140  Biso   1.000  H
  H88      1.0000 0.66220  0.85430  0.23250  Biso   1.000  H
  C39      1.0000 0.56400  0.75190  0.28880  Biso   1.000  C
  H89      1.0000 0.53050  0.73300  0.23810  Biso   1.000  H
  H90      1.0000 0.55690  0.71850  0.33040  Biso   1.000  H
  C40      1.0000 0.79690  0.81430  0.73610  Biso   1.000  C
  H91      1.0000 0.86300  0.80010  0.74850  Biso   1.000  H
  H92      1.0000 0.79440  0.86390  0.72140  Biso   1.000  H
  C41      1.0000 0.74580  0.69540  0.69010  Biso   1.000  C
  H93      1.0000 0.70960  0.66830  0.64600  Biso   1.000  H
  H94      1.0000 0.81030  0.67770  0.70100  Biso   1.000  H
  C42      1.0000 0.78820  0.78530  0.59440  Biso   1.000  C
  H95      1.0000 0.79030  0.83590  0.58600  Biso   1.000  H
  H96      1.0000 0.85290  0.76820  0.60560  Biso   1.000  H
  N13      1.0000 0.66810  0.75830  0.28650  Biso   1.000  N
  H97      1.0000 0.69880  0.77510  0.33490  Biso   1.000  H
  N14      1.0000 0.74550  0.77190  0.66700  Biso   1.000  N
  H98      1.0000 0.68420  0.78680  0.65550  Biso   1.000  H
  O61      1.0000 0.47030  0.87020  0.22850  Biso   1.000  O
  O62      1.0000 0.43480  0.81460  0.35610  Biso   1.000  O
  O63      1.0000 0.58660  0.87800  0.36350  Biso   1.000  O
  O64      1.0000 0.74630  0.66510  0.50640  Biso   1.000  O
  O65      1.0000 0.76670  0.78030  0.43750  Biso   1.000  O
  O66      1.0000 0.62030  0.75860  0.49740  Biso   1.000  O
  O67      1.0000 0.63330  0.93500  0.52560  Biso   1.000  O
  O68      1.0000 0.05800  0.95370  0.77450  Biso   1.000  O
  O69      1.0000 0.02500  0.01100  0.65400  Biso   1.000  O
  O70      1.0000 0.99600  0.89790  0.66360  Biso   1.000  O
  P15      1.0000 0.00932  0.33610  0.80776  Biso   1.000  P
  P16      1.0000 0.22458  0.24403  0.00141  Biso   1.000  P
  S8       1.0000 0.50380  0.46680  0.20810  Biso   1.000  S
  C43      1.0000 0.20850  0.18760  0.77430  Biso   1.000  C
  H99      1.0000 0.19740  0.15560  0.81590  Biso   1.000  H
  H100     1.0000 0.17670  0.16860  0.72300  Biso   1.000  H
  C44      1.0000 0.18650  0.30790  0.72360  Biso   1.000  C
  H101     1.0000 0.15390  0.29140  0.67140  Biso   1.000  H
  H102     1.0000 0.16220  0.35430  0.73250  Biso   1.000  H
  C45      1.0000 0.06400  0.25190  0.78880  Biso   1.000  C
  H103     1.0000 0.03050  0.23300  0.73810  Biso   1.000  H
  H104     1.0000 0.05690  0.21850  0.83040  Biso   1.000  H
  C46      1.0000 0.29690  0.31430  0.23610  Biso   1.000  C
  H105     1.0000 0.36300  0.30010  0.24850  Biso   1.000  H
  H106     1.0000 0.29440  0.36390  0.22140  Biso   1.000  H
  C47      1.0000 0.24580  0.19540  0.19010  Biso   1.000  C
  H107     1.0000 0.20960  0.16830  0.14600  Biso   1.000  H
  H108     1.0000 0.31030  0.17770  0.20100  Biso   1.000  H
  C48      1.0000 0.28820  0.28530  0.09440  Biso   1.000  C
  H109     1.0000 0.29030  0.33590  0.08600  Biso   1.000  H
  H110     1.0000 0.35290  0.26820  0.10560  Biso   1.000  H
  N15      1.0000 0.16810  0.25830  0.78650  Biso   1.000  N
  H111     1.0000 0.19880  0.27510  0.83490  Biso   1.000  H
  N16      1.0000 0.24550  0.27190  0.16700  Biso   1.000  N
  H112     1.0000 0.18420  0.28680  0.15550  Biso   1.000  H
  O71      1.0000 0.97030  0.37020  0.72850  Biso   1.000  O
  O72      1.0000 0.93480  0.31460  0.85610  Biso   1.000  O
  O73      1.0000 0.08660  0.37800  0.86350  Biso   1.000  O
  O74      1.0000 0.24630  0.16510  0.00640  Biso   1.000  O
  O75      1.0000 0.26670  0.28030  0.93750  Biso   1.000  O
  O76      1.0000 0.12030  0.25860  0.99740  Biso   1.000  O
  O77      1.0000 0.13330  0.43500  0.02560  Biso   1.000  O
  O78      1.0000 0.55800  0.45370  0.27450  Biso   1.000  O
  O79      1.0000 0.52500  0.51100  0.15400  Biso   1.000  O
  O80      1.0000 0.49600  0.39790  0.16360  Biso   1.000  O
  La1      1.0000 0.50000  0.15240  0.50000  Biso   1.000  La
  La2      1.0000 0.00000  0.65240  0.00000  Biso   1.000  La
  La3      1.0000 0.50000  0.84760  0.50000  Biso   1.000  La
  La4      1.0000 0.00000  0.34760  0.00000  Biso   1.000  La
  La5      1.0000 0.64612  0.00000  0.38909  Biso   1.000  La
  P17      1.0000 0.62140  0.00000  0.57595  Biso   1.000  P
  C49      1.0000 0.88330  0.00000  0.71960  Biso   1.000  C
  C50      1.0000 0.86600  0.00000  0.79610  Biso   1.000  C
  H113     1.0000 0.91600  0.00000  0.84020  Biso   1.000  H
  C51      1.0000 0.77300  0.00000  0.80620  Biso   1.000  C
  H114     1.0000 0.76010  0.00000  0.85740  Biso   1.000  H
  C52      1.0000 0.69880  0.00000  0.73950  Biso   1.000  C
  H115     1.0000 0.63650  0.00000  0.74660  Biso   1.000  H
  C53      1.0000 0.71670  0.00000  0.66300  Biso   1.000  C
  C54      1.0000 0.81120  0.00000  0.65280  Biso   1.000  C
  H116     1.0000 0.82480  0.00000  0.60170  Biso   1.000  H
  O81      1.0000 0.52700  0.00000  0.60120  Biso   1.000  O
  La6      1.0000 0.14612  0.50000  0.88909  Biso   1.000  La
  P18      1.0000 0.12140  0.50000  0.07595  Biso   1.000  P
  C55      1.0000 0.38330  0.50000  0.21960  Biso   1.000  C
  C56      1.0000 0.36600  0.50000  0.29610  Biso   1.000  C
  H117     1.0000 0.41600  0.50000  0.34020  Biso   1.000  H
  C57      1.0000 0.27300  0.50000  0.30620  Biso   1.000  C
  H118     1.0000 0.26010  0.50000  0.35740  Biso   1.000  H
  C58      1.0000 0.19880  0.50000  0.23950  Biso   1.000  C
  H119     1.0000 0.13650  0.50000  0.24660  Biso   1.000  H
  C59      1.0000 0.21670  0.50000  0.16300  Biso   1.000  C
  C60      1.0000 0.31120  0.50000  0.15280  Biso   1.000  C
  H120     1.0000 0.32480  0.50000  0.10170  Biso   1.000  H
  O82      1.0000 0.02700  0.50000  0.10120  Biso   1.000  O
  La7      1.0000 0.35388  0.00000  0.61091  Biso   1.000  La
  P19      1.0000 0.37860  0.00000  0.42405  Biso   1.000  P
  C61      1.0000 0.11670  0.00000  0.28040  Biso   1.000  C
  C62      1.0000 0.13400  0.00000  0.20390  Biso   1.000  C
  H121     1.0000 0.08400  0.00000  0.15980  Biso   1.000  H
  C63      1.0000 0.22700  0.00000  0.19380  Biso   1.000  C
  H122     1.0000 0.23990  0.00000  0.14260  Biso   1.000  H
  C64      1.0000 0.30120  0.00000  0.26050  Biso   1.000  C
  H123     1.0000 0.36350  0.00000  0.25340  Biso   1.000  H
  C65      1.0000 0.28330  0.00000  0.33700  Biso   1.000  C
  C66      1.0000 0.18880  0.00000  0.34720  Biso   1.000  C
  H124     1.0000 0.17520  0.00000  0.39830  Biso   1.000  H
  O83      1.0000 0.47300  0.00000  0.39880  Biso   1.000  O
  La8      1.0000 0.85388  0.50000  0.11091  Biso   1.000  La
  P20      1.0000 0.87860  0.50000  0.92405  Biso   1.000  P
  C67      1.0000 0.61670  0.50000  0.78040  Biso   1.000  C
  C68      1.0000 0.63400  0.50000  0.70390  Biso   1.000  C
  H125     1.0000 0.58400  0.50000  0.65980  Biso   1.000  H
  C69      1.0000 0.72700  0.50000  0.69380  Biso   1.000  C
  H126     1.0000 0.73990  0.50000  0.64260  Biso   1.000  H
  C70      1.0000 0.80120  0.50000  0.76050  Biso   1.000  C
  H127     1.0000 0.86350  0.50000  0.75340  Biso   1.000  H
  C71      1.0000 0.78330  0.50000  0.83700  Biso   1.000  C
  C72      1.0000 0.68880  0.50000  0.84720  Biso   1.000  C
  H128     1.0000 0.67520  0.50000  0.89830  Biso   1.000  H
  O84      1.0000 0.97300  0.50000  0.89880  Biso   1.000  O
