data_image0
_cell_length_a       13.4578
_cell_length_b       13.4578
_cell_length_c       27.6928
_cell_angle_alpha    90
_cell_angle_beta     90
_cell_angle_gamma    120

_symmetry_space_group_name_H-M    "P 1"
_symmetry_int_tables_number       1

loop_
  _symmetry_equiv_pos_as_xyz
  'x, y, z'

loop_
  _atom_site_label
  _atom_site_occupancy
  _atom_site_fract_x
  _atom_site_fract_y
  _atom_site_fract_z
  _atom_site_thermal_displace_type
  _atom_site_B_iso_or_equiv
  _atom_site_type_symbol
  V1       1.0000 0.29268  0.85809  0.52647  Biso   1.000  V
  P1       1.0000 0.16220  0.97502  0.58422  Biso   1.000  P
  P2       1.0000 0.12733  0.63089  0.46359  Biso   1.000  P
  O1       1.0000 0.15100  0.71840  0.50314  Biso   1.000  O
  O2       1.0000 0.16790  0.54780  0.47575  Biso   1.000  O
  O3       1.0000 0.00080  0.57040  0.44996  Biso   1.000  O
  O4       1.0000 0.18720  0.88000  0.56994  Biso   1.000  O
  O5       1.0000 0.32450  0.77220  0.57655  Biso   1.000  O
  O6       1.0000 0.14250  0.07730  0.70448  Biso   1.000  O
  O7       1.0000 0.06950  0.92830  0.62252  Biso   1.000  O
  O8       1.0000 0.13670  0.02860  0.54065  Biso   1.000  O
  H1       1.0000 0.26000  0.06000  0.60480  Biso   1.000  H
  H2       1.0000 0.18700  0.68200  0.42490  Biso   1.000  H
  V2       1.0000 0.14191  0.43459  0.52647  Biso   1.000  V
  P3       1.0000 0.02498  0.18718  0.58422  Biso   1.000  P
  P4       1.0000 0.36911  0.49644  0.46359  Biso   1.000  P
  O9       1.0000 0.28160  0.43260  0.50314  Biso   1.000  O
  O10      1.0000 0.45220  0.62010  0.47575  Biso   1.000  O
  O11      1.0000 0.42960  0.43040  0.44996  Biso   1.000  O
  O12      1.0000 0.12000  0.30720  0.56994  Biso   1.000  O
  O13      1.0000 0.22780  0.55230  0.57655  Biso   1.000  O
  O14      1.0000 0.92270  0.06520  0.70448  Biso   1.000  O
  O15      1.0000 0.07170  0.14120  0.62252  Biso   1.000  O
  O16      1.0000 0.97140  0.10810  0.54065  Biso   1.000  O
  H3       1.0000 0.94000  0.20000  0.60480  Biso   1.000  H
  H4       1.0000 0.31800  0.50500  0.42490  Biso   1.000  H
  V3       1.0000 0.56541  0.70732  0.52647  Biso   1.000  V
  P5       1.0000 0.81282  0.83780  0.58422  Biso   1.000  P
  P6       1.0000 0.50356  0.87267  0.46359  Biso   1.000  P
  O17      1.0000 0.56740  0.84900  0.50314  Biso   1.000  O
  O18      1.0000 0.37990  0.83210  0.47575  Biso   1.000  O
  O19      1.0000 0.56960  0.99920  0.44996  Biso   1.000  O
  O20      1.0000 0.69280  0.81280  0.56994  Biso   1.000  O
  O21      1.0000 0.44770  0.67550  0.57655  Biso   1.000  O
  O22      1.0000 0.93480  0.85750  0.70448  Biso   1.000  O
  O23      1.0000 0.85880  0.93050  0.62252  Biso   1.000  O
  O24      1.0000 0.89190  0.86330  0.54065  Biso   1.000  O
  H5       1.0000 0.80000  0.74000  0.60480  Biso   1.000  H
  H6       1.0000 0.49500  0.81300  0.42490  Biso   1.000  H
  V4       1.0000 0.70732  0.14191  0.02647  Biso   1.000  V
  P7       1.0000 0.83780  0.02498  0.08422  Biso   1.000  P
  P8       1.0000 0.87267  0.36911  0.96359  Biso   1.000  P
  O25      1.0000 0.84900  0.28160  0.00314  Biso   1.000  O
  O26      1.0000 0.83210  0.45220  0.97575  Biso   1.000  O
  O27      1.0000 0.99920  0.42960  0.94996  Biso   1.000  O
  O28      1.0000 0.81280  0.12000  0.06994  Biso   1.000  O
  O29      1.0000 0.67550  0.22780  0.07655  Biso   1.000  O
  O30      1.0000 0.85750  0.92270  0.20448  Biso   1.000  O
  O31      1.0000 0.93050  0.07170  0.12252  Biso   1.000  O
  O32      1.0000 0.86330  0.97140  0.04065  Biso   1.000  O
  H7       1.0000 0.74000  0.94000  0.10480  Biso   1.000  H
  H8       1.0000 0.81300  0.31800  0.92490  Biso   1.000  H
  V5       1.0000 0.85809  0.56541  0.02647  Biso   1.000  V
  P9       1.0000 0.97502  0.81282  0.08422  Biso   1.000  P
  P10      1.0000 0.63089  0.50356  0.96359  Biso   1.000  P
  O33      1.0000 0.71840  0.56740  0.00314  Biso   1.000  O
  O34      1.0000 0.54780  0.37990  0.97575  Biso   1.000  O
  O35      1.0000 0.57040  0.56960  0.94996  Biso   1.000  O
  O36      1.0000 0.88000  0.69280  0.06994  Biso   1.000  O
  O37      1.0000 0.77220  0.44770  0.07655  Biso   1.000  O
  O38      1.0000 0.07730  0.93480  0.20448  Biso   1.000  O
  O39      1.0000 0.92830  0.85880  0.12252  Biso   1.000  O
  O40      1.0000 0.02860  0.89190  0.04065  Biso   1.000  O
  H9       1.0000 0.06000  0.80000  0.10480  Biso   1.000  H
  H10      1.0000 0.68200  0.49500  0.92490  Biso   1.000  H
  V6       1.0000 0.43459  0.29268  0.02647  Biso   1.000  V
  P11      1.0000 0.18718  0.16220  0.08422  Biso   1.000  P
  P12      1.0000 0.49644  0.12733  0.96359  Biso   1.000  P
  O41      1.0000 0.43260  0.15100  0.00314  Biso   1.000  O
  O42      1.0000 0.62010  0.16790  0.97575  Biso   1.000  O
  O43      1.0000 0.43040  0.00080  0.94996  Biso   1.000  O
  O44      1.0000 0.30720  0.18720  0.06994  Biso   1.000  O
  O45      1.0000 0.55230  0.32450  0.07655  Biso   1.000  O
  O46      1.0000 0.06520  0.14250  0.20448  Biso   1.000  O
  O47      1.0000 0.14120  0.06950  0.12252  Biso   1.000  O
  O48      1.0000 0.10810  0.13670  0.04065  Biso   1.000  O
  H11      1.0000 0.20000  0.26000  0.10480  Biso   1.000  H
  H12      1.0000 0.50500  0.18700  0.92490  Biso   1.000  H
  V7       1.0000 0.70732  0.14191  0.47353  Biso   1.000  V
  P13      1.0000 0.83780  0.02498  0.41578  Biso   1.000  P
  P14      1.0000 0.87267  0.36911  0.53641  Biso   1.000  P
  O49      1.0000 0.84900  0.28160  0.49686  Biso   1.000  O
  O50      1.0000 0.83210  0.45220  0.52425  Biso   1.000  O
  O51      1.0000 0.99920  0.42960  0.55004  Biso   1.000  O
  O52      1.0000 0.81280  0.12000  0.43006  Biso   1.000  O
  O53      1.0000 0.67550  0.22780  0.42345  Biso   1.000  O
  O54      1.0000 0.85750  0.92270  0.29552  Biso   1.000  O
  O55      1.0000 0.93050  0.07170  0.37748  Biso   1.000  O
  O56      1.0000 0.86330  0.97140  0.45935  Biso   1.000  O
  H13      1.0000 0.74000  0.94000  0.39520  Biso   1.000  H
  H14      1.0000 0.81300  0.31800  0.57510  Biso   1.000  H
  V8       1.0000 0.85809  0.56541  0.47353  Biso   1.000  V
  P15      1.0000 0.97502  0.81282  0.41578  Biso   1.000  P
  P16      1.0000 0.63089  0.50356  0.53641  Biso   1.000  P
  O57      1.0000 0.71840  0.56740  0.49686  Biso   1.000  O
  O58      1.0000 0.54780  0.37990  0.52425  Biso   1.000  O
  O59      1.0000 0.57040  0.56960  0.55004  Biso   1.000  O
  O60      1.0000 0.88000  0.69280  0.43006  Biso   1.000  O
  O61      1.0000 0.77220  0.44770  0.42345  Biso   1.000  O
  O62      1.0000 0.07730  0.93480  0.29552  Biso   1.000  O
  O63      1.0000 0.92830  0.85880  0.37748  Biso   1.000  O
  O64      1.0000 0.02860  0.89190  0.45935  Biso   1.000  O
  H15      1.0000 0.06000  0.80000  0.39520  Biso   1.000  H
  H16      1.0000 0.68200  0.49500  0.57510  Biso   1.000  H
  V9       1.0000 0.43459  0.29268  0.47353  Biso   1.000  V
  P17      1.0000 0.18718  0.16220  0.41578  Biso   1.000  P
  P18      1.0000 0.49644  0.12733  0.53641  Biso   1.000  P
  O65      1.0000 0.43260  0.15100  0.49686  Biso   1.000  O
  O66      1.0000 0.62010  0.16790  0.52425  Biso   1.000  O
  O67      1.0000 0.43040  0.00080  0.55004  Biso   1.000  O
  O68      1.0000 0.30720  0.18720  0.43006  Biso   1.000  O
  O69      1.0000 0.55230  0.32450  0.42345  Biso   1.000  O
  O70      1.0000 0.06520  0.14250  0.29552  Biso   1.000  O
  O71      1.0000 0.14120  0.06950  0.37748  Biso   1.000  O
  O72      1.0000 0.10810  0.13670  0.45935  Biso   1.000  O
  H17      1.0000 0.20000  0.26000  0.39520  Biso   1.000  H
  H18      1.0000 0.50500  0.18700  0.57510  Biso   1.000  H
  V10      1.0000 0.29268  0.85809  0.97353  Biso   1.000  V
  P19      1.0000 0.16220  0.97502  0.91578  Biso   1.000  P
  P20      1.0000 0.12733  0.63089  0.03641  Biso   1.000  P
  O73      1.0000 0.15100  0.71840  0.99686  Biso   1.000  O
  O74      1.0000 0.16790  0.54780  0.02425  Biso   1.000  O
  O75      1.0000 0.00080  0.57040  0.05004  Biso   1.000  O
  O76      1.0000 0.18720  0.88000  0.93006  Biso   1.000  O
  O77      1.0000 0.32450  0.77220  0.92345  Biso   1.000  O
  O78      1.0000 0.14250  0.07730  0.79552  Biso   1.000  O
  O79      1.0000 0.06950  0.92830  0.87748  Biso   1.000  O
  O80      1.0000 0.13670  0.02860  0.95935  Biso   1.000  O
  H19      1.0000 0.26000  0.06000  0.89520  Biso   1.000  H
  H20      1.0000 0.18700  0.68200  0.07510  Biso   1.000  H
  V11      1.0000 0.14191  0.43459  0.97353  Biso   1.000  V
  P21      1.0000 0.02498  0.18718  0.91578  Biso   1.000  P
  P22      1.0000 0.36911  0.49644  0.03641  Biso   1.000  P
  O81      1.0000 0.28160  0.43260  0.99686  Biso   1.000  O
  O82      1.0000 0.45220  0.62010  0.02425  Biso   1.000  O
  O83      1.0000 0.42960  0.43040  0.05004  Biso   1.000  O
  O84      1.0000 0.12000  0.30720  0.93006  Biso   1.000  O
  O85      1.0000 0.22780  0.55230  0.92345  Biso   1.000  O
  O86      1.0000 0.92270  0.06520  0.79552  Biso   1.000  O
  O87      1.0000 0.07170  0.14120  0.87748  Biso   1.000  O
  O88      1.0000 0.97140  0.10810  0.95935  Biso   1.000  O
  H21      1.0000 0.94000  0.20000  0.89520  Biso   1.000  H
  H22      1.0000 0.31800  0.50500  0.07510  Biso   1.000  H
  V12      1.0000 0.56541  0.70732  0.97353  Biso   1.000  V
  P23      1.0000 0.81282  0.83780  0.91578  Biso   1.000  P
  P24      1.0000 0.50356  0.87267  0.03641  Biso   1.000  P
  O89      1.0000 0.56740  0.84900  0.99686  Biso   1.000  O
  O90      1.0000 0.37990  0.83210  0.02425  Biso   1.000  O
  O91      1.0000 0.56960  0.99920  0.05004  Biso   1.000  O
  O92      1.0000 0.69280  0.81280  0.93006  Biso   1.000  O
  O93      1.0000 0.44770  0.67550  0.92345  Biso   1.000  O
  O94      1.0000 0.93480  0.85750  0.79552  Biso   1.000  O
  O95      1.0000 0.85880  0.93050  0.87748  Biso   1.000  O
  O96      1.0000 0.89190  0.86330  0.95935  Biso   1.000  O
  H23      1.0000 0.80000  0.74000  0.89520  Biso   1.000  H
  H24      1.0000 0.49500  0.81300  0.07510  Biso   1.000  H
  V13      1.0000 0.00000  0.00000  0.50000  Biso   1.000  V
  V14      1.0000 0.00000  0.00000  0.00000  Biso   1.000  V
  V15      1.0000 0.00000  0.00000  0.66396  Biso   1.000  V
  V16      1.0000 0.00000  0.00000  0.16396  Biso   1.000  V
  V17      1.0000 0.00000  0.00000  0.33604  Biso   1.000  V
  V18      1.0000 0.00000  0.00000  0.83604  Biso   1.000  V
  P25      1.0000 0.33333  0.66667  0.58968  Biso   1.000  P
  H25      1.0000 0.33333  0.66667  0.63670  Biso   1.000  H
  P26      1.0000 0.66667  0.33333  0.08968  Biso   1.000  P
  H26      1.0000 0.66667  0.33333  0.13670  Biso   1.000  H
  P27      1.0000 0.66667  0.33333  0.41032  Biso   1.000  P
  H27      1.0000 0.66667  0.33333  0.36330  Biso   1.000  H
  P28      1.0000 0.33333  0.66667  0.91032  Biso   1.000  P
  H28      1.0000 0.33333  0.66667  0.86330  Biso   1.000  H
  P29      1.0000 0.19134  0.06211  0.75000  Biso   1.000  P
  O97      1.0000 0.31960  0.14350  0.75000  Biso   1.000  O
  H29      1.0000 0.33270  0.20990  0.75000  Biso   1.000  H
  H30      1.0000 0.17800  0.95910  0.75000  Biso   1.000  H
  O98      1.0000 0.20000  0.95500  0.75000  Biso   1.000  O
  H31      1.0000 0.13540  0.89840  0.75000  Biso   1.000  H
  P30      1.0000 0.93789  0.12923  0.75000  Biso   1.000  P
  O99      1.0000 0.85650  0.17610  0.75000  Biso   1.000  O
  H32      1.0000 0.79010  0.12280  0.75000  Biso   1.000  H
  H33      1.0000 0.04090  0.21890  0.75000  Biso   1.000  H
  O100     1.0000 0.04500  0.24500  0.75000  Biso   1.000  O
  H34      1.0000 0.10160  0.23700  0.75000  Biso   1.000  H
  P31      1.0000 0.87077  0.80866  0.75000  Biso   1.000  P
  O101     1.0000 0.82390  0.68040  0.75000  Biso   1.000  O
  H35      1.0000 0.87720  0.66730  0.75000  Biso   1.000  H
  H36      1.0000 0.78110  0.82200  0.75000  Biso   1.000  H
  O102     1.0000 0.75500  0.80000  0.75000  Biso   1.000  O
  H37      1.0000 0.76300  0.86460  0.75000  Biso   1.000  H
  P32      1.0000 0.80866  0.93789  0.25000  Biso   1.000  P
  O103     1.0000 0.68040  0.85650  0.25000  Biso   1.000  O
  H38      1.0000 0.66730  0.79010  0.25000  Biso   1.000  H
  H39      1.0000 0.82200  0.04090  0.25000  Biso   1.000  H
  O104     1.0000 0.80000  0.04500  0.25000  Biso   1.000  O
  H40      1.0000 0.86460  0.10160  0.25000  Biso   1.000  H
  P33      1.0000 0.06211  0.87077  0.25000  Biso   1.000  P
  O105     1.0000 0.14350  0.82390  0.25000  Biso   1.000  O
  H41      1.0000 0.20990  0.87720  0.25000  Biso   1.000  H
  H42      1.0000 0.95910  0.78110  0.25000  Biso   1.000  H
  O106     1.0000 0.95500  0.75500  0.25000  Biso   1.000  O
  H43      1.0000 0.89840  0.76300  0.25000  Biso   1.000  H
  P34      1.0000 0.12923  0.19134  0.25000  Biso   1.000  P
  O107     1.0000 0.17610  0.31960  0.25000  Biso   1.000  O
  H44      1.0000 0.12280  0.33270  0.25000  Biso   1.000  H
  H45      1.0000 0.21890  0.17800  0.25000  Biso   1.000  H
  O108     1.0000 0.24500  0.20000  0.25000  Biso   1.000  O
  H46      1.0000 0.23700  0.13540  0.25000  Biso   1.000  H
