data_image0
_cell_length_a       13.4107
_cell_length_b       13.4107
_cell_length_c       27.5678
_cell_angle_alpha    90
_cell_angle_beta     90
_cell_angle_gamma    120

_symmetry_space_group_name_H-M    "P 1"
_symmetry_int_tables_number       1

loop_
  _symmetry_equiv_pos_as_xyz
  'x, y, z'

loop_
  _atom_site_label
  _atom_site_occupancy
  _atom_site_fract_x
  _atom_site_fract_y
  _atom_site_fract_z
  _atom_site_thermal_displace_type
  _atom_site_B_iso_or_equiv
  _atom_site_type_symbol
  V1       1.0000 0.29205  0.85656  0.52727  Biso   1.000  V
  P1       1.0000 0.16072  0.97361  0.58504  Biso   1.000  P
  P2       1.0000 0.12631  0.63004  0.46384  Biso   1.000  P
  O1       1.0000 0.14950  0.71620  0.50424  Biso   1.000  O
  O2       1.0000 0.16890  0.54750  0.47584  Biso   1.000  O
  O3       1.0000 0.00000  0.56860  0.44972  Biso   1.000  O
  O4       1.0000 0.18790  0.87980  0.57110  Biso   1.000  O
  O5       1.0000 0.32470  0.77130  0.57724  Biso   1.000  O
  O6       1.0000 0.14380  0.07140  0.70438  Biso   1.000  O
  O7       1.0000 0.06560  0.92530  0.62269  Biso   1.000  O
  O8       1.0000 0.13610  0.02660  0.54056  Biso   1.000  O
  H1       1.0000 0.25240  0.05610  0.60540  Biso   1.000  H
  O9       1.0000 0.19450  0.69500  0.41890  Biso   1.000  O
  H2       1.0000 0.17510  0.74150  0.41060  Biso   1.000  H
  O10      1.0000 0.26310  0.07040  0.61040  Biso   1.000  O
  H3       1.0000 0.31780  0.10010  0.59160  Biso   1.000  H
  H4       1.0000 0.33790  0.61140  0.65570  Biso   1.000  H
  H5       1.0000 0.18400  0.68900  0.42610  Biso   1.000  H
  V2       1.0000 0.14344  0.43549  0.52727  Biso   1.000  V
  P3       1.0000 0.02639  0.18711  0.58504  Biso   1.000  P
  P4       1.0000 0.36996  0.49627  0.46384  Biso   1.000  P
  O11      1.0000 0.28380  0.43330  0.50424  Biso   1.000  O
  O12      1.0000 0.45250  0.62140  0.47584  Biso   1.000  O
  O13      1.0000 0.43140  0.43140  0.44972  Biso   1.000  O
  O14      1.0000 0.12020  0.30810  0.57110  Biso   1.000  O
  O15      1.0000 0.22870  0.55340  0.57724  Biso   1.000  O
  O16      1.0000 0.92860  0.07240  0.70438  Biso   1.000  O
  O17      1.0000 0.07470  0.14030  0.62269  Biso   1.000  O
  O18      1.0000 0.97340  0.10950  0.54056  Biso   1.000  O
  H6       1.0000 0.94390  0.19630  0.60540  Biso   1.000  H
  O19      1.0000 0.30500  0.49950  0.41890  Biso   1.000  O
  H7       1.0000 0.25850  0.43360  0.41060  Biso   1.000  H
  O20      1.0000 0.92960  0.19270  0.61040  Biso   1.000  O
  H8       1.0000 0.89990  0.21770  0.59160  Biso   1.000  H
  H9       1.0000 0.38860  0.72650  0.65570  Biso   1.000  H
  H10      1.0000 0.31100  0.49500  0.42610  Biso   1.000  H
  V3       1.0000 0.56451  0.70795  0.52727  Biso   1.000  V
  P5       1.0000 0.81289  0.83928  0.58504  Biso   1.000  P
  P6       1.0000 0.50373  0.87369  0.46384  Biso   1.000  P
  O21      1.0000 0.56670  0.85050  0.50424  Biso   1.000  O
  O22      1.0000 0.37860  0.83110  0.47584  Biso   1.000  O
  O23      1.0000 0.56860  0.00000  0.44972  Biso   1.000  O
  O24      1.0000 0.69190  0.81210  0.57110  Biso   1.000  O
  O25      1.0000 0.44660  0.67530  0.57724  Biso   1.000  O
  O26      1.0000 0.92760  0.85620  0.70438  Biso   1.000  O
  O27      1.0000 0.85970  0.93440  0.62269  Biso   1.000  O
  O28      1.0000 0.89050  0.86390  0.54056  Biso   1.000  O
  H11      1.0000 0.80370  0.74760  0.60540  Biso   1.000  H
  O29      1.0000 0.50050  0.80550  0.41890  Biso   1.000  O
  H12      1.0000 0.56640  0.82490  0.41060  Biso   1.000  H
  O30      1.0000 0.80730  0.73690  0.61040  Biso   1.000  O
  H13      1.0000 0.78230  0.68220  0.59160  Biso   1.000  H
  H14      1.0000 0.27350  0.66210  0.65570  Biso   1.000  H
  H15      1.0000 0.50500  0.81600  0.42610  Biso   1.000  H
  V4       1.0000 0.70795  0.14344  0.02727  Biso   1.000  V
  P7       1.0000 0.83928  0.02639  0.08504  Biso   1.000  P
  P8       1.0000 0.87369  0.36996  0.96384  Biso   1.000  P
  O31      1.0000 0.85050  0.28380  0.00424  Biso   1.000  O
  O32      1.0000 0.83110  0.45250  0.97584  Biso   1.000  O
  O33      1.0000 0.00000  0.43140  0.94972  Biso   1.000  O
  O34      1.0000 0.81210  0.12020  0.07110  Biso   1.000  O
  O35      1.0000 0.67530  0.22870  0.07724  Biso   1.000  O
  O36      1.0000 0.85620  0.92860  0.20438  Biso   1.000  O
  O37      1.0000 0.93440  0.07470  0.12269  Biso   1.000  O
  O38      1.0000 0.86390  0.97340  0.04056  Biso   1.000  O
  H16      1.0000 0.74760  0.94390  0.10540  Biso   1.000  H
  O39      1.0000 0.80550  0.30500  0.91890  Biso   1.000  O
  H17      1.0000 0.82490  0.25850  0.91060  Biso   1.000  H
  O40      1.0000 0.73690  0.92960  0.11040  Biso   1.000  O
  H18      1.0000 0.68220  0.89990  0.09160  Biso   1.000  H
  H19      1.0000 0.66210  0.38860  0.15570  Biso   1.000  H
  H20      1.0000 0.81600  0.31100  0.92610  Biso   1.000  H
  V5       1.0000 0.85656  0.56451  0.02727  Biso   1.000  V
  P9       1.0000 0.97361  0.81289  0.08504  Biso   1.000  P
  P10      1.0000 0.63004  0.50373  0.96384  Biso   1.000  P
  O41      1.0000 0.71620  0.56670  0.00424  Biso   1.000  O
  O42      1.0000 0.54750  0.37860  0.97584  Biso   1.000  O
  O43      1.0000 0.56860  0.56860  0.94972  Biso   1.000  O
  O44      1.0000 0.87980  0.69190  0.07110  Biso   1.000  O
  O45      1.0000 0.77130  0.44660  0.07724  Biso   1.000  O
  O46      1.0000 0.07140  0.92760  0.20438  Biso   1.000  O
  O47      1.0000 0.92530  0.85970  0.12269  Biso   1.000  O
  O48      1.0000 0.02660  0.89050  0.04056  Biso   1.000  O
  H21      1.0000 0.05610  0.80370  0.10540  Biso   1.000  H
  O49      1.0000 0.69500  0.50050  0.91890  Biso   1.000  O
  H22      1.0000 0.74150  0.56640  0.91060  Biso   1.000  H
  O50      1.0000 0.07040  0.80730  0.11040  Biso   1.000  O
  H23      1.0000 0.10010  0.78230  0.09160  Biso   1.000  H
  H24      1.0000 0.61140  0.27350  0.15570  Biso   1.000  H
  H25      1.0000 0.68900  0.50500  0.92610  Biso   1.000  H
  V6       1.0000 0.43549  0.29205  0.02727  Biso   1.000  V
  P11      1.0000 0.18711  0.16072  0.08504  Biso   1.000  P
  P12      1.0000 0.49627  0.12631  0.96384  Biso   1.000  P
  O51      1.0000 0.43330  0.14950  0.00424  Biso   1.000  O
  O52      1.0000 0.62140  0.16890  0.97584  Biso   1.000  O
  O53      1.0000 0.43140  0.00000  0.94972  Biso   1.000  O
  O54      1.0000 0.30810  0.18790  0.07110  Biso   1.000  O
  O55      1.0000 0.55340  0.32470  0.07724  Biso   1.000  O
  O56      1.0000 0.07240  0.14380  0.20438  Biso   1.000  O
  O57      1.0000 0.14030  0.06560  0.12269  Biso   1.000  O
  O58      1.0000 0.10950  0.13610  0.04056  Biso   1.000  O
  H26      1.0000 0.19630  0.25240  0.10540  Biso   1.000  H
  O59      1.0000 0.49950  0.19450  0.91890  Biso   1.000  O
  H27      1.0000 0.43360  0.17510  0.91060  Biso   1.000  H
  O60      1.0000 0.19270  0.26310  0.11040  Biso   1.000  O
  H28      1.0000 0.21770  0.31780  0.09160  Biso   1.000  H
  H29      1.0000 0.72650  0.33790  0.15570  Biso   1.000  H
  H30      1.0000 0.49500  0.18400  0.92610  Biso   1.000  H
  V7       1.0000 0.70795  0.14344  0.47273  Biso   1.000  V
  P13      1.0000 0.83928  0.02639  0.41496  Biso   1.000  P
  P14      1.0000 0.87369  0.36996  0.53616  Biso   1.000  P
  O61      1.0000 0.85050  0.28380  0.49576  Biso   1.000  O
  O62      1.0000 0.83110  0.45250  0.52416  Biso   1.000  O
  O63      1.0000 0.00000  0.43140  0.55028  Biso   1.000  O
  O64      1.0000 0.81210  0.12020  0.42890  Biso   1.000  O
  O65      1.0000 0.67530  0.22870  0.42276  Biso   1.000  O
  O66      1.0000 0.85620  0.92860  0.29562  Biso   1.000  O
  O67      1.0000 0.93440  0.07470  0.37731  Biso   1.000  O
  O68      1.0000 0.86390  0.97340  0.45944  Biso   1.000  O
  H31      1.0000 0.74760  0.94390  0.39460  Biso   1.000  H
  O69      1.0000 0.80550  0.30500  0.58110  Biso   1.000  O
  H32      1.0000 0.82490  0.25850  0.58940  Biso   1.000  H
  O70      1.0000 0.73690  0.92960  0.38960  Biso   1.000  O
  H33      1.0000 0.68220  0.89990  0.40840  Biso   1.000  H
  H34      1.0000 0.66210  0.38860  0.34430  Biso   1.000  H
  H35      1.0000 0.81600  0.31100  0.57390  Biso   1.000  H
  V8       1.0000 0.85656  0.56451  0.47273  Biso   1.000  V
  P15      1.0000 0.97361  0.81289  0.41496  Biso   1.000  P
  P16      1.0000 0.63004  0.50373  0.53616  Biso   1.000  P
  O71      1.0000 0.71620  0.56670  0.49576  Biso   1.000  O
  O72      1.0000 0.54750  0.37860  0.52416  Biso   1.000  O
  O73      1.0000 0.56860  0.56860  0.55028  Biso   1.000  O
  O74      1.0000 0.87980  0.69190  0.42890  Biso   1.000  O
  O75      1.0000 0.77130  0.44660  0.42276  Biso   1.000  O
  O76      1.0000 0.07140  0.92760  0.29562  Biso   1.000  O
  O77      1.0000 0.92530  0.85970  0.37731  Biso   1.000  O
  O78      1.0000 0.02660  0.89050  0.45944  Biso   1.000  O
  H36      1.0000 0.05610  0.80370  0.39460  Biso   1.000  H
  O79      1.0000 0.69500  0.50050  0.58110  Biso   1.000  O
  H37      1.0000 0.74150  0.56640  0.58940  Biso   1.000  H
  O80      1.0000 0.07040  0.80730  0.38960  Biso   1.000  O
  H38      1.0000 0.10010  0.78230  0.40840  Biso   1.000  H
  H39      1.0000 0.61140  0.27350  0.34430  Biso   1.000  H
  H40      1.0000 0.68900  0.50500  0.57390  Biso   1.000  H
  V9       1.0000 0.43549  0.29205  0.47273  Biso   1.000  V
  P17      1.0000 0.18711  0.16072  0.41496  Biso   1.000  P
  P18      1.0000 0.49627  0.12631  0.53616  Biso   1.000  P
  O81      1.0000 0.43330  0.14950  0.49576  Biso   1.000  O
  O82      1.0000 0.62140  0.16890  0.52416  Biso   1.000  O
  O83      1.0000 0.43140  0.00000  0.55028  Biso   1.000  O
  O84      1.0000 0.30810  0.18790  0.42890  Biso   1.000  O
  O85      1.0000 0.55340  0.32470  0.42276  Biso   1.000  O
  O86      1.0000 0.07240  0.14380  0.29562  Biso   1.000  O
  O87      1.0000 0.14030  0.06560  0.37731  Biso   1.000  O
  O88      1.0000 0.10950  0.13610  0.45944  Biso   1.000  O
  H41      1.0000 0.19630  0.25240  0.39460  Biso   1.000  H
  O89      1.0000 0.49950  0.19450  0.58110  Biso   1.000  O
  H42      1.0000 0.43360  0.17510  0.58940  Biso   1.000  H
  O90      1.0000 0.19270  0.26310  0.38960  Biso   1.000  O
  H43      1.0000 0.21770  0.31780  0.40840  Biso   1.000  H
  H44      1.0000 0.72650  0.33790  0.34430  Biso   1.000  H
  H45      1.0000 0.49500  0.18400  0.57390  Biso   1.000  H
  V10      1.0000 0.29205  0.85656  0.97273  Biso   1.000  V
  P19      1.0000 0.16072  0.97361  0.91496  Biso   1.000  P
  P20      1.0000 0.12631  0.63004  0.03616  Biso   1.000  P
  O91      1.0000 0.14950  0.71620  0.99576  Biso   1.000  O
  O92      1.0000 0.16890  0.54750  0.02416  Biso   1.000  O
  O93      1.0000 0.00000  0.56860  0.05028  Biso   1.000  O
  O94      1.0000 0.18790  0.87980  0.92890  Biso   1.000  O
  O95      1.0000 0.32470  0.77130  0.92276  Biso   1.000  O
  O96      1.0000 0.14380  0.07140  0.79562  Biso   1.000  O
  O97      1.0000 0.06560  0.92530  0.87731  Biso   1.000  O
  O98      1.0000 0.13610  0.02660  0.95944  Biso   1.000  O
  H46      1.0000 0.25240  0.05610  0.89460  Biso   1.000  H
  O99      1.0000 0.19450  0.69500  0.08110  Biso   1.000  O
  H47      1.0000 0.17510  0.74150  0.08940  Biso   1.000  H
  O100     1.0000 0.26310  0.07040  0.88960  Biso   1.000  O
  H48      1.0000 0.31780  0.10010  0.90840  Biso   1.000  H
  H49      1.0000 0.33790  0.61140  0.84430  Biso   1.000  H
  H50      1.0000 0.18400  0.68900  0.07390  Biso   1.000  H
  V11      1.0000 0.14344  0.43549  0.97273  Biso   1.000  V
  P21      1.0000 0.02639  0.18711  0.91496  Biso   1.000  P
  P22      1.0000 0.36996  0.49627  0.03616  Biso   1.000  P
  O101     1.0000 0.28380  0.43330  0.99576  Biso   1.000  O
  O102     1.0000 0.45250  0.62140  0.02416  Biso   1.000  O
  O103     1.0000 0.43140  0.43140  0.05028  Biso   1.000  O
  O104     1.0000 0.12020  0.30810  0.92890  Biso   1.000  O
  O105     1.0000 0.22870  0.55340  0.92276  Biso   1.000  O
  O106     1.0000 0.92860  0.07240  0.79562  Biso   1.000  O
  O107     1.0000 0.07470  0.14030  0.87731  Biso   1.000  O
  O108     1.0000 0.97340  0.10950  0.95944  Biso   1.000  O
  H51      1.0000 0.94390  0.19630  0.89460  Biso   1.000  H
  O109     1.0000 0.30500  0.49950  0.08110  Biso   1.000  O
  H52      1.0000 0.25850  0.43360  0.08940  Biso   1.000  H
  O110     1.0000 0.92960  0.19270  0.88960  Biso   1.000  O
  H53      1.0000 0.89990  0.21770  0.90840  Biso   1.000  H
  H54      1.0000 0.38860  0.72650  0.84430  Biso   1.000  H
  H55      1.0000 0.31100  0.49500  0.07390  Biso   1.000  H
  V12      1.0000 0.56451  0.70795  0.97273  Biso   1.000  V
  P23      1.0000 0.81289  0.83928  0.91496  Biso   1.000  P
  P24      1.0000 0.50373  0.87369  0.03616  Biso   1.000  P
  O111     1.0000 0.56670  0.85050  0.99576  Biso   1.000  O
  O112     1.0000 0.37860  0.83110  0.02416  Biso   1.000  O
  O113     1.0000 0.56860  0.00000  0.05028  Biso   1.000  O
  O114     1.0000 0.69190  0.81210  0.92890  Biso   1.000  O
  O115     1.0000 0.44660  0.67530  0.92276  Biso   1.000  O
  O116     1.0000 0.92760  0.85620  0.79562  Biso   1.000  O
  O117     1.0000 0.85970  0.93440  0.87731  Biso   1.000  O
  O118     1.0000 0.89050  0.86390  0.95944  Biso   1.000  O
  H56      1.0000 0.80370  0.74760  0.89460  Biso   1.000  H
  O119     1.0000 0.50050  0.80550  0.08110  Biso   1.000  O
  H57      1.0000 0.56640  0.82490  0.08940  Biso   1.000  H
  O120     1.0000 0.80730  0.73690  0.88960  Biso   1.000  O
  H58      1.0000 0.78230  0.68220  0.90840  Biso   1.000  H
  H59      1.0000 0.27350  0.66210  0.84430  Biso   1.000  H
  H60      1.0000 0.50500  0.81600  0.07390  Biso   1.000  H
  V13      1.0000 0.00000  0.00000  0.50000  Biso   1.000  V
  V14      1.0000 0.00000  0.00000  0.00000  Biso   1.000  V
  V15      1.0000 0.00000  0.00000  0.66457  Biso   1.000  V
  V16      1.0000 0.00000  0.00000  0.16457  Biso   1.000  V
  V17      1.0000 0.00000  0.00000  0.33543  Biso   1.000  V
  V18      1.0000 0.00000  0.00000  0.83543  Biso   1.000  V
  P25      1.0000 0.33333  0.66667  0.59128  Biso   1.000  P
  H61      1.0000 0.33333  0.66667  0.63850  Biso   1.000  H
  O121     1.0000 0.33333  0.66667  0.64580  Biso   1.000  O
  P26      1.0000 0.66667  0.33333  0.09128  Biso   1.000  P
  H62      1.0000 0.66667  0.33333  0.13850  Biso   1.000  H
  O122     1.0000 0.66667  0.33333  0.14580  Biso   1.000  O
  P27      1.0000 0.66667  0.33333  0.40872  Biso   1.000  P
  H63      1.0000 0.66667  0.33333  0.36150  Biso   1.000  H
  O123     1.0000 0.66667  0.33333  0.35420  Biso   1.000  O
  P28      1.0000 0.33333  0.66667  0.90872  Biso   1.000  P
  H64      1.0000 0.33333  0.66667  0.86150  Biso   1.000  H
  O124     1.0000 0.33333  0.66667  0.85420  Biso   1.000  O
  P29      1.0000 0.19420  0.05690  0.75000  Biso   1.000  P
  O125     1.0000 0.20550  0.94730  0.75000  Biso   1.000  O
  H65      1.0000 0.14120  0.89000  0.75000  Biso   1.000  H
  O126     1.0000 0.32280  0.14230  0.75000  Biso   1.000  O
  H66      1.0000 0.33350  0.20810  0.75000  Biso   1.000  H
  P30      1.0000 0.20090  0.12320  0.75000  Biso   1.000  P
  O127     1.0000 0.22600  0.25700  0.75000  Biso   1.000  O
  H67      1.0000 0.16460  0.25660  0.75000  Biso   1.000  H
  H68      1.0000 0.31880  0.07930  0.75000  Biso   1.000  H
  P31      1.0000 0.94310  0.13730  0.75000  Biso   1.000  P
  O128     1.0000 0.05270  0.25820  0.75000  Biso   1.000  O
  H69      1.0000 0.11000  0.25120  0.75000  Biso   1.000  H
  O129     1.0000 0.85770  0.18050  0.75000  Biso   1.000  O
  H70      1.0000 0.79190  0.12540  0.75000  Biso   1.000  H
  P32      1.0000 0.87680  0.07770  0.75000  Biso   1.000  P
  O130     1.0000 0.74300  0.96900  0.75000  Biso   1.000  O
  H71      1.0000 0.74340  0.90800  0.75000  Biso   1.000  H
  H72      1.0000 0.92070  0.23950  0.75000  Biso   1.000  H
  P33      1.0000 0.86270  0.80580  0.75000  Biso   1.000  P
  O131     1.0000 0.74180  0.79450  0.75000  Biso   1.000  O
  H73      1.0000 0.74880  0.85880  0.75000  Biso   1.000  H
  O132     1.0000 0.81950  0.67720  0.75000  Biso   1.000  O
  H74      1.0000 0.87460  0.66650  0.75000  Biso   1.000  H
  P34      1.0000 0.92230  0.79910  0.75000  Biso   1.000  P
  O133     1.0000 0.03100  0.77400  0.75000  Biso   1.000  O
  H75      1.0000 0.09200  0.83540  0.75000  Biso   1.000  H
  H76      1.0000 0.76050  0.68120  0.75000  Biso   1.000  H
  P35      1.0000 0.80580  0.94310  0.25000  Biso   1.000  P
  O134     1.0000 0.79450  0.05270  0.25000  Biso   1.000  O
  H77      1.0000 0.85880  0.11000  0.25000  Biso   1.000  H
  O135     1.0000 0.67720  0.85770  0.25000  Biso   1.000  O
  H78      1.0000 0.66650  0.79190  0.25000  Biso   1.000  H
  P36      1.0000 0.79910  0.87680  0.25000  Biso   1.000  P
  O136     1.0000 0.77400  0.74300  0.25000  Biso   1.000  O
  H79      1.0000 0.83540  0.74340  0.25000  Biso   1.000  H
  H80      1.0000 0.68120  0.92070  0.25000  Biso   1.000  H
  P37      1.0000 0.05690  0.86270  0.25000  Biso   1.000  P
  O137     1.0000 0.94730  0.74180  0.25000  Biso   1.000  O
  H81      1.0000 0.89000  0.74880  0.25000  Biso   1.000  H
  O138     1.0000 0.14230  0.81950  0.25000  Biso   1.000  O
  H82      1.0000 0.20810  0.87460  0.25000  Biso   1.000  H
  P38      1.0000 0.12320  0.92230  0.25000  Biso   1.000  P
  O139     1.0000 0.25700  0.03100  0.25000  Biso   1.000  O
  H83      1.0000 0.25660  0.09200  0.25000  Biso   1.000  H
  H84      1.0000 0.07930  0.76050  0.25000  Biso   1.000  H
  P39      1.0000 0.13730  0.19420  0.25000  Biso   1.000  P
  O140     1.0000 0.25820  0.20550  0.25000  Biso   1.000  O
  H85      1.0000 0.25120  0.14120  0.25000  Biso   1.000  H
  O141     1.0000 0.18050  0.32280  0.25000  Biso   1.000  O
  H86      1.0000 0.12540  0.33350  0.25000  Biso   1.000  H
  P40      1.0000 0.07770  0.20090  0.25000  Biso   1.000  P
  O142     1.0000 0.96900  0.22600  0.25000  Biso   1.000  O
  H87      1.0000 0.90800  0.16460  0.25000  Biso   1.000  H
  H88      1.0000 0.23950  0.31880  0.25000  Biso   1.000  H
