data_image0
_cell_length_a       8.669
_cell_length_b       17.932
_cell_length_c       9.097
_cell_angle_alpha    90
_cell_angle_beta     108.32
_cell_angle_gamma    90

_symmetry_space_group_name_H-M    "P 1"
_symmetry_int_tables_number       1

loop_
  _symmetry_equiv_pos_as_xyz
  'x, y, z'

loop_
  _atom_site_label
  _atom_site_occupancy
  _atom_site_fract_x
  _atom_site_fract_y
  _atom_site_fract_z
  _atom_site_thermal_displace_type
  _atom_site_B_iso_or_equiv
  _atom_site_type_symbol
  Ga1      1.0000 0.13270  0.60820  0.66600  Biso   1.000  Ga
  Ga2      1.0000 0.06920  0.79380  0.79930  Biso   1.000  Ga
  Ga3      1.0000 0.51300  0.82570  0.69900  Biso   1.000  Ga
  P1       1.0000 0.33950  0.92980  0.87180  Biso   1.000  P
  P2       1.0000 0.29830  0.71260  0.48230  Biso   1.000  P
  P3       1.0000 0.25390  0.66400  0.00700  Biso   1.000  P
  O1       1.0000 0.10580  0.64360  0.05660  Biso   1.000  O
  O2       1.0000 0.24910  0.60960  0.87480  Biso   1.000  O
  O3       1.0000 0.28040  0.00850  0.83240  Biso   1.000  O
  O4       1.0000 0.26570  0.64110  0.55460  Biso   1.000  O
  O5       1.0000 0.19130  0.88030  0.82160  Biso   1.000  O
  O6       1.0000 0.42410  0.92230  0.04660  Biso   1.000  O
  O7       1.0000 0.24770  0.74530  0.95390  Biso   1.000  O
  O8       1.0000 0.45010  0.70040  0.43790  Biso   1.000  O
  O9       1.0000 0.41090  0.65120  0.13760  Biso   1.000  O
  O10      1.0000 0.32490  0.77790  0.59810  Biso   1.000  O
  O11      1.0000 0.15080  0.73440  0.34320  Biso   1.000  O
  O12      1.0000 0.46080  0.90950  0.78560  Biso   1.000  O
  O13      1.0000 0.02980  0.70560  0.67940  Biso   1.000  O
  Ga4      1.0000 0.36730  0.10820  0.83400  Biso   1.000  Ga
  Ga5      1.0000 0.43080  0.29380  0.70070  Biso   1.000  Ga
  Ga6      1.0000 0.98700  0.32570  0.80100  Biso   1.000  Ga
  P4       1.0000 0.16050  0.42980  0.62820  Biso   1.000  P
  P5       1.0000 0.20170  0.21260  0.01770  Biso   1.000  P
  P6       1.0000 0.24610  0.16400  0.49300  Biso   1.000  P
  O14      1.0000 0.39420  0.14360  0.44340  Biso   1.000  O
  O15      1.0000 0.25090  0.10960  0.62520  Biso   1.000  O
  O16      1.0000 0.21960  0.50850  0.66760  Biso   1.000  O
  O17      1.0000 0.23430  0.14110  0.94540  Biso   1.000  O
  O18      1.0000 0.30870  0.38030  0.67840  Biso   1.000  O
  O19      1.0000 0.07590  0.42230  0.45340  Biso   1.000  O
  O20      1.0000 0.25230  0.24530  0.54610  Biso   1.000  O
  O21      1.0000 0.04990  0.20040  0.06210  Biso   1.000  O
  O22      1.0000 0.08910  0.15120  0.36240  Biso   1.000  O
  O23      1.0000 0.17510  0.27790  0.90190  Biso   1.000  O
  O24      1.0000 0.34920  0.23440  0.15680  Biso   1.000  O
  O25      1.0000 0.03920  0.40950  0.71440  Biso   1.000  O
  O26      1.0000 0.47020  0.20560  0.82060  Biso   1.000  O
  Ga7      1.0000 0.86730  0.39180  0.33400  Biso   1.000  Ga
  Ga8      1.0000 0.93080  0.20620  0.20070  Biso   1.000  Ga
  Ga9      1.0000 0.48700  0.17430  0.30100  Biso   1.000  Ga
  P7       1.0000 0.66050  0.07020  0.12820  Biso   1.000  P
  P8       1.0000 0.70170  0.28740  0.51770  Biso   1.000  P
  P9       1.0000 0.74610  0.33600  0.99300  Biso   1.000  P
  O27      1.0000 0.89420  0.35640  0.94340  Biso   1.000  O
  O28      1.0000 0.75090  0.39040  0.12520  Biso   1.000  O
  O29      1.0000 0.71960  0.99150  0.16760  Biso   1.000  O
  O30      1.0000 0.73430  0.35890  0.44540  Biso   1.000  O
  O31      1.0000 0.80870  0.11970  0.17840  Biso   1.000  O
  O32      1.0000 0.57590  0.07770  0.95340  Biso   1.000  O
  O33      1.0000 0.75230  0.25470  0.04610  Biso   1.000  O
  O34      1.0000 0.54990  0.29960  0.56210  Biso   1.000  O
  O35      1.0000 0.58910  0.34880  0.86240  Biso   1.000  O
  O36      1.0000 0.67510  0.22210  0.40190  Biso   1.000  O
  O37      1.0000 0.84920  0.26560  0.65680  Biso   1.000  O
  O38      1.0000 0.53920  0.09050  0.21440  Biso   1.000  O
  O39      1.0000 0.97020  0.29440  0.32060  Biso   1.000  O
  Ga10     1.0000 0.63270  0.89180  0.16600  Biso   1.000  Ga
  Ga11     1.0000 0.56920  0.70620  0.29930  Biso   1.000  Ga
  Ga12     1.0000 0.01300  0.67430  0.19900  Biso   1.000  Ga
  P10      1.0000 0.83950  0.57020  0.37180  Biso   1.000  P
  P11      1.0000 0.79830  0.78740  0.98230  Biso   1.000  P
  P12      1.0000 0.75390  0.83600  0.50700  Biso   1.000  P
  O40      1.0000 0.60580  0.85640  0.55660  Biso   1.000  O
  O41      1.0000 0.74910  0.89040  0.37480  Biso   1.000  O
  O42      1.0000 0.78040  0.49150  0.33240  Biso   1.000  O
  O43      1.0000 0.76570  0.85890  0.05460  Biso   1.000  O
  O44      1.0000 0.69130  0.61970  0.32160  Biso   1.000  O
  O45      1.0000 0.92410  0.57770  0.54660  Biso   1.000  O
  O46      1.0000 0.74770  0.75470  0.45390  Biso   1.000  O
  O47      1.0000 0.95010  0.79960  0.93790  Biso   1.000  O
  O48      1.0000 0.91090  0.84880  0.63760  Biso   1.000  O
  O49      1.0000 0.82490  0.72210  0.09810  Biso   1.000  O
  O50      1.0000 0.65080  0.76560  0.84320  Biso   1.000  O
  O51      1.0000 0.96080  0.59050  0.28560  Biso   1.000  O
  O52      1.0000 0.52980  0.79440  0.17940  Biso   1.000  O
