data_image0
_cell_length_a       14.2725
_cell_length_b       19.5898
_cell_length_c       20.7591
_cell_angle_alpha    90
_cell_angle_beta     90
_cell_angle_gamma    90

_symmetry_space_group_name_H-M    "P 1"
_symmetry_int_tables_number       1

loop_
  _symmetry_equiv_pos_as_xyz
  'x, y, z'

loop_
  _atom_site_label
  _atom_site_occupancy
  _atom_site_fract_x
  _atom_site_fract_y
  _atom_site_fract_z
  _atom_site_thermal_displace_type
  _atom_site_B_iso_or_equiv
  _atom_site_type_symbol
  O1       1.0000 0.42290  0.42750  0.06800  Biso   1.000  O
  C1       1.0000 0.43160  0.35420  0.18450  Biso   1.000  C
  H1       1.0000 0.37920  0.38130  0.17750  Biso   1.000  H
  C2       1.0000 0.43100  0.31110  0.23870  Biso   1.000  C
  C3       1.0000 0.59160  0.27370  0.20680  Biso   1.000  C
  H2       1.0000 0.64360  0.24630  0.21450  Biso   1.000  H
  C4       1.0000 0.58820  0.31960  0.15610  Biso   1.000  C
  H3       1.0000 0.64040  0.32590  0.12990  Biso   1.000  H
  C5       1.0000 0.35670  0.30850  0.28310  Biso   1.000  C
  H4       1.0000 0.30330  0.33450  0.27540  Biso   1.000  H
  C6       1.0000 0.36080  0.26960  0.33650  Biso   1.000  C
  H5       1.0000 0.31160  0.26980  0.36590  Biso   1.000  H
  C7       1.0000 0.44150  0.22780  0.34760  Biso   1.000  C
  H6       1.0000 0.55070  0.19980  0.31220  Biso   1.000  H
  C8       1.0000 0.44260  0.18430  0.40850  Biso   1.000  C
  O2       1.0000 0.37950  0.18840  0.44890  Biso   1.000  O
  O3       1.0000 0.92290  0.92750  0.56800  Biso   1.000  O
  C9       1.0000 0.93160  0.85420  0.68450  Biso   1.000  C
  H7       1.0000 0.87920  0.88130  0.67750  Biso   1.000  H
  C10      1.0000 0.93100  0.81110  0.73870  Biso   1.000  C
  C11      1.0000 0.09160  0.77370  0.70680  Biso   1.000  C
  H8       1.0000 0.14360  0.74630  0.71450  Biso   1.000  H
  C12      1.0000 0.08820  0.81960  0.65610  Biso   1.000  C
  H9       1.0000 0.14040  0.82590  0.62990  Biso   1.000  H
  C13      1.0000 0.85670  0.80850  0.78310  Biso   1.000  C
  H10      1.0000 0.80330  0.83450  0.77540  Biso   1.000  H
  C14      1.0000 0.86080  0.76960  0.83650  Biso   1.000  C
  H11      1.0000 0.81160  0.76980  0.86590  Biso   1.000  H
  C15      1.0000 0.94150  0.72780  0.84760  Biso   1.000  C
  H12      1.0000 0.05070  0.69980  0.81220  Biso   1.000  H
  C16      1.0000 0.94260  0.68430  0.90850  Biso   1.000  C
  O4       1.0000 0.87950  0.68840  0.94890  Biso   1.000  O
  O5       1.0000 0.57710  0.57250  0.06800  Biso   1.000  O
  C17      1.0000 0.56840  0.64580  0.18450  Biso   1.000  C
  H13      1.0000 0.62080  0.61870  0.17750  Biso   1.000  H
  C18      1.0000 0.56900  0.68890  0.23870  Biso   1.000  C
  C19      1.0000 0.40840  0.72630  0.20680  Biso   1.000  C
  H14      1.0000 0.35640  0.75370  0.21450  Biso   1.000  H
  C20      1.0000 0.41180  0.68040  0.15610  Biso   1.000  C
  H15      1.0000 0.35960  0.67410  0.12990  Biso   1.000  H
  C21      1.0000 0.64330  0.69150  0.28310  Biso   1.000  C
  H16      1.0000 0.69670  0.66550  0.27540  Biso   1.000  H
  C22      1.0000 0.63920  0.73040  0.33650  Biso   1.000  C
  H17      1.0000 0.68840  0.73020  0.36590  Biso   1.000  H
  C23      1.0000 0.55850  0.77220  0.34760  Biso   1.000  C
  H18      1.0000 0.44930  0.80020  0.31220  Biso   1.000  H
  C24      1.0000 0.55740  0.81570  0.40850  Biso   1.000  C
  O6       1.0000 0.62050  0.81160  0.44890  Biso   1.000  O
  O7       1.0000 0.07710  0.07250  0.56800  Biso   1.000  O
  C25      1.0000 0.06840  0.14580  0.68450  Biso   1.000  C
  H19      1.0000 0.12080  0.11870  0.67750  Biso   1.000  H
  C26      1.0000 0.06900  0.18890  0.73870  Biso   1.000  C
  C27      1.0000 0.90840  0.22630  0.70680  Biso   1.000  C
  H20      1.0000 0.85640  0.25370  0.71450  Biso   1.000  H
  C28      1.0000 0.91180  0.18040  0.65610  Biso   1.000  C
  H21      1.0000 0.85960  0.17410  0.62990  Biso   1.000  H
  C29      1.0000 0.14330  0.19150  0.78310  Biso   1.000  C
  H22      1.0000 0.19670  0.16550  0.77540  Biso   1.000  H
  C30      1.0000 0.13920  0.23040  0.83650  Biso   1.000  C
  H23      1.0000 0.18840  0.23020  0.86590  Biso   1.000  H
  C31      1.0000 0.05850  0.27220  0.84760  Biso   1.000  C
  H24      1.0000 0.94930  0.30020  0.81220  Biso   1.000  H
  C32      1.0000 0.05740  0.31570  0.90850  Biso   1.000  C
  O8       1.0000 0.12050  0.31160  0.94890  Biso   1.000  O
  O9       1.0000 0.57710  0.42750  0.93200  Biso   1.000  O
  C33      1.0000 0.56840  0.35420  0.81550  Biso   1.000  C
  H25      1.0000 0.62080  0.38130  0.82250  Biso   1.000  H
  C34      1.0000 0.56900  0.31110  0.76130  Biso   1.000  C
  C35      1.0000 0.40840  0.27370  0.79320  Biso   1.000  C
  H26      1.0000 0.35640  0.24630  0.78550  Biso   1.000  H
  C36      1.0000 0.41180  0.31960  0.84390  Biso   1.000  C
  H27      1.0000 0.35960  0.32590  0.87010  Biso   1.000  H
  C37      1.0000 0.64330  0.30850  0.71690  Biso   1.000  C
  H28      1.0000 0.69670  0.33450  0.72460  Biso   1.000  H
  C38      1.0000 0.63920  0.26960  0.66350  Biso   1.000  C
  H29      1.0000 0.68840  0.26980  0.63410  Biso   1.000  H
  C39      1.0000 0.55850  0.22780  0.65240  Biso   1.000  C
  H30      1.0000 0.44930  0.19980  0.68780  Biso   1.000  H
  C40      1.0000 0.55740  0.18430  0.59150  Biso   1.000  C
  O10      1.0000 0.62050  0.18840  0.55110  Biso   1.000  O
  O11      1.0000 0.07710  0.92750  0.43200  Biso   1.000  O
  C41      1.0000 0.06840  0.85420  0.31550  Biso   1.000  C
  H31      1.0000 0.12080  0.88130  0.32250  Biso   1.000  H
  C42      1.0000 0.06900  0.81110  0.26130  Biso   1.000  C
  C43      1.0000 0.90840  0.77370  0.29320  Biso   1.000  C
  H32      1.0000 0.85640  0.74630  0.28550  Biso   1.000  H
  C44      1.0000 0.91180  0.81960  0.34390  Biso   1.000  C
  H33      1.0000 0.85960  0.82590  0.37010  Biso   1.000  H
  C45      1.0000 0.14330  0.80850  0.21690  Biso   1.000  C
  H34      1.0000 0.19670  0.83450  0.22460  Biso   1.000  H
  C46      1.0000 0.13920  0.76960  0.16350  Biso   1.000  C
  H35      1.0000 0.18840  0.76980  0.13410  Biso   1.000  H
  C47      1.0000 0.05850  0.72780  0.15240  Biso   1.000  C
  H36      1.0000 0.94930  0.69980  0.18780  Biso   1.000  H
  C48      1.0000 0.05740  0.68430  0.09150  Biso   1.000  C
  O12      1.0000 0.12050  0.68840  0.05110  Biso   1.000  O
  O13      1.0000 0.42290  0.57250  0.93200  Biso   1.000  O
  C49      1.0000 0.43160  0.64580  0.81550  Biso   1.000  C
  H37      1.0000 0.37920  0.61870  0.82250  Biso   1.000  H
  C50      1.0000 0.43100  0.68890  0.76130  Biso   1.000  C
  C51      1.0000 0.59160  0.72630  0.79320  Biso   1.000  C
  H38      1.0000 0.64360  0.75370  0.78550  Biso   1.000  H
  C52      1.0000 0.58820  0.68040  0.84390  Biso   1.000  C
  H39      1.0000 0.64040  0.67410  0.87010  Biso   1.000  H
  C53      1.0000 0.35670  0.69150  0.71690  Biso   1.000  C
  H40      1.0000 0.30330  0.66550  0.72460  Biso   1.000  H
  C54      1.0000 0.36080  0.73040  0.66350  Biso   1.000  C
  H41      1.0000 0.31160  0.73020  0.63410  Biso   1.000  H
  C55      1.0000 0.44150  0.77220  0.65240  Biso   1.000  C
  H42      1.0000 0.55070  0.80020  0.68780  Biso   1.000  H
  C56      1.0000 0.44260  0.81570  0.59150  Biso   1.000  C
  O14      1.0000 0.37950  0.81160  0.55110  Biso   1.000  O
  O15      1.0000 0.92290  0.07250  0.43200  Biso   1.000  O
  C57      1.0000 0.93160  0.14580  0.31550  Biso   1.000  C
  H43      1.0000 0.87920  0.11870  0.32250  Biso   1.000  H
  C58      1.0000 0.93100  0.18890  0.26130  Biso   1.000  C
  C59      1.0000 0.09160  0.22630  0.29320  Biso   1.000  C
  H44      1.0000 0.14360  0.25370  0.28550  Biso   1.000  H
  C60      1.0000 0.08820  0.18040  0.34390  Biso   1.000  C
  H45      1.0000 0.14040  0.17410  0.37010  Biso   1.000  H
  C61      1.0000 0.85670  0.19150  0.21690  Biso   1.000  C
  H46      1.0000 0.80330  0.16550  0.22460  Biso   1.000  H
  C62      1.0000 0.86080  0.23040  0.16350  Biso   1.000  C
  H47      1.0000 0.81160  0.23020  0.13410  Biso   1.000  H
  C63      1.0000 0.94150  0.27220  0.15240  Biso   1.000  C
  H48      1.0000 0.05070  0.30020  0.18780  Biso   1.000  H
  C64      1.0000 0.94260  0.31570  0.09150  Biso   1.000  C
  O16      1.0000 0.87950  0.31160  0.05110  Biso   1.000  O
  O17      1.0000 0.57710  0.57250  0.93200  Biso   1.000  O
  C65      1.0000 0.56840  0.64580  0.81550  Biso   1.000  C
  H49      1.0000 0.62080  0.61870  0.82250  Biso   1.000  H
  C66      1.0000 0.56900  0.68890  0.76130  Biso   1.000  C
  C67      1.0000 0.40840  0.72630  0.79320  Biso   1.000  C
  H50      1.0000 0.35640  0.75370  0.78550  Biso   1.000  H
  C68      1.0000 0.41180  0.68040  0.84390  Biso   1.000  C
  H51      1.0000 0.35960  0.67410  0.87010  Biso   1.000  H
  C69      1.0000 0.64330  0.69150  0.71690  Biso   1.000  C
  H52      1.0000 0.69670  0.66550  0.72460  Biso   1.000  H
  C70      1.0000 0.63920  0.73040  0.66350  Biso   1.000  C
  H53      1.0000 0.68840  0.73020  0.63410  Biso   1.000  H
  C71      1.0000 0.55850  0.77220  0.65240  Biso   1.000  C
  H54      1.0000 0.44930  0.80020  0.68780  Biso   1.000  H
  C72      1.0000 0.55740  0.81570  0.59150  Biso   1.000  C
  O18      1.0000 0.62050  0.81160  0.55110  Biso   1.000  O
  O19      1.0000 0.07710  0.07250  0.43200  Biso   1.000  O
  C73      1.0000 0.06840  0.14580  0.31550  Biso   1.000  C
  H55      1.0000 0.12080  0.11870  0.32250  Biso   1.000  H
  C74      1.0000 0.06900  0.18890  0.26130  Biso   1.000  C
  C75      1.0000 0.90840  0.22630  0.29320  Biso   1.000  C
  H56      1.0000 0.85640  0.25370  0.28550  Biso   1.000  H
  C76      1.0000 0.91180  0.18040  0.34390  Biso   1.000  C
  H57      1.0000 0.85960  0.17410  0.37010  Biso   1.000  H
  C77      1.0000 0.14330  0.19150  0.21690  Biso   1.000  C
  H58      1.0000 0.19670  0.16550  0.22460  Biso   1.000  H
  C78      1.0000 0.13920  0.23040  0.16350  Biso   1.000  C
  H59      1.0000 0.18840  0.23020  0.13410  Biso   1.000  H
  C79      1.0000 0.05850  0.27220  0.15240  Biso   1.000  C
  H60      1.0000 0.94930  0.30020  0.18780  Biso   1.000  H
  C80      1.0000 0.05740  0.31570  0.09150  Biso   1.000  C
  O20      1.0000 0.12050  0.31160  0.05110  Biso   1.000  O
  O21      1.0000 0.42290  0.42750  0.93200  Biso   1.000  O
  C81      1.0000 0.43160  0.35420  0.81550  Biso   1.000  C
  H61      1.0000 0.37920  0.38130  0.82250  Biso   1.000  H
  C82      1.0000 0.43100  0.31110  0.76130  Biso   1.000  C
  C83      1.0000 0.59160  0.27370  0.79320  Biso   1.000  C
  H62      1.0000 0.64360  0.24630  0.78550  Biso   1.000  H
  C84      1.0000 0.58820  0.31960  0.84390  Biso   1.000  C
  H63      1.0000 0.64040  0.32590  0.87010  Biso   1.000  H
  C85      1.0000 0.35670  0.30850  0.71690  Biso   1.000  C
  H64      1.0000 0.30330  0.33450  0.72460  Biso   1.000  H
  C86      1.0000 0.36080  0.26960  0.66350  Biso   1.000  C
  H65      1.0000 0.31160  0.26980  0.63410  Biso   1.000  H
  C87      1.0000 0.44150  0.22780  0.65240  Biso   1.000  C
  H66      1.0000 0.55070  0.19980  0.68780  Biso   1.000  H
  C88      1.0000 0.44260  0.18430  0.59150  Biso   1.000  C
  O22      1.0000 0.37950  0.18840  0.55110  Biso   1.000  O
  O23      1.0000 0.92290  0.92750  0.43200  Biso   1.000  O
  C89      1.0000 0.93160  0.85420  0.31550  Biso   1.000  C
  H67      1.0000 0.87920  0.88130  0.32250  Biso   1.000  H
  C90      1.0000 0.93100  0.81110  0.26130  Biso   1.000  C
  C91      1.0000 0.09160  0.77370  0.29320  Biso   1.000  C
  H68      1.0000 0.14360  0.74630  0.28550  Biso   1.000  H
  C92      1.0000 0.08820  0.81960  0.34390  Biso   1.000  C
  H69      1.0000 0.14040  0.82590  0.37010  Biso   1.000  H
  C93      1.0000 0.85670  0.80850  0.21690  Biso   1.000  C
  H70      1.0000 0.80330  0.83450  0.22460  Biso   1.000  H
  C94      1.0000 0.86080  0.76960  0.16350  Biso   1.000  C
  H71      1.0000 0.81160  0.76980  0.13410  Biso   1.000  H
  C95      1.0000 0.94150  0.72780  0.15240  Biso   1.000  C
  H72      1.0000 0.05070  0.69980  0.18780  Biso   1.000  H
  C96      1.0000 0.94260  0.68430  0.09150  Biso   1.000  C
  O24      1.0000 0.87950  0.68840  0.05110  Biso   1.000  O
  O25      1.0000 0.42290  0.57250  0.06800  Biso   1.000  O
  C97      1.0000 0.43160  0.64580  0.18450  Biso   1.000  C
  H73      1.0000 0.37920  0.61870  0.17750  Biso   1.000  H
  C98      1.0000 0.43100  0.68890  0.23870  Biso   1.000  C
  C99      1.0000 0.59160  0.72630  0.20680  Biso   1.000  C
  H74      1.0000 0.64360  0.75370  0.21450  Biso   1.000  H
  C100     1.0000 0.58820  0.68040  0.15610  Biso   1.000  C
  H75      1.0000 0.64040  0.67410  0.12990  Biso   1.000  H
  C101     1.0000 0.35670  0.69150  0.28310  Biso   1.000  C
  H76      1.0000 0.30330  0.66550  0.27540  Biso   1.000  H
  C102     1.0000 0.36080  0.73040  0.33650  Biso   1.000  C
  H77      1.0000 0.31160  0.73020  0.36590  Biso   1.000  H
  C103     1.0000 0.44150  0.77220  0.34760  Biso   1.000  C
  H78      1.0000 0.55070  0.80020  0.31220  Biso   1.000  H
  C104     1.0000 0.44260  0.81570  0.40850  Biso   1.000  C
  O26      1.0000 0.37950  0.81160  0.44890  Biso   1.000  O
  O27      1.0000 0.92290  0.07250  0.56800  Biso   1.000  O
  C105     1.0000 0.93160  0.14580  0.68450  Biso   1.000  C
  H79      1.0000 0.87920  0.11870  0.67750  Biso   1.000  H
  C106     1.0000 0.93100  0.18890  0.73870  Biso   1.000  C
  C107     1.0000 0.09160  0.22630  0.70680  Biso   1.000  C
  H80      1.0000 0.14360  0.25370  0.71450  Biso   1.000  H
  C108     1.0000 0.08820  0.18040  0.65610  Biso   1.000  C
  H81      1.0000 0.14040  0.17410  0.62990  Biso   1.000  H
  C109     1.0000 0.85670  0.19150  0.78310  Biso   1.000  C
  H82      1.0000 0.80330  0.16550  0.77540  Biso   1.000  H
  C110     1.0000 0.86080  0.23040  0.83650  Biso   1.000  C
  H83      1.0000 0.81160  0.23020  0.86590  Biso   1.000  H
  C111     1.0000 0.94150  0.27220  0.84760  Biso   1.000  C
  H84      1.0000 0.05070  0.30020  0.81220  Biso   1.000  H
  C112     1.0000 0.94260  0.31570  0.90850  Biso   1.000  C
  O28      1.0000 0.87950  0.31160  0.94890  Biso   1.000  O
  O29      1.0000 0.57710  0.42750  0.06800  Biso   1.000  O
  C113     1.0000 0.56840  0.35420  0.18450  Biso   1.000  C
  H85      1.0000 0.62080  0.38130  0.17750  Biso   1.000  H
  C114     1.0000 0.56900  0.31110  0.23870  Biso   1.000  C
  C115     1.0000 0.40840  0.27370  0.20680  Biso   1.000  C
  H86      1.0000 0.35640  0.24630  0.21450  Biso   1.000  H
  C116     1.0000 0.41180  0.31960  0.15610  Biso   1.000  C
  H87      1.0000 0.35960  0.32590  0.12990  Biso   1.000  H
  C117     1.0000 0.64330  0.30850  0.28310  Biso   1.000  C
  H88      1.0000 0.69670  0.33450  0.27540  Biso   1.000  H
  C118     1.0000 0.63920  0.26960  0.33650  Biso   1.000  C
  H89      1.0000 0.68840  0.26980  0.36590  Biso   1.000  H
  C119     1.0000 0.55850  0.22780  0.34760  Biso   1.000  C
  H90      1.0000 0.44930  0.19980  0.31220  Biso   1.000  H
  C120     1.0000 0.55740  0.18430  0.40850  Biso   1.000  C
  O30      1.0000 0.62050  0.18840  0.44890  Biso   1.000  O
  O31      1.0000 0.07710  0.92750  0.56800  Biso   1.000  O
  C121     1.0000 0.06840  0.85420  0.68450  Biso   1.000  C
  H91      1.0000 0.12080  0.88130  0.67750  Biso   1.000  H
  C122     1.0000 0.06900  0.81110  0.73870  Biso   1.000  C
  C123     1.0000 0.90840  0.77370  0.70680  Biso   1.000  C
  H92      1.0000 0.85640  0.74630  0.71450  Biso   1.000  H
  C124     1.0000 0.91180  0.81960  0.65610  Biso   1.000  C
  H93      1.0000 0.85960  0.82590  0.62990  Biso   1.000  H
  C125     1.0000 0.14330  0.80850  0.78310  Biso   1.000  C
  H94      1.0000 0.19670  0.83450  0.77540  Biso   1.000  H
  C126     1.0000 0.13920  0.76960  0.83650  Biso   1.000  C
  H95      1.0000 0.18840  0.76980  0.86590  Biso   1.000  H
  C127     1.0000 0.05850  0.72780  0.84760  Biso   1.000  C
  H96      1.0000 0.94930  0.69980  0.81220  Biso   1.000  H
  C128     1.0000 0.05740  0.68430  0.90850  Biso   1.000  C
  O32      1.0000 0.12050  0.68840  0.94890  Biso   1.000  O
  Zn1      1.0000 0.39797  0.50000  0.00000  Biso   1.000  Zn
  O33      1.0000 0.25790  0.50000  0.00000  Biso   1.000  O
  Zn2      1.0000 0.89797  0.00000  0.50000  Biso   1.000  Zn
  O34      1.0000 0.75790  0.00000  0.50000  Biso   1.000  O
  Zn3      1.0000 0.60203  0.50000  0.00000  Biso   1.000  Zn
  O35      1.0000 0.74210  0.50000  0.00000  Biso   1.000  O
  Zn4      1.0000 0.10203  0.00000  0.50000  Biso   1.000  Zn
  O36      1.0000 0.24210  0.00000  0.50000  Biso   1.000  O
  Zn5      1.0000 0.50000  0.09980  0.50000  Biso   1.000  Zn
  Zn6      1.0000 0.00000  0.59980  0.00000  Biso   1.000  Zn
  Zn7      1.0000 0.50000  0.90020  0.50000  Biso   1.000  Zn
  Zn8      1.0000 0.00000  0.40020  0.00000  Biso   1.000  Zn
  C129     1.0000 0.50000  0.40930  0.08850  Biso   1.000  C
  C130     1.0000 0.50000  0.35890  0.14360  Biso   1.000  C
  C131     1.0000 0.50000  0.27100  0.25120  Biso   1.000  C
  C132     1.0000 0.50000  0.22910  0.30700  Biso   1.000  C
  O37      1.0000 0.50000  0.14630  0.41620  Biso   1.000  O
  C133     1.0000 0.00000  0.90930  0.58850  Biso   1.000  C
  C134     1.0000 0.00000  0.85890  0.64360  Biso   1.000  C
  C135     1.0000 0.00000  0.77100  0.75120  Biso   1.000  C
  C136     1.0000 0.00000  0.72910  0.80700  Biso   1.000  C
  O38      1.0000 0.00000  0.64630  0.91620  Biso   1.000  O
  C137     1.0000 0.50000  0.59070  0.08850  Biso   1.000  C
  C138     1.0000 0.50000  0.64110  0.14360  Biso   1.000  C
  C139     1.0000 0.50000  0.72900  0.25120  Biso   1.000  C
  C140     1.0000 0.50000  0.77090  0.30700  Biso   1.000  C
  O39      1.0000 0.50000  0.85370  0.41620  Biso   1.000  O
  C141     1.0000 0.00000  0.09070  0.58850  Biso   1.000  C
  C142     1.0000 0.00000  0.14110  0.64360  Biso   1.000  C
  C143     1.0000 0.00000  0.22900  0.75120  Biso   1.000  C
  C144     1.0000 0.00000  0.27090  0.80700  Biso   1.000  C
  O40      1.0000 0.00000  0.35370  0.91620  Biso   1.000  O
  C145     1.0000 0.50000  0.40930  0.91150  Biso   1.000  C
  C146     1.0000 0.50000  0.35890  0.85640  Biso   1.000  C
  C147     1.0000 0.50000  0.27100  0.74880  Biso   1.000  C
  C148     1.0000 0.50000  0.22910  0.69300  Biso   1.000  C
  O41      1.0000 0.50000  0.14630  0.58380  Biso   1.000  O
  C149     1.0000 0.00000  0.90930  0.41150  Biso   1.000  C
  C150     1.0000 0.00000  0.85890  0.35640  Biso   1.000  C
  C151     1.0000 0.00000  0.77100  0.24880  Biso   1.000  C
  C152     1.0000 0.00000  0.72910  0.19300  Biso   1.000  C
  O42      1.0000 0.00000  0.64630  0.08380  Biso   1.000  O
  C153     1.0000 0.50000  0.59070  0.91150  Biso   1.000  C
  C154     1.0000 0.50000  0.64110  0.85640  Biso   1.000  C
  C155     1.0000 0.50000  0.72900  0.74880  Biso   1.000  C
  C156     1.0000 0.50000  0.77090  0.69300  Biso   1.000  C
  O43      1.0000 0.50000  0.85370  0.58380  Biso   1.000  O
  C157     1.0000 0.00000  0.09070  0.41150  Biso   1.000  C
  C158     1.0000 0.00000  0.14110  0.35640  Biso   1.000  C
  C159     1.0000 0.00000  0.22900  0.24880  Biso   1.000  C
  C160     1.0000 0.00000  0.27090  0.19300  Biso   1.000  C
  O44      1.0000 0.00000  0.35370  0.08380  Biso   1.000  O
  C161     1.0000 0.19990  0.44710  0.00000  Biso   1.000  C
  H97      1.0000 0.22020  0.40190  0.00000  Biso   1.000  H
  N1       1.0000 0.11090  0.46450  0.00000  Biso   1.000  N
  C162     1.0000 0.69990  0.94710  0.50000  Biso   1.000  C
  H98      1.0000 0.72020  0.90190  0.50000  Biso   1.000  H
  N2       1.0000 0.61090  0.96450  0.50000  Biso   1.000  N
  C163     1.0000 0.80010  0.55290  0.00000  Biso   1.000  C
  H99      1.0000 0.77980  0.59810  0.00000  Biso   1.000  H
  N3       1.0000 0.88910  0.53550  0.00000  Biso   1.000  N
  C164     1.0000 0.30010  0.05290  0.50000  Biso   1.000  C
  H100     1.0000 0.27980  0.09810  0.50000  Biso   1.000  H
  N4       1.0000 0.38910  0.03550  0.50000  Biso   1.000  N
  C165     1.0000 0.80010  0.44710  0.00000  Biso   1.000  C
  H101     1.0000 0.77980  0.40190  0.00000  Biso   1.000  H
  N5       1.0000 0.88910  0.46450  0.00000  Biso   1.000  N
  C166     1.0000 0.30010  0.94710  0.50000  Biso   1.000  C
  H102     1.0000 0.27980  0.90190  0.50000  Biso   1.000  H
  N6       1.0000 0.38910  0.96450  0.50000  Biso   1.000  N
  C167     1.0000 0.19990  0.55290  0.00000  Biso   1.000  C
  H103     1.0000 0.22020  0.59810  0.00000  Biso   1.000  H
  N7       1.0000 0.11090  0.53550  0.00000  Biso   1.000  N
  C168     1.0000 0.69990  0.05290  0.50000  Biso   1.000  C
  H104     1.0000 0.72020  0.09810  0.50000  Biso   1.000  H
  N8       1.0000 0.61090  0.03550  0.50000  Biso   1.000  N
