data_image0
_cell_length_a       23.02
_cell_length_b       28.032
_cell_length_c       12.506
_cell_angle_alpha    90
_cell_angle_beta     100.389
_cell_angle_gamma    90

_symmetry_space_group_name_H-M    "P 1"
_symmetry_int_tables_number       1

loop_
  _symmetry_equiv_pos_as_xyz
  'x, y, z'

loop_
  _atom_site_label
  _atom_site_occupancy
  _atom_site_fract_x
  _atom_site_fract_y
  _atom_site_fract_z
  _atom_site_thermal_displace_type
  _atom_site_B_iso_or_equiv
  _atom_site_type_symbol
  Co1      1.0000 0.11054  0.67143  0.16510  Biso   1.000  Co
  C1       1.0000 0.24070  0.63985  0.21480  Biso   1.000  C
  H1       1.0000 0.23150  0.61310  0.25520  Biso   1.000  H
  C2       1.0000 0.23320  0.70230  0.11250  Biso   1.000  C
  H2       1.0000 0.21660  0.72800  0.06750  Biso   1.000  H
  C3       1.0000 0.29180  0.69200  0.13830  Biso   1.000  C
  H3       1.0000 0.32330  0.70870  0.11560  Biso   1.000  H
  C4       1.0000 0.35060  0.62921  0.25710  Biso   1.000  C
  C5       1.0000 0.39960  0.65643  0.29520  Biso   1.000  C
  H4       1.0000 0.39720  0.69020  0.29000  Biso   1.000  H
  C6       1.0000 0.45280  0.63499  0.34120  Biso   1.000  C
  H5       1.0000 0.48660  0.65410  0.36600  Biso   1.000  H
  C7       1.0000 0.45650  0.58534  0.35130  Biso   1.000  C
  C8       1.0000 0.40580  0.55860  0.31450  Biso   1.000  C
  H6       1.0000 0.40730  0.52490  0.32250  Biso   1.000  H
  C9       1.0000 0.35337  0.57988  0.26680  Biso   1.000  C
  H7       1.0000 0.31960  0.56090  0.24070  Biso   1.000  H
  C10      1.0000 0.51429  0.56228  0.39910  Biso   1.000  C
  C11      1.0000 0.56154  0.59012  0.45390  Biso   1.000  C
  H8       1.0000 0.55550  0.62320  0.46400  Biso   1.000  H
  C12      1.0000 0.61691  0.57039  0.49360  Biso   1.000  C
  C13      1.0000 0.62460  0.52095  0.48040  Biso   1.000  C
  H9       1.0000 0.66120  0.50650  0.51070  Biso   1.000  H
  C14      1.0000 0.57896  0.49297  0.42320  Biso   1.000  C
  C15      1.0000 0.52439  0.51375  0.38490  Biso   1.000  C
  H10      1.0000 0.49310  0.49450  0.34800  Biso   1.000  H
  C16      1.0000 0.58998  0.44025  0.40560  Biso   1.000  C
  C17      1.0000 0.64810  0.42400  0.41680  Biso   1.000  C
  H11      1.0000 0.67970  0.44620  0.43130  Biso   1.000  H
  C18      1.0000 0.66040  0.37520  0.40680  Biso   1.000  C
  H12      1.0000 0.70000  0.36410  0.41690  Biso   1.000  H
  C19      1.0000 0.61430  0.34419  0.38240  Biso   1.000  C
  C20      1.0000 0.55560  0.35978  0.37080  Biso   1.000  C
  H13      1.0000 0.52360  0.33790  0.35570  Biso   1.000  H
  C21      1.0000 0.54568  0.40784  0.38200  Biso   1.000  C
  H14      1.0000 0.50600  0.41880  0.37270  Biso   1.000  H
  C22      1.0000 0.60050  0.26617  0.28430  Biso   1.000  C
  H15      1.0000 0.57050  0.27700  0.22700  Biso   1.000  H
  C23      1.0000 0.66890  0.26640  0.43170  Biso   1.000  C
  H16      1.0000 0.69460  0.27640  0.49600  Biso   1.000  H
  C24      1.0000 0.66770  0.22370  0.38530  Biso   1.000  C
  H17      1.0000 0.69320  0.19790  0.41130  Biso   1.000  H
  C25      1.0000 0.66760  0.59926  0.55010  Biso   1.000  C
  C26      1.0000 0.65950  0.64070  0.61030  Biso   1.000  C
  H18      1.0000 0.62070  0.65100  0.61480  Biso   1.000  H
  C27      1.0000 0.70780  0.66620  0.66290  Biso   1.000  C
  H19      1.0000 0.70210  0.69340  0.70520  Biso   1.000  H
  C28      1.0000 0.76480  0.65200  0.65370  Biso   1.000  C
  C29      1.0000 0.77290  0.61330  0.59080  Biso   1.000  C
  H20      1.0000 0.81160  0.60370  0.58340  Biso   1.000  H
  C30      1.0000 0.72360  0.58800  0.53780  Biso   1.000  C
  H21      1.0000 0.72940  0.56210  0.49170  Biso   1.000  H
  C31      1.0000 0.86860  0.67920  0.68100  Biso   1.000  C
  H22      1.0000 0.87670  0.66770  0.61380  Biso   1.000  H
  C32      1.0000 0.82210  0.69740  0.81580  Biso   1.000  C
  H23      1.0000 0.79280  0.70140  0.85970  Biso   1.000  H
  C33      1.0000 0.88010  0.71060  0.84070  Biso   1.000  C
  H24      1.0000 0.89800  0.72530  0.90700  Biso   1.000  H
  N1       1.0000 0.20090  0.66920  0.16260  Biso   1.000  N
  N2       1.0000 0.29585  0.65217  0.20420  Biso   1.000  N
  N3       1.0000 0.62220  0.22209  0.29000  Biso   1.000  N
  N4       1.0000 0.62519  0.29384  0.36800  Biso   1.000  N
  N5       1.0000 0.90840  0.69991  0.75810  Biso   1.000  N
  N6       1.0000 0.81486  0.67696  0.71220  Biso   1.000  N
  S1       1.0000 0.04230  0.74998  0.98940  Biso   1.000  S
  O1       1.0000 0.09270  0.72090  0.03960  Biso   1.000  O
  O2       1.0000 0.01750  0.73220  0.88550  Biso   1.000  O
  O3       1.0000 0.99760  0.75150  0.05770  Biso   1.000  O
  O4       1.0000 0.01360  0.67310  0.16350  Biso   1.000  O
  O5       1.0000 0.06400  0.79820  0.97970  Biso   1.000  O
  S2       1.0000 0.03510  0.71750  0.02400  Biso   1.000  S
  O6       1.0000 0.10080  0.72140  0.04470  Biso   1.000  O
  O7       1.0000 0.01680  0.68980  0.92710  Biso   1.000  O
  O8       1.0000 0.00960  0.76470  0.01540  Biso   1.000  O
  O9       1.0000 0.01880  0.69280  0.11860  Biso   1.000  O
  O10      1.0000 0.98770  0.63680  0.66420  Biso   1.000  O
  Co2      1.0000 0.61054  0.17143  0.16510  Biso   1.000  Co
  C34      1.0000 0.74070  0.13985  0.21480  Biso   1.000  C
  H25      1.0000 0.73150  0.11310  0.25520  Biso   1.000  H
  C35      1.0000 0.73320  0.20230  0.11250  Biso   1.000  C
  H26      1.0000 0.71660  0.22800  0.06750  Biso   1.000  H
  C36      1.0000 0.79180  0.19200  0.13830  Biso   1.000  C
  H27      1.0000 0.82330  0.20870  0.11560  Biso   1.000  H
  C37      1.0000 0.85060  0.12921  0.25710  Biso   1.000  C
  C38      1.0000 0.89960  0.15643  0.29520  Biso   1.000  C
  H28      1.0000 0.89720  0.19020  0.29000  Biso   1.000  H
  C39      1.0000 0.95280  0.13499  0.34120  Biso   1.000  C
  H29      1.0000 0.98660  0.15410  0.36600  Biso   1.000  H
  C40      1.0000 0.95650  0.08534  0.35130  Biso   1.000  C
  C41      1.0000 0.90580  0.05860  0.31450  Biso   1.000  C
  H30      1.0000 0.90730  0.02490  0.32250  Biso   1.000  H
  C42      1.0000 0.85337  0.07988  0.26680  Biso   1.000  C
  H31      1.0000 0.81960  0.06090  0.24070  Biso   1.000  H
  C43      1.0000 0.01429  0.06228  0.39910  Biso   1.000  C
  C44      1.0000 0.06154  0.09012  0.45390  Biso   1.000  C
  H32      1.0000 0.05550  0.12320  0.46400  Biso   1.000  H
  C45      1.0000 0.11691  0.07039  0.49360  Biso   1.000  C
  C46      1.0000 0.12460  0.02095  0.48040  Biso   1.000  C
  H33      1.0000 0.16120  0.00650  0.51070  Biso   1.000  H
  C47      1.0000 0.07896  0.99297  0.42320  Biso   1.000  C
  C48      1.0000 0.02439  0.01375  0.38490  Biso   1.000  C
  H34      1.0000 0.99310  0.99450  0.34800  Biso   1.000  H
  C49      1.0000 0.08998  0.94025  0.40560  Biso   1.000  C
  C50      1.0000 0.14810  0.92400  0.41680  Biso   1.000  C
  H35      1.0000 0.17970  0.94620  0.43130  Biso   1.000  H
  C51      1.0000 0.16040  0.87520  0.40680  Biso   1.000  C
  H36      1.0000 0.20000  0.86410  0.41690  Biso   1.000  H
  C52      1.0000 0.11430  0.84419  0.38240  Biso   1.000  C
  C53      1.0000 0.05560  0.85978  0.37080  Biso   1.000  C
  H37      1.0000 0.02360  0.83790  0.35570  Biso   1.000  H
  C54      1.0000 0.04568  0.90784  0.38200  Biso   1.000  C
  H38      1.0000 0.00600  0.91880  0.37270  Biso   1.000  H
  C55      1.0000 0.10050  0.76617  0.28430  Biso   1.000  C
  H39      1.0000 0.07050  0.77700  0.22700  Biso   1.000  H
  C56      1.0000 0.16890  0.76640  0.43170  Biso   1.000  C
  H40      1.0000 0.19460  0.77640  0.49600  Biso   1.000  H
  C57      1.0000 0.16770  0.72370  0.38530  Biso   1.000  C
  H41      1.0000 0.19320  0.69790  0.41130  Biso   1.000  H
  C58      1.0000 0.16760  0.09926  0.55010  Biso   1.000  C
  C59      1.0000 0.15950  0.14070  0.61030  Biso   1.000  C
  H42      1.0000 0.12070  0.15100  0.61480  Biso   1.000  H
  C60      1.0000 0.20780  0.16620  0.66290  Biso   1.000  C
  H43      1.0000 0.20210  0.19340  0.70520  Biso   1.000  H
  C61      1.0000 0.26480  0.15200  0.65370  Biso   1.000  C
  C62      1.0000 0.27290  0.11330  0.59080  Biso   1.000  C
  H44      1.0000 0.31160  0.10370  0.58340  Biso   1.000  H
  C63      1.0000 0.22360  0.08800  0.53780  Biso   1.000  C
  H45      1.0000 0.22940  0.06210  0.49170  Biso   1.000  H
  C64      1.0000 0.36860  0.17920  0.68100  Biso   1.000  C
  H46      1.0000 0.37670  0.16770  0.61380  Biso   1.000  H
  C65      1.0000 0.32210  0.19740  0.81580  Biso   1.000  C
  H47      1.0000 0.29280  0.20140  0.85970  Biso   1.000  H
  C66      1.0000 0.38010  0.21060  0.84070  Biso   1.000  C
  H48      1.0000 0.39800  0.22530  0.90700  Biso   1.000  H
  N7       1.0000 0.70090  0.16920  0.16260  Biso   1.000  N
  N8       1.0000 0.79585  0.15217  0.20420  Biso   1.000  N
  N9       1.0000 0.12220  0.72209  0.29000  Biso   1.000  N
  N10      1.0000 0.12519  0.79384  0.36800  Biso   1.000  N
  N11      1.0000 0.40840  0.19991  0.75810  Biso   1.000  N
  N12      1.0000 0.31486  0.17696  0.71220  Biso   1.000  N
  S3       1.0000 0.54230  0.24998  0.98940  Biso   1.000  S
  O11      1.0000 0.59270  0.22090  0.03960  Biso   1.000  O
  O12      1.0000 0.51750  0.23220  0.88550  Biso   1.000  O
  O13      1.0000 0.49760  0.25150  0.05770  Biso   1.000  O
  O14      1.0000 0.51360  0.17310  0.16350  Biso   1.000  O
  O15      1.0000 0.56400  0.29820  0.97970  Biso   1.000  O
  S4       1.0000 0.53510  0.21750  0.02400  Biso   1.000  S
  O16      1.0000 0.60080  0.22140  0.04470  Biso   1.000  O
  O17      1.0000 0.51680  0.18980  0.92710  Biso   1.000  O
  O18      1.0000 0.50960  0.26470  0.01540  Biso   1.000  O
  O19      1.0000 0.51880  0.19280  0.11860  Biso   1.000  O
  O20      1.0000 0.48770  0.13680  0.66420  Biso   1.000  O
  Co3      1.0000 0.88946  0.67143  0.33490  Biso   1.000  Co
  C67      1.0000 0.75930  0.63985  0.28520  Biso   1.000  C
  H49      1.0000 0.76850  0.61310  0.24480  Biso   1.000  H
  C68      1.0000 0.76680  0.70230  0.38750  Biso   1.000  C
  H50      1.0000 0.78340  0.72800  0.43250  Biso   1.000  H
  C69      1.0000 0.70820  0.69200  0.36170  Biso   1.000  C
  H51      1.0000 0.67670  0.70870  0.38440  Biso   1.000  H
  C70      1.0000 0.64940  0.62921  0.24290  Biso   1.000  C
  C71      1.0000 0.60040  0.65643  0.20480  Biso   1.000  C
  H52      1.0000 0.60280  0.69020  0.21000  Biso   1.000  H
  C72      1.0000 0.54720  0.63499  0.15880  Biso   1.000  C
  H53      1.0000 0.51340  0.65410  0.13400  Biso   1.000  H
  C73      1.0000 0.54350  0.58534  0.14870  Biso   1.000  C
  C74      1.0000 0.59420  0.55860  0.18550  Biso   1.000  C
  H54      1.0000 0.59270  0.52490  0.17750  Biso   1.000  H
  C75      1.0000 0.64663  0.57988  0.23320  Biso   1.000  C
  H55      1.0000 0.68040  0.56090  0.25930  Biso   1.000  H
  C76      1.0000 0.48571  0.56228  0.10090  Biso   1.000  C
  C77      1.0000 0.43846  0.59012  0.04610  Biso   1.000  C
  H56      1.0000 0.44450  0.62320  0.03600  Biso   1.000  H
  C78      1.0000 0.38309  0.57039  0.00640  Biso   1.000  C
  C79      1.0000 0.37540  0.52095  0.01960  Biso   1.000  C
  H57      1.0000 0.33880  0.50650  0.98930  Biso   1.000  H
  C80      1.0000 0.42104  0.49297  0.07680  Biso   1.000  C
  C81      1.0000 0.47561  0.51375  0.11510  Biso   1.000  C
  H58      1.0000 0.50690  0.49450  0.15200  Biso   1.000  H
  C82      1.0000 0.41002  0.44025  0.09440  Biso   1.000  C
  C83      1.0000 0.35190  0.42400  0.08320  Biso   1.000  C
  H59      1.0000 0.32030  0.44620  0.06870  Biso   1.000  H
  C84      1.0000 0.33960  0.37520  0.09320  Biso   1.000  C
  H60      1.0000 0.30000  0.36410  0.08310  Biso   1.000  H
  C85      1.0000 0.38570  0.34419  0.11760  Biso   1.000  C
  C86      1.0000 0.44440  0.35978  0.12920  Biso   1.000  C
  H61      1.0000 0.47640  0.33790  0.14430  Biso   1.000  H
  C87      1.0000 0.45432  0.40784  0.11800  Biso   1.000  C
  H62      1.0000 0.49400  0.41880  0.12730  Biso   1.000  H
  C88      1.0000 0.39950  0.26617  0.21570  Biso   1.000  C
  H63      1.0000 0.42950  0.27700  0.27300  Biso   1.000  H
  C89      1.0000 0.33110  0.26640  0.06830  Biso   1.000  C
  H64      1.0000 0.30540  0.27640  0.00400  Biso   1.000  H
  C90      1.0000 0.33230  0.22370  0.11470  Biso   1.000  C
  H65      1.0000 0.30680  0.19790  0.08870  Biso   1.000  H
  C91      1.0000 0.33240  0.59926  0.94990  Biso   1.000  C
  C92      1.0000 0.34050  0.64070  0.88970  Biso   1.000  C
  H66      1.0000 0.37930  0.65100  0.88520  Biso   1.000  H
  C93      1.0000 0.29220  0.66620  0.83710  Biso   1.000  C
  H67      1.0000 0.29790  0.69340  0.79480  Biso   1.000  H
  C94      1.0000 0.23520  0.65200  0.84630  Biso   1.000  C
  C95      1.0000 0.22710  0.61330  0.90920  Biso   1.000  C
  H68      1.0000 0.18840  0.60370  0.91660  Biso   1.000  H
  C96      1.0000 0.27640  0.58800  0.96220  Biso   1.000  C
  H69      1.0000 0.27060  0.56210  0.00830  Biso   1.000  H
  C97      1.0000 0.13140  0.67920  0.81900  Biso   1.000  C
  H70      1.0000 0.12330  0.66770  0.88620  Biso   1.000  H
  C98      1.0000 0.17790  0.69740  0.68420  Biso   1.000  C
  H71      1.0000 0.20720  0.70140  0.64030  Biso   1.000  H
  C99      1.0000 0.11990  0.71060  0.65930  Biso   1.000  C
  H72      1.0000 0.10200  0.72530  0.59300  Biso   1.000  H
  N13      1.0000 0.79910  0.66920  0.33740  Biso   1.000  N
  N14      1.0000 0.70415  0.65217  0.29580  Biso   1.000  N
  N15      1.0000 0.37780  0.22209  0.21000  Biso   1.000  N
  N16      1.0000 0.37481  0.29384  0.13200  Biso   1.000  N
  N17      1.0000 0.09160  0.69991  0.74190  Biso   1.000  N
  N18      1.0000 0.18514  0.67696  0.78780  Biso   1.000  N
  S5       1.0000 0.95770  0.74998  0.51060  Biso   1.000  S
  O21      1.0000 0.90730  0.72090  0.46040  Biso   1.000  O
  O22      1.0000 0.98250  0.73220  0.61450  Biso   1.000  O
  O23      1.0000 0.00240  0.75150  0.44230  Biso   1.000  O
  O24      1.0000 0.98640  0.67310  0.33650  Biso   1.000  O
  O25      1.0000 0.93600  0.79820  0.52030  Biso   1.000  O
  S6       1.0000 0.96490  0.71750  0.47600  Biso   1.000  S
  O26      1.0000 0.89920  0.72140  0.45530  Biso   1.000  O
  O27      1.0000 0.98320  0.68980  0.57290  Biso   1.000  O
  O28      1.0000 0.99040  0.76470  0.48460  Biso   1.000  O
  O29      1.0000 0.98120  0.69280  0.38140  Biso   1.000  O
  O30      1.0000 0.01230  0.63680  0.83580  Biso   1.000  O
  Co4      1.0000 0.38946  0.17143  0.33490  Biso   1.000  Co
  C100     1.0000 0.25930  0.13985  0.28520  Biso   1.000  C
  H73      1.0000 0.26850  0.11310  0.24480  Biso   1.000  H
  C101     1.0000 0.26680  0.20230  0.38750  Biso   1.000  C
  H74      1.0000 0.28340  0.22800  0.43250  Biso   1.000  H
  C102     1.0000 0.20820  0.19200  0.36170  Biso   1.000  C
  H75      1.0000 0.17670  0.20870  0.38440  Biso   1.000  H
  C103     1.0000 0.14940  0.12921  0.24290  Biso   1.000  C
  C104     1.0000 0.10040  0.15643  0.20480  Biso   1.000  C
  H76      1.0000 0.10280  0.19020  0.21000  Biso   1.000  H
  C105     1.0000 0.04720  0.13499  0.15880  Biso   1.000  C
  H77      1.0000 0.01340  0.15410  0.13400  Biso   1.000  H
  C106     1.0000 0.04350  0.08534  0.14870  Biso   1.000  C
  C107     1.0000 0.09420  0.05860  0.18550  Biso   1.000  C
  H78      1.0000 0.09270  0.02490  0.17750  Biso   1.000  H
  C108     1.0000 0.14663  0.07988  0.23320  Biso   1.000  C
  H79      1.0000 0.18040  0.06090  0.25930  Biso   1.000  H
  C109     1.0000 0.98571  0.06228  0.10090  Biso   1.000  C
  C110     1.0000 0.93846  0.09012  0.04610  Biso   1.000  C
  H80      1.0000 0.94450  0.12320  0.03600  Biso   1.000  H
  C111     1.0000 0.88309  0.07039  0.00640  Biso   1.000  C
  C112     1.0000 0.87540  0.02095  0.01960  Biso   1.000  C
  H81      1.0000 0.83880  0.00650  0.98930  Biso   1.000  H
  C113     1.0000 0.92104  0.99297  0.07680  Biso   1.000  C
  C114     1.0000 0.97561  0.01375  0.11510  Biso   1.000  C
  H82      1.0000 0.00690  0.99450  0.15200  Biso   1.000  H
  C115     1.0000 0.91002  0.94025  0.09440  Biso   1.000  C
  C116     1.0000 0.85190  0.92400  0.08320  Biso   1.000  C
  H83      1.0000 0.82030  0.94620  0.06870  Biso   1.000  H
  C117     1.0000 0.83960  0.87520  0.09320  Biso   1.000  C
  H84      1.0000 0.80000  0.86410  0.08310  Biso   1.000  H
  C118     1.0000 0.88570  0.84419  0.11760  Biso   1.000  C
  C119     1.0000 0.94440  0.85978  0.12920  Biso   1.000  C
  H85      1.0000 0.97640  0.83790  0.14430  Biso   1.000  H
  C120     1.0000 0.95432  0.90784  0.11800  Biso   1.000  C
  H86      1.0000 0.99400  0.91880  0.12730  Biso   1.000  H
  C121     1.0000 0.89950  0.76617  0.21570  Biso   1.000  C
  H87      1.0000 0.92950  0.77700  0.27300  Biso   1.000  H
  C122     1.0000 0.83110  0.76640  0.06830  Biso   1.000  C
  H88      1.0000 0.80540  0.77640  0.00400  Biso   1.000  H
  C123     1.0000 0.83230  0.72370  0.11470  Biso   1.000  C
  H89      1.0000 0.80680  0.69790  0.08870  Biso   1.000  H
  C124     1.0000 0.83240  0.09926  0.94990  Biso   1.000  C
  C125     1.0000 0.84050  0.14070  0.88970  Biso   1.000  C
  H90      1.0000 0.87930  0.15100  0.88520  Biso   1.000  H
  C126     1.0000 0.79220  0.16620  0.83710  Biso   1.000  C
  H91      1.0000 0.79790  0.19340  0.79480  Biso   1.000  H
  C127     1.0000 0.73520  0.15200  0.84630  Biso   1.000  C
  C128     1.0000 0.72710  0.11330  0.90920  Biso   1.000  C
  H92      1.0000 0.68840  0.10370  0.91660  Biso   1.000  H
  C129     1.0000 0.77640  0.08800  0.96220  Biso   1.000  C
  H93      1.0000 0.77060  0.06210  0.00830  Biso   1.000  H
  C130     1.0000 0.63140  0.17920  0.81900  Biso   1.000  C
  H94      1.0000 0.62330  0.16770  0.88620  Biso   1.000  H
  C131     1.0000 0.67790  0.19740  0.68420  Biso   1.000  C
  H95      1.0000 0.70720  0.20140  0.64030  Biso   1.000  H
  C132     1.0000 0.61990  0.21060  0.65930  Biso   1.000  C
  H96      1.0000 0.60200  0.22530  0.59300  Biso   1.000  H
  N19      1.0000 0.29910  0.16920  0.33740  Biso   1.000  N
  N20      1.0000 0.20415  0.15217  0.29580  Biso   1.000  N
  N21      1.0000 0.87780  0.72209  0.21000  Biso   1.000  N
  N22      1.0000 0.87481  0.79384  0.13200  Biso   1.000  N
  N23      1.0000 0.59160  0.19991  0.74190  Biso   1.000  N
  N24      1.0000 0.68514  0.17696  0.78780  Biso   1.000  N
  S7       1.0000 0.45770  0.24998  0.51060  Biso   1.000  S
  O31      1.0000 0.40730  0.22090  0.46040  Biso   1.000  O
  O32      1.0000 0.48250  0.23220  0.61450  Biso   1.000  O
  O33      1.0000 0.50240  0.25150  0.44230  Biso   1.000  O
  O34      1.0000 0.48640  0.17310  0.33650  Biso   1.000  O
  O35      1.0000 0.43600  0.29820  0.52030  Biso   1.000  O
  S8       1.0000 0.46490  0.21750  0.47600  Biso   1.000  S
  O36      1.0000 0.39920  0.22140  0.45530  Biso   1.000  O
  O37      1.0000 0.48320  0.18980  0.57290  Biso   1.000  O
  O38      1.0000 0.49040  0.26470  0.48460  Biso   1.000  O
  O39      1.0000 0.48120  0.19280  0.38140  Biso   1.000  O
  O40      1.0000 0.51230  0.13680  0.83580  Biso   1.000  O
  Co5      1.0000 0.00000  0.70088  0.75000  Biso   1.000  Co
  O41      1.0000 0.00000  0.61930  0.75000  Biso   1.000  O
  Co6      1.0000 0.50000  0.20088  0.75000  Biso   1.000  Co
  O42      1.0000 0.50000  0.11930  0.75000  Biso   1.000  O
  Co7      1.0000 0.88946  0.32857  0.83490  Biso   1.000  Co
  C133     1.0000 0.75930  0.36015  0.78520  Biso   1.000  C
  H97      1.0000 0.76850  0.38690  0.74480  Biso   1.000  H
  C134     1.0000 0.76680  0.29770  0.88750  Biso   1.000  C
  H98      1.0000 0.78340  0.27200  0.93250  Biso   1.000  H
  C135     1.0000 0.70820  0.30800  0.86170  Biso   1.000  C
  H99      1.0000 0.67670  0.29130  0.88440  Biso   1.000  H
  C136     1.0000 0.64940  0.37079  0.74290  Biso   1.000  C
  C137     1.0000 0.60040  0.34357  0.70480  Biso   1.000  C
  H100     1.0000 0.60280  0.30980  0.71000  Biso   1.000  H
  C138     1.0000 0.54720  0.36501  0.65880  Biso   1.000  C
  H101     1.0000 0.51340  0.34590  0.63400  Biso   1.000  H
  C139     1.0000 0.54350  0.41466  0.64870  Biso   1.000  C
  C140     1.0000 0.59420  0.44140  0.68550  Biso   1.000  C
  H102     1.0000 0.59270  0.47510  0.67750  Biso   1.000  H
  C141     1.0000 0.64663  0.42012  0.73320  Biso   1.000  C
  H103     1.0000 0.68040  0.43910  0.75930  Biso   1.000  H
  C142     1.0000 0.48571  0.43772  0.60090  Biso   1.000  C
  C143     1.0000 0.43846  0.40988  0.54610  Biso   1.000  C
  H104     1.0000 0.44450  0.37680  0.53600  Biso   1.000  H
  C144     1.0000 0.38309  0.42961  0.50640  Biso   1.000  C
  C145     1.0000 0.37540  0.47905  0.51960  Biso   1.000  C
  H105     1.0000 0.33880  0.49350  0.48930  Biso   1.000  H
  C146     1.0000 0.42104  0.50703  0.57680  Biso   1.000  C
  C147     1.0000 0.47561  0.48625  0.61510  Biso   1.000  C
  H106     1.0000 0.50690  0.50550  0.65200  Biso   1.000  H
  C148     1.0000 0.41002  0.55975  0.59440  Biso   1.000  C
  C149     1.0000 0.35190  0.57600  0.58320  Biso   1.000  C
  H107     1.0000 0.32030  0.55380  0.56870  Biso   1.000  H
  C150     1.0000 0.33960  0.62480  0.59320  Biso   1.000  C
  H108     1.0000 0.30000  0.63590  0.58310  Biso   1.000  H
  C151     1.0000 0.38570  0.65581  0.61760  Biso   1.000  C
  C152     1.0000 0.44440  0.64022  0.62920  Biso   1.000  C
  H109     1.0000 0.47640  0.66210  0.64430  Biso   1.000  H
  C153     1.0000 0.45432  0.59216  0.61800  Biso   1.000  C
  H110     1.0000 0.49400  0.58120  0.62730  Biso   1.000  H
  C154     1.0000 0.39950  0.73383  0.71570  Biso   1.000  C
  H111     1.0000 0.42950  0.72300  0.77300  Biso   1.000  H
  C155     1.0000 0.33110  0.73360  0.56830  Biso   1.000  C
  H112     1.0000 0.30540  0.72360  0.50400  Biso   1.000  H
  C156     1.0000 0.33230  0.77630  0.61470  Biso   1.000  C
  H113     1.0000 0.30680  0.80210  0.58870  Biso   1.000  H
  C157     1.0000 0.33240  0.40074  0.44990  Biso   1.000  C
  C158     1.0000 0.34050  0.35930  0.38970  Biso   1.000  C
  H114     1.0000 0.37930  0.34900  0.38520  Biso   1.000  H
  C159     1.0000 0.29220  0.33380  0.33710  Biso   1.000  C
  H115     1.0000 0.29790  0.30660  0.29480  Biso   1.000  H
  C160     1.0000 0.23520  0.34800  0.34630  Biso   1.000  C
  C161     1.0000 0.22710  0.38670  0.40920  Biso   1.000  C
  H116     1.0000 0.18840  0.39630  0.41660  Biso   1.000  H
  C162     1.0000 0.27640  0.41200  0.46220  Biso   1.000  C
  H117     1.0000 0.27060  0.43790  0.50830  Biso   1.000  H
  C163     1.0000 0.13140  0.32080  0.31900  Biso   1.000  C
  H118     1.0000 0.12330  0.33230  0.38620  Biso   1.000  H
  C164     1.0000 0.17790  0.30260  0.18420  Biso   1.000  C
  H119     1.0000 0.20720  0.29860  0.14030  Biso   1.000  H
  C165     1.0000 0.11990  0.28940  0.15930  Biso   1.000  C
  H120     1.0000 0.10200  0.27470  0.09300  Biso   1.000  H
  N25      1.0000 0.79910  0.33080  0.83740  Biso   1.000  N
  N26      1.0000 0.70415  0.34783  0.79580  Biso   1.000  N
  N27      1.0000 0.37780  0.77791  0.71000  Biso   1.000  N
  N28      1.0000 0.37481  0.70616  0.63200  Biso   1.000  N
  N29      1.0000 0.09160  0.30009  0.24190  Biso   1.000  N
  N30      1.0000 0.18514  0.32304  0.28780  Biso   1.000  N
  S9       1.0000 0.95770  0.25002  0.01060  Biso   1.000  S
  O43      1.0000 0.90730  0.27910  0.96040  Biso   1.000  O
  O44      1.0000 0.98250  0.26780  0.11450  Biso   1.000  O
  O45      1.0000 0.00240  0.24850  0.94230  Biso   1.000  O
  O46      1.0000 0.98640  0.32690  0.83650  Biso   1.000  O
  O47      1.0000 0.93600  0.20180  0.02030  Biso   1.000  O
  S10      1.0000 0.96490  0.28250  0.97600  Biso   1.000  S
  O48      1.0000 0.89920  0.27860  0.95530  Biso   1.000  O
  O49      1.0000 0.98320  0.31020  0.07290  Biso   1.000  O
  O50      1.0000 0.99040  0.23530  0.98460  Biso   1.000  O
  O51      1.0000 0.98120  0.30720  0.88140  Biso   1.000  O
  O52      1.0000 0.01230  0.36320  0.33580  Biso   1.000  O
  Co8      1.0000 0.38946  0.82857  0.83490  Biso   1.000  Co
  C166     1.0000 0.25930  0.86015  0.78520  Biso   1.000  C
  H121     1.0000 0.26850  0.88690  0.74480  Biso   1.000  H
  C167     1.0000 0.26680  0.79770  0.88750  Biso   1.000  C
  H122     1.0000 0.28340  0.77200  0.93250  Biso   1.000  H
  C168     1.0000 0.20820  0.80800  0.86170  Biso   1.000  C
  H123     1.0000 0.17670  0.79130  0.88440  Biso   1.000  H
  C169     1.0000 0.14940  0.87079  0.74290  Biso   1.000  C
  C170     1.0000 0.10040  0.84357  0.70480  Biso   1.000  C
  H124     1.0000 0.10280  0.80980  0.71000  Biso   1.000  H
  C171     1.0000 0.04720  0.86501  0.65880  Biso   1.000  C
  H125     1.0000 0.01340  0.84590  0.63400  Biso   1.000  H
  C172     1.0000 0.04350  0.91466  0.64870  Biso   1.000  C
  C173     1.0000 0.09420  0.94140  0.68550  Biso   1.000  C
  H126     1.0000 0.09270  0.97510  0.67750  Biso   1.000  H
  C174     1.0000 0.14663  0.92012  0.73320  Biso   1.000  C
  H127     1.0000 0.18040  0.93910  0.75930  Biso   1.000  H
  C175     1.0000 0.98571  0.93772  0.60090  Biso   1.000  C
  C176     1.0000 0.93846  0.90988  0.54610  Biso   1.000  C
  H128     1.0000 0.94450  0.87680  0.53600  Biso   1.000  H
  C177     1.0000 0.88309  0.92961  0.50640  Biso   1.000  C
  C178     1.0000 0.87540  0.97905  0.51960  Biso   1.000  C
  H129     1.0000 0.83880  0.99350  0.48930  Biso   1.000  H
  C179     1.0000 0.92104  0.00703  0.57680  Biso   1.000  C
  C180     1.0000 0.97561  0.98625  0.61510  Biso   1.000  C
  H130     1.0000 0.00690  0.00550  0.65200  Biso   1.000  H
  C181     1.0000 0.91002  0.05975  0.59440  Biso   1.000  C
  C182     1.0000 0.85190  0.07600  0.58320  Biso   1.000  C
  H131     1.0000 0.82030  0.05380  0.56870  Biso   1.000  H
  C183     1.0000 0.83960  0.12480  0.59320  Biso   1.000  C
  H132     1.0000 0.80000  0.13590  0.58310  Biso   1.000  H
  C184     1.0000 0.88570  0.15581  0.61760  Biso   1.000  C
  C185     1.0000 0.94440  0.14022  0.62920  Biso   1.000  C
  H133     1.0000 0.97640  0.16210  0.64430  Biso   1.000  H
  C186     1.0000 0.95432  0.09216  0.61800  Biso   1.000  C
  H134     1.0000 0.99400  0.08120  0.62730  Biso   1.000  H
  C187     1.0000 0.89950  0.23383  0.71570  Biso   1.000  C
  H135     1.0000 0.92950  0.22300  0.77300  Biso   1.000  H
  C188     1.0000 0.83110  0.23360  0.56830  Biso   1.000  C
  H136     1.0000 0.80540  0.22360  0.50400  Biso   1.000  H
  C189     1.0000 0.83230  0.27630  0.61470  Biso   1.000  C
  H137     1.0000 0.80680  0.30210  0.58870  Biso   1.000  H
  C190     1.0000 0.83240  0.90074  0.44990  Biso   1.000  C
  C191     1.0000 0.84050  0.85930  0.38970  Biso   1.000  C
  H138     1.0000 0.87930  0.84900  0.38520  Biso   1.000  H
  C192     1.0000 0.79220  0.83380  0.33710  Biso   1.000  C
  H139     1.0000 0.79790  0.80660  0.29480  Biso   1.000  H
  C193     1.0000 0.73520  0.84800  0.34630  Biso   1.000  C
  C194     1.0000 0.72710  0.88670  0.40920  Biso   1.000  C
  H140     1.0000 0.68840  0.89630  0.41660  Biso   1.000  H
  C195     1.0000 0.77640  0.91200  0.46220  Biso   1.000  C
  H141     1.0000 0.77060  0.93790  0.50830  Biso   1.000  H
  C196     1.0000 0.63140  0.82080  0.31900  Biso   1.000  C
  H142     1.0000 0.62330  0.83230  0.38620  Biso   1.000  H
  C197     1.0000 0.67790  0.80260  0.18420  Biso   1.000  C
  H143     1.0000 0.70720  0.79860  0.14030  Biso   1.000  H
  C198     1.0000 0.61990  0.78940  0.15930  Biso   1.000  C
  H144     1.0000 0.60200  0.77470  0.09300  Biso   1.000  H
  N31      1.0000 0.29910  0.83080  0.83740  Biso   1.000  N
  N32      1.0000 0.20415  0.84783  0.79580  Biso   1.000  N
  N33      1.0000 0.87780  0.27791  0.71000  Biso   1.000  N
  N34      1.0000 0.87481  0.20616  0.63200  Biso   1.000  N
  N35      1.0000 0.59160  0.80009  0.24190  Biso   1.000  N
  N36      1.0000 0.68514  0.82304  0.28780  Biso   1.000  N
  S11      1.0000 0.45770  0.75002  0.01060  Biso   1.000  S
  O53      1.0000 0.40730  0.77910  0.96040  Biso   1.000  O
  O54      1.0000 0.48250  0.76780  0.11450  Biso   1.000  O
  O55      1.0000 0.50240  0.74850  0.94230  Biso   1.000  O
  O56      1.0000 0.48640  0.82690  0.83650  Biso   1.000  O
  O57      1.0000 0.43600  0.70180  0.02030  Biso   1.000  O
  S12      1.0000 0.46490  0.78250  0.97600  Biso   1.000  S
  O58      1.0000 0.39920  0.77860  0.95530  Biso   1.000  O
  O59      1.0000 0.48320  0.81020  0.07290  Biso   1.000  O
  O60      1.0000 0.49040  0.73530  0.98460  Biso   1.000  O
  O61      1.0000 0.48120  0.80720  0.88140  Biso   1.000  O
  O62      1.0000 0.51230  0.86320  0.33580  Biso   1.000  O
  Co9      1.0000 0.11054  0.32857  0.66510  Biso   1.000  Co
  C199     1.0000 0.24070  0.36015  0.71480  Biso   1.000  C
  H145     1.0000 0.23150  0.38690  0.75520  Biso   1.000  H
  C200     1.0000 0.23320  0.29770  0.61250  Biso   1.000  C
  H146     1.0000 0.21660  0.27200  0.56750  Biso   1.000  H
  C201     1.0000 0.29180  0.30800  0.63830  Biso   1.000  C
  H147     1.0000 0.32330  0.29130  0.61560  Biso   1.000  H
  C202     1.0000 0.35060  0.37079  0.75710  Biso   1.000  C
  C203     1.0000 0.39960  0.34357  0.79520  Biso   1.000  C
  H148     1.0000 0.39720  0.30980  0.79000  Biso   1.000  H
  C204     1.0000 0.45280  0.36501  0.84120  Biso   1.000  C
  H149     1.0000 0.48660  0.34590  0.86600  Biso   1.000  H
  C205     1.0000 0.45650  0.41466  0.85130  Biso   1.000  C
  C206     1.0000 0.40580  0.44140  0.81450  Biso   1.000  C
  H150     1.0000 0.40730  0.47510  0.82250  Biso   1.000  H
  C207     1.0000 0.35337  0.42012  0.76680  Biso   1.000  C
  H151     1.0000 0.31960  0.43910  0.74070  Biso   1.000  H
  C208     1.0000 0.51429  0.43772  0.89910  Biso   1.000  C
  C209     1.0000 0.56154  0.40988  0.95390  Biso   1.000  C
  H152     1.0000 0.55550  0.37680  0.96400  Biso   1.000  H
  C210     1.0000 0.61691  0.42961  0.99360  Biso   1.000  C
  C211     1.0000 0.62460  0.47905  0.98040  Biso   1.000  C
  H153     1.0000 0.66120  0.49350  0.01070  Biso   1.000  H
  C212     1.0000 0.57896  0.50703  0.92320  Biso   1.000  C
  C213     1.0000 0.52439  0.48625  0.88490  Biso   1.000  C
  H154     1.0000 0.49310  0.50550  0.84800  Biso   1.000  H
  C214     1.0000 0.58998  0.55975  0.90560  Biso   1.000  C
  C215     1.0000 0.64810  0.57600  0.91680  Biso   1.000  C
  H155     1.0000 0.67970  0.55380  0.93130  Biso   1.000  H
  C216     1.0000 0.66040  0.62480  0.90680  Biso   1.000  C
  H156     1.0000 0.70000  0.63590  0.91690  Biso   1.000  H
  C217     1.0000 0.61430  0.65581  0.88240  Biso   1.000  C
  C218     1.0000 0.55560  0.64022  0.87080  Biso   1.000  C
  H157     1.0000 0.52360  0.66210  0.85570  Biso   1.000  H
  C219     1.0000 0.54568  0.59216  0.88200  Biso   1.000  C
  H158     1.0000 0.50600  0.58120  0.87270  Biso   1.000  H
  C220     1.0000 0.60050  0.73383  0.78430  Biso   1.000  C
  H159     1.0000 0.57050  0.72300  0.72700  Biso   1.000  H
  C221     1.0000 0.66890  0.73360  0.93170  Biso   1.000  C
  H160     1.0000 0.69460  0.72360  0.99600  Biso   1.000  H
  C222     1.0000 0.66770  0.77630  0.88530  Biso   1.000  C
  H161     1.0000 0.69320  0.80210  0.91130  Biso   1.000  H
  C223     1.0000 0.66760  0.40074  0.05010  Biso   1.000  C
  C224     1.0000 0.65950  0.35930  0.11030  Biso   1.000  C
  H162     1.0000 0.62070  0.34900  0.11480  Biso   1.000  H
  C225     1.0000 0.70780  0.33380  0.16290  Biso   1.000  C
  H163     1.0000 0.70210  0.30660  0.20520  Biso   1.000  H
  C226     1.0000 0.76480  0.34800  0.15370  Biso   1.000  C
  C227     1.0000 0.77290  0.38670  0.09080  Biso   1.000  C
  H164     1.0000 0.81160  0.39630  0.08340  Biso   1.000  H
  C228     1.0000 0.72360  0.41200  0.03780  Biso   1.000  C
  H165     1.0000 0.72940  0.43790  0.99170  Biso   1.000  H
  C229     1.0000 0.86860  0.32080  0.18100  Biso   1.000  C
  H166     1.0000 0.87670  0.33230  0.11380  Biso   1.000  H
  C230     1.0000 0.82210  0.30260  0.31580  Biso   1.000  C
  H167     1.0000 0.79280  0.29860  0.35970  Biso   1.000  H
  C231     1.0000 0.88010  0.28940  0.34070  Biso   1.000  C
  H168     1.0000 0.89800  0.27470  0.40700  Biso   1.000  H
  N37      1.0000 0.20090  0.33080  0.66260  Biso   1.000  N
  N38      1.0000 0.29585  0.34783  0.70420  Biso   1.000  N
  N39      1.0000 0.62220  0.77791  0.79000  Biso   1.000  N
  N40      1.0000 0.62519  0.70616  0.86800  Biso   1.000  N
  N41      1.0000 0.90840  0.30009  0.25810  Biso   1.000  N
  N42      1.0000 0.81486  0.32304  0.21220  Biso   1.000  N
  S13      1.0000 0.04230  0.25002  0.48940  Biso   1.000  S
  O63      1.0000 0.09270  0.27910  0.53960  Biso   1.000  O
  O64      1.0000 0.01750  0.26780  0.38550  Biso   1.000  O
  O65      1.0000 0.99760  0.24850  0.55770  Biso   1.000  O
  O66      1.0000 0.01360  0.32690  0.66350  Biso   1.000  O
  O67      1.0000 0.06400  0.20180  0.47970  Biso   1.000  O
  S14      1.0000 0.03510  0.28250  0.52400  Biso   1.000  S
  O68      1.0000 0.10080  0.27860  0.54470  Biso   1.000  O
  O69      1.0000 0.01680  0.31020  0.42710  Biso   1.000  O
  O70      1.0000 0.00960  0.23530  0.51540  Biso   1.000  O
  O71      1.0000 0.01880  0.30720  0.61860  Biso   1.000  O
  O72      1.0000 0.98770  0.36320  0.16420  Biso   1.000  O
  Co10     1.0000 0.61054  0.82857  0.66510  Biso   1.000  Co
  C232     1.0000 0.74070  0.86015  0.71480  Biso   1.000  C
  H169     1.0000 0.73150  0.88690  0.75520  Biso   1.000  H
  C233     1.0000 0.73320  0.79770  0.61250  Biso   1.000  C
  H170     1.0000 0.71660  0.77200  0.56750  Biso   1.000  H
  C234     1.0000 0.79180  0.80800  0.63830  Biso   1.000  C
  H171     1.0000 0.82330  0.79130  0.61560  Biso   1.000  H
  C235     1.0000 0.85060  0.87079  0.75710  Biso   1.000  C
  C236     1.0000 0.89960  0.84357  0.79520  Biso   1.000  C
  H172     1.0000 0.89720  0.80980  0.79000  Biso   1.000  H
  C237     1.0000 0.95280  0.86501  0.84120  Biso   1.000  C
  H173     1.0000 0.98660  0.84590  0.86600  Biso   1.000  H
  C238     1.0000 0.95650  0.91466  0.85130  Biso   1.000  C
  C239     1.0000 0.90580  0.94140  0.81450  Biso   1.000  C
  H174     1.0000 0.90730  0.97510  0.82250  Biso   1.000  H
  C240     1.0000 0.85337  0.92012  0.76680  Biso   1.000  C
  H175     1.0000 0.81960  0.93910  0.74070  Biso   1.000  H
  C241     1.0000 0.01429  0.93772  0.89910  Biso   1.000  C
  C242     1.0000 0.06154  0.90988  0.95390  Biso   1.000  C
  H176     1.0000 0.05550  0.87680  0.96400  Biso   1.000  H
  C243     1.0000 0.11691  0.92961  0.99360  Biso   1.000  C
  C244     1.0000 0.12460  0.97905  0.98040  Biso   1.000  C
  H177     1.0000 0.16120  0.99350  0.01070  Biso   1.000  H
  C245     1.0000 0.07896  0.00703  0.92320  Biso   1.000  C
  C246     1.0000 0.02439  0.98625  0.88490  Biso   1.000  C
  H178     1.0000 0.99310  0.00550  0.84800  Biso   1.000  H
  C247     1.0000 0.08998  0.05975  0.90560  Biso   1.000  C
  C248     1.0000 0.14810  0.07600  0.91680  Biso   1.000  C
  H179     1.0000 0.17970  0.05380  0.93130  Biso   1.000  H
  C249     1.0000 0.16040  0.12480  0.90680  Biso   1.000  C
  H180     1.0000 0.20000  0.13590  0.91690  Biso   1.000  H
  C250     1.0000 0.11430  0.15581  0.88240  Biso   1.000  C
  C251     1.0000 0.05560  0.14022  0.87080  Biso   1.000  C
  H181     1.0000 0.02360  0.16210  0.85570  Biso   1.000  H
  C252     1.0000 0.04568  0.09216  0.88200  Biso   1.000  C
  H182     1.0000 0.00600  0.08120  0.87270  Biso   1.000  H
  C253     1.0000 0.10050  0.23383  0.78430  Biso   1.000  C
  H183     1.0000 0.07050  0.22300  0.72700  Biso   1.000  H
  C254     1.0000 0.16890  0.23360  0.93170  Biso   1.000  C
  H184     1.0000 0.19460  0.22360  0.99600  Biso   1.000  H
  C255     1.0000 0.16770  0.27630  0.88530  Biso   1.000  C
  H185     1.0000 0.19320  0.30210  0.91130  Biso   1.000  H
  C256     1.0000 0.16760  0.90074  0.05010  Biso   1.000  C
  C257     1.0000 0.15950  0.85930  0.11030  Biso   1.000  C
  H186     1.0000 0.12070  0.84900  0.11480  Biso   1.000  H
  C258     1.0000 0.20780  0.83380  0.16290  Biso   1.000  C
  H187     1.0000 0.20210  0.80660  0.20520  Biso   1.000  H
  C259     1.0000 0.26480  0.84800  0.15370  Biso   1.000  C
  C260     1.0000 0.27290  0.88670  0.09080  Biso   1.000  C
  H188     1.0000 0.31160  0.89630  0.08340  Biso   1.000  H
  C261     1.0000 0.22360  0.91200  0.03780  Biso   1.000  C
  H189     1.0000 0.22940  0.93790  0.99170  Biso   1.000  H
  C262     1.0000 0.36860  0.82080  0.18100  Biso   1.000  C
  H190     1.0000 0.37670  0.83230  0.11380  Biso   1.000  H
  C263     1.0000 0.32210  0.80260  0.31580  Biso   1.000  C
  H191     1.0000 0.29280  0.79860  0.35970  Biso   1.000  H
  C264     1.0000 0.38010  0.78940  0.34070  Biso   1.000  C
  H192     1.0000 0.39800  0.77470  0.40700  Biso   1.000  H
  N43      1.0000 0.70090  0.83080  0.66260  Biso   1.000  N
  N44      1.0000 0.79585  0.84783  0.70420  Biso   1.000  N
  N45      1.0000 0.12220  0.27791  0.79000  Biso   1.000  N
  N46      1.0000 0.12519  0.20616  0.86800  Biso   1.000  N
  N47      1.0000 0.40840  0.80009  0.25810  Biso   1.000  N
  N48      1.0000 0.31486  0.82304  0.21220  Biso   1.000  N
  S15      1.0000 0.54230  0.75002  0.48940  Biso   1.000  S
  O73      1.0000 0.59270  0.77910  0.53960  Biso   1.000  O
  O74      1.0000 0.51750  0.76780  0.38550  Biso   1.000  O
  O75      1.0000 0.49760  0.74850  0.55770  Biso   1.000  O
  O76      1.0000 0.51360  0.82690  0.66350  Biso   1.000  O
  O77      1.0000 0.56400  0.70180  0.47970  Biso   1.000  O
  S16      1.0000 0.53510  0.78250  0.52400  Biso   1.000  S
  O78      1.0000 0.60080  0.77860  0.54470  Biso   1.000  O
  O79      1.0000 0.51680  0.81020  0.42710  Biso   1.000  O
  O80      1.0000 0.50960  0.73530  0.51540  Biso   1.000  O
  O81      1.0000 0.51880  0.80720  0.61860  Biso   1.000  O
  O82      1.0000 0.48770  0.86320  0.16420  Biso   1.000  O
  Co11     1.0000 0.00000  0.29912  0.25000  Biso   1.000  Co
  O83      1.0000 0.00000  0.38070  0.25000  Biso   1.000  O
  Co12     1.0000 0.50000  0.79912  0.25000  Biso   1.000  Co
  O84      1.0000 0.50000  0.88070  0.25000  Biso   1.000  O
