data_image0
_cell_length_a       16.804
_cell_length_b       16.228
_cell_length_c       26.461
_cell_angle_alpha    90
_cell_angle_beta     103.17
_cell_angle_gamma    90

_symmetry_space_group_name_H-M    "P 1"
_symmetry_int_tables_number       1

loop_
  _symmetry_equiv_pos_as_xyz
  'x, y, z'

loop_
  _atom_site_label
  _atom_site_occupancy
  _atom_site_fract_x
  _atom_site_fract_y
  _atom_site_fract_z
  _atom_site_thermal_displace_type
  _atom_site_B_iso_or_equiv
  _atom_site_type_symbol
  Cd1      1.0000 0.52587  0.29612  0.24280  Biso   1.000  Cd
  Cd2      1.0000 0.61475  0.55013  0.24570  Biso   1.000  Cd
  Cd3      1.0000 0.87528  0.95540  0.24913  Biso   1.000  Cd
  Cd4      1.0000 0.95813  0.20655  0.24826  Biso   1.000  Cd
  O1       1.0000 0.72640  0.49380  0.29976  Biso   1.000  O
  O2       1.0000 0.67900  0.60250  0.33287  Biso   1.000  O
  O3       1.0000 0.87260  0.14545  0.29645  Biso   1.000  O
  O4       1.0000 0.88570  0.01540  0.32549  Biso   1.000  O
  O5       1.0000 0.61490  0.36110  0.19765  Biso   1.000  O
  O6       1.0000 0.58780  0.48930  0.16807  Biso   1.000  O
  O7       1.0000 0.76440  0.01380  0.19300  Biso   1.000  O
  O8       1.0000 0.82160  0.91000  0.16147  Biso   1.000  O
  O9       1.0000 0.05010  0.20670  0.72580  Biso   1.000  O
  O10      1.0000 0.16850  0.15847  0.71729  Biso   1.000  O
  O11      1.0000 0.00460  0.54350  0.73621  Biso   1.000  O
  O12      1.0000 0.94913  0.42204  0.71638  Biso   1.000  O
  O13      1.0000 0.32570  0.34166  0.78784  Biso   1.000  O
  O14      1.0000 0.43780  0.29360  0.76853  Biso   1.000  O
  O15      1.0000 0.48720  0.95240  0.76167  Biso   1.000  O
  O16      1.0000 0.53980  0.07590  0.77502  Biso   1.000  O
  N1       1.0000 0.00530  0.42220  0.61155  Biso   1.000  N
  N2       1.0000 0.96760  0.34010  0.53470  Biso   1.000  N
  N3       1.0000 0.04960  0.28160  0.61231  Biso   1.000  N
  N4       1.0000 0.93130  0.47890  0.53750  Biso   1.000  N
  H1       1.0000 0.93620  0.52210  0.55680  Biso   1.000  H
  N5       1.0000 0.00520  0.20130  0.54116  Biso   1.000  N
  H2       1.0000 0.02600  0.16220  0.56200  Biso   1.000  H
  N6       1.0000 0.08660  0.36270  0.68531  Biso   1.000  N
  N7       1.0000 0.46940  0.29070  0.95657  Biso   1.000  N
  H3       1.0000 0.43890  0.32610  0.93700  Biso   1.000  H
  N8       1.0000 0.43610  0.21440  0.88290  Biso   1.000  N
  N9       1.0000 0.52630  0.15850  0.95890  Biso   1.000  N
  N10      1.0000 0.48960  0.07820  0.88114  Biso   1.000  N
  N11      1.0000 0.57150  0.02330  0.95340  Biso   1.000  N
  H4       1.0000 0.57100  0.97970  0.93230  Biso   1.000  H
  N12      1.0000 0.40570  0.13630  0.80881  Biso   1.000  N
  C1       1.0000 0.72670  0.54140  0.33774  Biso   1.000  C
  C2       1.0000 0.78390  0.52520  0.38837  Biso   1.000  C
  C3       1.0000 0.80170  0.58640  0.42650  Biso   1.000  C
  H5       1.0000 0.77990  0.63890  0.41950  Biso   1.000  H
  C4       1.0000 0.85170  0.56900  0.47450  Biso   1.000  C
  H6       1.0000 0.86350  0.61060  0.49920  Biso   1.000  H
  C5       1.0000 0.88490  0.49050  0.48680  Biso   1.000  C
  C6       1.0000 0.86980  0.43060  0.44824  Biso   1.000  C
  H7       1.0000 0.89240  0.37840  0.45490  Biso   1.000  H
  C7       1.0000 0.82070  0.44900  0.39973  Biso   1.000  C
  H8       1.0000 0.81230  0.40880  0.37410  Biso   1.000  H
  C8       1.0000 0.96970  0.41080  0.56137  Biso   1.000  C
  C9       1.0000 0.00740  0.27810  0.56290  Biso   1.000  C
  C10      1.0000 0.04530  0.35580  0.63435  Biso   1.000  C
  C11      1.0000 0.97370  0.17820  0.48974  Biso   1.000  C
  C12      1.0000 0.97250  0.22960  0.44795  Biso   1.000  C
  H9       1.0000 0.99200  0.28330  0.45370  Biso   1.000  H
  C13      1.0000 0.94260  0.20230  0.39760  Biso   1.000  C
  H10      1.0000 0.94030  0.23850  0.37010  Biso   1.000  H
  C14      1.0000 0.91640  0.12250  0.38772  Biso   1.000  C
  C15      1.0000 0.91740  0.07010  0.42948  Biso   1.000  C
  H11      1.0000 0.90010  0.01580  0.42350  Biso   1.000  H
  C16      1.0000 0.94380  0.09810  0.47978  Biso   1.000  C
  H12      1.0000 0.94160  0.06330  0.50730  Biso   1.000  H
  C17      1.0000 0.88970  0.09310  0.33227  Biso   1.000  C
  C18      1.0000 0.08970  0.44410  0.70957  Biso   1.000  C
  H13      1.0000 0.10570  0.48460  0.68680  Biso   1.000  H
  H14      1.0000 0.13120  0.44370  0.74170  Biso   1.000  H
  C19      1.0000 0.00910  0.47010  0.72103  Biso   1.000  C
  C20      1.0000 0.14940  0.30150  0.70535  Biso   1.000  C
  H15      1.0000 0.18370  0.32260  0.73720  Biso   1.000  H
  H16      1.0000 0.18350  0.29540  0.68050  Biso   1.000  H
  C21      1.0000 0.11910  0.21700  0.71628  Biso   1.000  C
  C22      1.0000 0.58970  0.41300  0.16239  Biso   1.000  C
  C23      1.0000 0.55930  0.38040  0.10775  Biso   1.000  C
  C24      1.0000 0.58080  0.30280  0.09490  Biso   1.000  C
  H17      1.0000 0.61480  0.27070  0.11990  Biso   1.000  H
  C25      1.0000 0.55280  0.27140  0.04560  Biso   1.000  C
  H18      1.0000 0.56870  0.21900  0.03770  Biso   1.000  H
  C26      1.0000 0.50140  0.31740  0.00761  Biso   1.000  C
  C27      1.0000 0.47880  0.39580  0.02000  Biso   1.000  C
  H19      1.0000 0.44360  0.42710  0.99500  Biso   1.000  H
  C28      1.0000 0.50850  0.42780  0.06940  Biso   1.000  C
  H20      1.0000 0.49440  0.48110  0.07710  Biso   1.000  H
  C29      1.0000 0.47900  0.21750  0.93299  Biso   1.000  C
  C30      1.0000 0.52730  0.09010  0.93112  Biso   1.000  C
  C31      1.0000 0.44610  0.14320  0.85974  Biso   1.000  C
  C32      1.0000 0.61810  0.01270  0.00444  Biso   1.000  C
  C33      1.0000 0.60260  0.05630  0.04790  Biso   1.000  C
  H21      1.0000 0.55940  0.09340  0.04380  Biso   1.000  H
  C34      1.0000 0.65310  0.04230  0.09620  Biso   1.000  C
  H22      1.0000 0.64550  0.07250  0.12450  Biso   1.000  H
  C35      1.0000 0.71570  0.98340  0.10304  Biso   1.000  C
  C36      1.0000 0.72280  0.93840  0.06100  Biso   1.000  C
  H23      1.0000 0.76220  0.89720  0.06520  Biso   1.000  H
  C37      1.0000 0.67350  0.95180  0.01220  Biso   1.000  C
  H24      1.0000 0.67880  0.91840  0.98460  Biso   1.000  H
  C38      1.0000 0.77040  0.96850  0.15516  Biso   1.000  C
  C39      1.0000 0.40220  0.05490  0.78499  Biso   1.000  C
  H25      1.0000 0.36070  0.05530  0.75280  Biso   1.000  H
  H26      1.0000 0.38560  0.01500  0.80790  Biso   1.000  H
  C40      1.0000 0.48160  0.02760  0.77376  Biso   1.000  C
  C41      1.0000 0.34150  0.19670  0.78986  Biso   1.000  C
  H27      1.0000 0.30640  0.19980  0.81430  Biso   1.000  H
  H28      1.0000 0.30840  0.17750  0.75700  Biso   1.000  H
  C42      1.0000 0.37230  0.28200  0.78228  Biso   1.000  C
  C43      1.0000 0.65650  0.07640  0.03580  Biso   1.000  C
  H29      1.0000 0.65290  0.13040  0.02380  Biso   1.000  H
  C44      1.0000 0.69960  0.05780  0.08470  Biso   1.000  C
  H30      1.0000 0.71920  0.10160  0.10670  Biso   1.000  H
  C45      1.0000 0.69090  0.91240  0.06860  Biso   1.000  C
  H31      1.0000 0.70580  0.85870  0.07880  Biso   1.000  H
  C46      1.0000 0.64490  0.93100  0.02110  Biso   1.000  C
  H32      1.0000 0.62960  0.88770  0.99770  Biso   1.000  H
  Cd5      1.0000 0.47413  0.79612  0.25720  Biso   1.000  Cd
  Cd6      1.0000 0.38525  0.05013  0.25430  Biso   1.000  Cd
  Cd7      1.0000 0.12472  0.45540  0.25087  Biso   1.000  Cd
  Cd8      1.0000 0.04187  0.70655  0.25174  Biso   1.000  Cd
  O17      1.0000 0.27360  0.99380  0.20024  Biso   1.000  O
  O18      1.0000 0.32100  0.10250  0.16713  Biso   1.000  O
  O19      1.0000 0.12740  0.64545  0.20355  Biso   1.000  O
  O20      1.0000 0.11430  0.51540  0.17451  Biso   1.000  O
  O21      1.0000 0.38510  0.86110  0.30235  Biso   1.000  O
  O22      1.0000 0.41220  0.98930  0.33193  Biso   1.000  O
  O23      1.0000 0.23560  0.51380  0.30700  Biso   1.000  O
  O24      1.0000 0.17840  0.41000  0.33853  Biso   1.000  O
  O25      1.0000 0.94990  0.70670  0.77420  Biso   1.000  O
  O26      1.0000 0.83150  0.65847  0.78271  Biso   1.000  O
  O27      1.0000 0.99540  0.04350  0.76379  Biso   1.000  O
  O28      1.0000 0.05087  0.92204  0.78362  Biso   1.000  O
  O29      1.0000 0.67430  0.84166  0.71216  Biso   1.000  O
  O30      1.0000 0.56220  0.79360  0.73147  Biso   1.000  O
  O31      1.0000 0.51280  0.45240  0.73833  Biso   1.000  O
  O32      1.0000 0.46020  0.57590  0.72498  Biso   1.000  O
  N13      1.0000 0.99470  0.92220  0.88845  Biso   1.000  N
  N14      1.0000 0.03240  0.84010  0.96530  Biso   1.000  N
  N15      1.0000 0.95040  0.78160  0.88769  Biso   1.000  N
  N16      1.0000 0.06870  0.97890  0.96250  Biso   1.000  N
  H33      1.0000 0.06380  0.02210  0.94320  Biso   1.000  H
  N17      1.0000 0.99480  0.70130  0.95884  Biso   1.000  N
  H34      1.0000 0.97400  0.66220  0.93800  Biso   1.000  H
  N18      1.0000 0.91340  0.86270  0.81469  Biso   1.000  N
  N19      1.0000 0.53060  0.79070  0.54343  Biso   1.000  N
  H35      1.0000 0.56110  0.82610  0.56300  Biso   1.000  H
  N20      1.0000 0.56390  0.71440  0.61710  Biso   1.000  N
  N21      1.0000 0.47370  0.65850  0.54110  Biso   1.000  N
  N22      1.0000 0.51040  0.57820  0.61886  Biso   1.000  N
  N23      1.0000 0.42850  0.52330  0.54660  Biso   1.000  N
  H36      1.0000 0.42900  0.47970  0.56770  Biso   1.000  H
  N24      1.0000 0.59430  0.63630  0.69119  Biso   1.000  N
  C47      1.0000 0.27330  0.04140  0.16226  Biso   1.000  C
  C48      1.0000 0.21610  0.02520  0.11163  Biso   1.000  C
  C49      1.0000 0.19830  0.08640  0.07350  Biso   1.000  C
  H37      1.0000 0.22010  0.13890  0.08050  Biso   1.000  H
  C50      1.0000 0.14830  0.06900  0.02550  Biso   1.000  C
  H38      1.0000 0.13650  0.11060  0.00080  Biso   1.000  H
  C51      1.0000 0.11510  0.99050  0.01320  Biso   1.000  C
  C52      1.0000 0.13020  0.93060  0.05176  Biso   1.000  C
  H39      1.0000 0.10760  0.87840  0.04510  Biso   1.000  H
  C53      1.0000 0.17930  0.94900  0.10027  Biso   1.000  C
  H40      1.0000 0.18770  0.90880  0.12590  Biso   1.000  H
  C54      1.0000 0.03030  0.91080  0.93863  Biso   1.000  C
  C55      1.0000 0.99260  0.77810  0.93710  Biso   1.000  C
  C56      1.0000 0.95470  0.85580  0.86565  Biso   1.000  C
  C57      1.0000 0.02630  0.67820  0.01026  Biso   1.000  C
  C58      1.0000 0.02750  0.72960  0.05205  Biso   1.000  C
  H41      1.0000 0.00800  0.78330  0.04630  Biso   1.000  H
  C59      1.0000 0.05740  0.70230  0.10240  Biso   1.000  C
  H42      1.0000 0.05970  0.73850  0.12990  Biso   1.000  H
  C60      1.0000 0.08360  0.62250  0.11228  Biso   1.000  C
  C61      1.0000 0.08260  0.57010  0.07052  Biso   1.000  C
  H43      1.0000 0.09990  0.51580  0.07650  Biso   1.000  H
  C62      1.0000 0.05620  0.59810  0.02022  Biso   1.000  C
  H44      1.0000 0.05840  0.56330  0.99270  Biso   1.000  H
  C63      1.0000 0.11030  0.59310  0.16773  Biso   1.000  C
  C64      1.0000 0.91030  0.94410  0.79043  Biso   1.000  C
  H45      1.0000 0.89430  0.98460  0.81320  Biso   1.000  H
  H46      1.0000 0.86880  0.94370  0.75830  Biso   1.000  H
  C65      1.0000 0.99090  0.97010  0.77897  Biso   1.000  C
  C66      1.0000 0.85060  0.80150  0.79465  Biso   1.000  C
  H47      1.0000 0.81630  0.82260  0.76280  Biso   1.000  H
  H48      1.0000 0.81650  0.79540  0.81950  Biso   1.000  H
  C67      1.0000 0.88090  0.71700  0.78372  Biso   1.000  C
  C68      1.0000 0.41030  0.91300  0.33761  Biso   1.000  C
  C69      1.0000 0.44070  0.88040  0.39225  Biso   1.000  C
  C70      1.0000 0.41920  0.80280  0.40510  Biso   1.000  C
  H49      1.0000 0.38520  0.77070  0.38010  Biso   1.000  H
  C71      1.0000 0.44720  0.77140  0.45440  Biso   1.000  C
  H50      1.0000 0.43130  0.71900  0.46230  Biso   1.000  H
  C72      1.0000 0.49860  0.81740  0.49239  Biso   1.000  C
  C73      1.0000 0.52120  0.89580  0.48000  Biso   1.000  C
  H51      1.0000 0.55640  0.92710  0.50500  Biso   1.000  H
  C74      1.0000 0.49150  0.92780  0.43060  Biso   1.000  C
  H52      1.0000 0.50560  0.98110  0.42290  Biso   1.000  H
  C75      1.0000 0.52100  0.71750  0.56701  Biso   1.000  C
  C76      1.0000 0.47270  0.59010  0.56888  Biso   1.000  C
  C77      1.0000 0.55390  0.64320  0.64026  Biso   1.000  C
  C78      1.0000 0.38190  0.51270  0.49556  Biso   1.000  C
  C79      1.0000 0.39740  0.55630  0.45210  Biso   1.000  C
  H53      1.0000 0.44060  0.59340  0.45620  Biso   1.000  H
  C80      1.0000 0.34690  0.54230  0.40380  Biso   1.000  C
  H54      1.0000 0.35450  0.57250  0.37550  Biso   1.000  H
  C81      1.0000 0.28430  0.48340  0.39696  Biso   1.000  C
  C82      1.0000 0.27720  0.43840  0.43900  Biso   1.000  C
  H55      1.0000 0.23780  0.39720  0.43480  Biso   1.000  H
  C83      1.0000 0.32650  0.45180  0.48780  Biso   1.000  C
  H56      1.0000 0.32120  0.41840  0.51540  Biso   1.000  H
  C84      1.0000 0.22960  0.46850  0.34484  Biso   1.000  C
  C85      1.0000 0.59780  0.55490  0.71501  Biso   1.000  C
  H57      1.0000 0.63930  0.55530  0.74720  Biso   1.000  H
  H58      1.0000 0.61440  0.51500  0.69210  Biso   1.000  H
  C86      1.0000 0.51840  0.52760  0.72624  Biso   1.000  C
  C87      1.0000 0.65850  0.69670  0.71014  Biso   1.000  C
  H59      1.0000 0.69360  0.69980  0.68570  Biso   1.000  H
  H60      1.0000 0.69160  0.67750  0.74300  Biso   1.000  H
  C88      1.0000 0.62770  0.78200  0.71772  Biso   1.000  C
  C89      1.0000 0.34350  0.57640  0.46420  Biso   1.000  C
  H61      1.0000 0.34710  0.63040  0.47620  Biso   1.000  H
  C90      1.0000 0.30040  0.55780  0.41530  Biso   1.000  C
  H62      1.0000 0.28080  0.60160  0.39330  Biso   1.000  H
  C91      1.0000 0.30910  0.41240  0.43140  Biso   1.000  C
  H63      1.0000 0.29420  0.35870  0.42120  Biso   1.000  H
  C92      1.0000 0.35510  0.43100  0.47890  Biso   1.000  C
  H64      1.0000 0.37040  0.38770  0.50230  Biso   1.000  H
  Cd9      1.0000 0.47413  0.70388  0.75720  Biso   1.000  Cd
  Cd10     1.0000 0.38525  0.44987  0.75430  Biso   1.000  Cd
  Cd11     1.0000 0.12472  0.04460  0.75087  Biso   1.000  Cd
  Cd12     1.0000 0.04187  0.79345  0.75174  Biso   1.000  Cd
  O33      1.0000 0.27360  0.50620  0.70024  Biso   1.000  O
  O34      1.0000 0.32100  0.39750  0.66713  Biso   1.000  O
  O35      1.0000 0.12740  0.85455  0.70355  Biso   1.000  O
  O36      1.0000 0.11430  0.98460  0.67451  Biso   1.000  O
  O37      1.0000 0.38510  0.63890  0.80235  Biso   1.000  O
  O38      1.0000 0.41220  0.51070  0.83193  Biso   1.000  O
  O39      1.0000 0.23560  0.98620  0.80700  Biso   1.000  O
  O40      1.0000 0.17840  0.09000  0.83853  Biso   1.000  O
  O41      1.0000 0.94990  0.79330  0.27420  Biso   1.000  O
  O42      1.0000 0.83150  0.84153  0.28271  Biso   1.000  O
  O43      1.0000 0.99540  0.45650  0.26379  Biso   1.000  O
  O44      1.0000 0.05087  0.57796  0.28362  Biso   1.000  O
  O45      1.0000 0.67430  0.65834  0.21216  Biso   1.000  O
  O46      1.0000 0.56220  0.70640  0.23147  Biso   1.000  O
  O47      1.0000 0.51280  0.04760  0.23833  Biso   1.000  O
  O48      1.0000 0.46020  0.92410  0.22498  Biso   1.000  O
  N25      1.0000 0.99470  0.57780  0.38845  Biso   1.000  N
  N26      1.0000 0.03240  0.65990  0.46530  Biso   1.000  N
  N27      1.0000 0.95040  0.71840  0.38769  Biso   1.000  N
  N28      1.0000 0.06870  0.52110  0.46250  Biso   1.000  N
  H65      1.0000 0.06380  0.47790  0.44320  Biso   1.000  H
  N29      1.0000 0.99480  0.79870  0.45884  Biso   1.000  N
  H66      1.0000 0.97400  0.83780  0.43800  Biso   1.000  H
  N30      1.0000 0.91340  0.63730  0.31469  Biso   1.000  N
  N31      1.0000 0.53060  0.70930  0.04343  Biso   1.000  N
  H67      1.0000 0.56110  0.67390  0.06300  Biso   1.000  H
  N32      1.0000 0.56390  0.78560  0.11710  Biso   1.000  N
  N33      1.0000 0.47370  0.84150  0.04110  Biso   1.000  N
  N34      1.0000 0.51040  0.92180  0.11886  Biso   1.000  N
  N35      1.0000 0.42850  0.97670  0.04660  Biso   1.000  N
  H68      1.0000 0.42900  0.02030  0.06770  Biso   1.000  H
  N36      1.0000 0.59430  0.86370  0.19119  Biso   1.000  N
  C93      1.0000 0.27330  0.45860  0.66226  Biso   1.000  C
  C94      1.0000 0.21610  0.47480  0.61163  Biso   1.000  C
  C95      1.0000 0.19830  0.41360  0.57350  Biso   1.000  C
  H69      1.0000 0.22010  0.36110  0.58050  Biso   1.000  H
  C96      1.0000 0.14830  0.43100  0.52550  Biso   1.000  C
  H70      1.0000 0.13650  0.38940  0.50080  Biso   1.000  H
  C97      1.0000 0.11510  0.50950  0.51320  Biso   1.000  C
  C98      1.0000 0.13020  0.56940  0.55176  Biso   1.000  C
  H71      1.0000 0.10760  0.62160  0.54510  Biso   1.000  H
  C99      1.0000 0.17930  0.55100  0.60027  Biso   1.000  C
  H72      1.0000 0.18770  0.59120  0.62590  Biso   1.000  H
  C100     1.0000 0.03030  0.58920  0.43863  Biso   1.000  C
  C101     1.0000 0.99260  0.72190  0.43710  Biso   1.000  C
  C102     1.0000 0.95470  0.64420  0.36565  Biso   1.000  C
  C103     1.0000 0.02630  0.82180  0.51026  Biso   1.000  C
  C104     1.0000 0.02750  0.77040  0.55205  Biso   1.000  C
  H73      1.0000 0.00800  0.71670  0.54630  Biso   1.000  H
  C105     1.0000 0.05740  0.79770  0.60240  Biso   1.000  C
  H74      1.0000 0.05970  0.76150  0.62990  Biso   1.000  H
  C106     1.0000 0.08360  0.87750  0.61228  Biso   1.000  C
  C107     1.0000 0.08260  0.92990  0.57052  Biso   1.000  C
  H75      1.0000 0.09990  0.98420  0.57650  Biso   1.000  H
  C108     1.0000 0.05620  0.90190  0.52022  Biso   1.000  C
  H76      1.0000 0.05840  0.93670  0.49270  Biso   1.000  H
  C109     1.0000 0.11030  0.90690  0.66773  Biso   1.000  C
  C110     1.0000 0.91030  0.55590  0.29043  Biso   1.000  C
  H77      1.0000 0.89430  0.51540  0.31320  Biso   1.000  H
  H78      1.0000 0.86880  0.55630  0.25830  Biso   1.000  H
  C111     1.0000 0.99090  0.52990  0.27897  Biso   1.000  C
  C112     1.0000 0.85060  0.69850  0.29465  Biso   1.000  C
  H79      1.0000 0.81630  0.67740  0.26280  Biso   1.000  H
  H80      1.0000 0.81650  0.70460  0.31950  Biso   1.000  H
  C113     1.0000 0.88090  0.78300  0.28372  Biso   1.000  C
  C114     1.0000 0.41030  0.58700  0.83761  Biso   1.000  C
  C115     1.0000 0.44070  0.61960  0.89225  Biso   1.000  C
  C116     1.0000 0.41920  0.69720  0.90510  Biso   1.000  C
  H81      1.0000 0.38520  0.72930  0.88010  Biso   1.000  H
  C117     1.0000 0.44720  0.72860  0.95440  Biso   1.000  C
  H82      1.0000 0.43130  0.78100  0.96230  Biso   1.000  H
  C118     1.0000 0.49860  0.68260  0.99239  Biso   1.000  C
  C119     1.0000 0.52120  0.60420  0.98000  Biso   1.000  C
  H83      1.0000 0.55640  0.57290  0.00500  Biso   1.000  H
  C120     1.0000 0.49150  0.57220  0.93060  Biso   1.000  C
  H84      1.0000 0.50560  0.51890  0.92290  Biso   1.000  H
  C121     1.0000 0.52100  0.78250  0.06701  Biso   1.000  C
  C122     1.0000 0.47270  0.90990  0.06888  Biso   1.000  C
  C123     1.0000 0.55390  0.85680  0.14026  Biso   1.000  C
  C124     1.0000 0.38190  0.98730  0.99556  Biso   1.000  C
  C125     1.0000 0.39740  0.94370  0.95210  Biso   1.000  C
  H85      1.0000 0.44060  0.90660  0.95620  Biso   1.000  H
  C126     1.0000 0.34690  0.95770  0.90380  Biso   1.000  C
  H86      1.0000 0.35450  0.92750  0.87550  Biso   1.000  H
  C127     1.0000 0.28430  0.01660  0.89696  Biso   1.000  C
  C128     1.0000 0.27720  0.06160  0.93900  Biso   1.000  C
  H87      1.0000 0.23780  0.10280  0.93480  Biso   1.000  H
  C129     1.0000 0.32650  0.04820  0.98780  Biso   1.000  C
  H88      1.0000 0.32120  0.08160  0.01540  Biso   1.000  H
  C130     1.0000 0.22960  0.03150  0.84484  Biso   1.000  C
  C131     1.0000 0.59780  0.94510  0.21501  Biso   1.000  C
  H89      1.0000 0.63930  0.94470  0.24720  Biso   1.000  H
  H90      1.0000 0.61440  0.98500  0.19210  Biso   1.000  H
  C132     1.0000 0.51840  0.97240  0.22624  Biso   1.000  C
  C133     1.0000 0.65850  0.80330  0.21014  Biso   1.000  C
  H91      1.0000 0.69360  0.80020  0.18570  Biso   1.000  H
  H92      1.0000 0.69160  0.82250  0.24300  Biso   1.000  H
  C134     1.0000 0.62770  0.71800  0.21772  Biso   1.000  C
  C135     1.0000 0.34350  0.92360  0.96420  Biso   1.000  C
  H93      1.0000 0.34710  0.86960  0.97620  Biso   1.000  H
  C136     1.0000 0.30040  0.94220  0.91530  Biso   1.000  C
  H94      1.0000 0.28080  0.89840  0.89330  Biso   1.000  H
  C137     1.0000 0.30910  0.08760  0.93140  Biso   1.000  C
  H95      1.0000 0.29420  0.14130  0.92120  Biso   1.000  H
  C138     1.0000 0.35510  0.06900  0.97890  Biso   1.000  C
  H96      1.0000 0.37040  0.11230  0.00230  Biso   1.000  H
  Cd13     1.0000 0.52587  0.20388  0.74280  Biso   1.000  Cd
  Cd14     1.0000 0.61475  0.94987  0.74570  Biso   1.000  Cd
  Cd15     1.0000 0.87528  0.54460  0.74913  Biso   1.000  Cd
  Cd16     1.0000 0.95813  0.29345  0.74826  Biso   1.000  Cd
  O49      1.0000 0.72640  0.00620  0.79976  Biso   1.000  O
  O50      1.0000 0.67900  0.89750  0.83287  Biso   1.000  O
  O51      1.0000 0.87260  0.35455  0.79645  Biso   1.000  O
  O52      1.0000 0.88570  0.48460  0.82549  Biso   1.000  O
  O53      1.0000 0.61490  0.13890  0.69765  Biso   1.000  O
  O54      1.0000 0.58780  0.01070  0.66807  Biso   1.000  O
  O55      1.0000 0.76440  0.48620  0.69300  Biso   1.000  O
  O56      1.0000 0.82160  0.59000  0.66147  Biso   1.000  O
  O57      1.0000 0.05010  0.29330  0.22580  Biso   1.000  O
  O58      1.0000 0.16850  0.34153  0.21729  Biso   1.000  O
  O59      1.0000 0.00460  0.95650  0.23621  Biso   1.000  O
  O60      1.0000 0.94913  0.07796  0.21638  Biso   1.000  O
  O61      1.0000 0.32570  0.15834  0.28784  Biso   1.000  O
  O62      1.0000 0.43780  0.20640  0.26853  Biso   1.000  O
  O63      1.0000 0.48720  0.54760  0.26167  Biso   1.000  O
  O64      1.0000 0.53980  0.42410  0.27502  Biso   1.000  O
  N37      1.0000 0.00530  0.07780  0.11155  Biso   1.000  N
  N38      1.0000 0.96760  0.15990  0.03470  Biso   1.000  N
  N39      1.0000 0.04960  0.21840  0.11231  Biso   1.000  N
  N40      1.0000 0.93130  0.02110  0.03750  Biso   1.000  N
  H97      1.0000 0.93620  0.97790  0.05680  Biso   1.000  H
  N41      1.0000 0.00520  0.29870  0.04116  Biso   1.000  N
  H98      1.0000 0.02600  0.33780  0.06200  Biso   1.000  H
  N42      1.0000 0.08660  0.13730  0.18531  Biso   1.000  N
  N43      1.0000 0.46940  0.20930  0.45657  Biso   1.000  N
  H99      1.0000 0.43890  0.17390  0.43700  Biso   1.000  H
  N44      1.0000 0.43610  0.28560  0.38290  Biso   1.000  N
  N45      1.0000 0.52630  0.34150  0.45890  Biso   1.000  N
  N46      1.0000 0.48960  0.42180  0.38114  Biso   1.000  N
  N47      1.0000 0.57150  0.47670  0.45340  Biso   1.000  N
  H100     1.0000 0.57100  0.52030  0.43230  Biso   1.000  H
  N48      1.0000 0.40570  0.36370  0.30881  Biso   1.000  N
  C139     1.0000 0.72670  0.95860  0.83774  Biso   1.000  C
  C140     1.0000 0.78390  0.97480  0.88837  Biso   1.000  C
  C141     1.0000 0.80170  0.91360  0.92650  Biso   1.000  C
  H101     1.0000 0.77990  0.86110  0.91950  Biso   1.000  H
  C142     1.0000 0.85170  0.93100  0.97450  Biso   1.000  C
  H102     1.0000 0.86350  0.88940  0.99920  Biso   1.000  H
  C143     1.0000 0.88490  0.00950  0.98680  Biso   1.000  C
  C144     1.0000 0.86980  0.06940  0.94824  Biso   1.000  C
  H103     1.0000 0.89240  0.12160  0.95490  Biso   1.000  H
  C145     1.0000 0.82070  0.05100  0.89973  Biso   1.000  C
  H104     1.0000 0.81230  0.09120  0.87410  Biso   1.000  H
  C146     1.0000 0.96970  0.08920  0.06137  Biso   1.000  C
  C147     1.0000 0.00740  0.22190  0.06290  Biso   1.000  C
  C148     1.0000 0.04530  0.14420  0.13435  Biso   1.000  C
  C149     1.0000 0.97370  0.32180  0.98974  Biso   1.000  C
  C150     1.0000 0.97250  0.27040  0.94795  Biso   1.000  C
  H105     1.0000 0.99200  0.21670  0.95370  Biso   1.000  H
  C151     1.0000 0.94260  0.29770  0.89760  Biso   1.000  C
  H106     1.0000 0.94030  0.26150  0.87010  Biso   1.000  H
  C152     1.0000 0.91640  0.37750  0.88772  Biso   1.000  C
  C153     1.0000 0.91740  0.42990  0.92948  Biso   1.000  C
  H107     1.0000 0.90010  0.48420  0.92350  Biso   1.000  H
  C154     1.0000 0.94380  0.40190  0.97978  Biso   1.000  C
  H108     1.0000 0.94160  0.43670  0.00730  Biso   1.000  H
  C155     1.0000 0.88970  0.40690  0.83227  Biso   1.000  C
  C156     1.0000 0.08970  0.05590  0.20957  Biso   1.000  C
  H109     1.0000 0.10570  0.01540  0.18680  Biso   1.000  H
  H110     1.0000 0.13120  0.05630  0.24170  Biso   1.000  H
  C157     1.0000 0.00910  0.02990  0.22103  Biso   1.000  C
  C158     1.0000 0.14940  0.19850  0.20535  Biso   1.000  C
  H111     1.0000 0.18370  0.17740  0.23720  Biso   1.000  H
  H112     1.0000 0.18350  0.20460  0.18050  Biso   1.000  H
  C159     1.0000 0.11910  0.28300  0.21628  Biso   1.000  C
  C160     1.0000 0.58970  0.08700  0.66239  Biso   1.000  C
  C161     1.0000 0.55930  0.11960  0.60775  Biso   1.000  C
  C162     1.0000 0.58080  0.19720  0.59490  Biso   1.000  C
  H113     1.0000 0.61480  0.22930  0.61990  Biso   1.000  H
  C163     1.0000 0.55280  0.22860  0.54560  Biso   1.000  C
  H114     1.0000 0.56870  0.28100  0.53770  Biso   1.000  H
  C164     1.0000 0.50140  0.18260  0.50761  Biso   1.000  C
  C165     1.0000 0.47880  0.10420  0.52000  Biso   1.000  C
  H115     1.0000 0.44360  0.07290  0.49500  Biso   1.000  H
  C166     1.0000 0.50850  0.07220  0.56940  Biso   1.000  C
  H116     1.0000 0.49440  0.01890  0.57710  Biso   1.000  H
  C167     1.0000 0.47900  0.28250  0.43299  Biso   1.000  C
  C168     1.0000 0.52730  0.40990  0.43112  Biso   1.000  C
  C169     1.0000 0.44610  0.35680  0.35974  Biso   1.000  C
  C170     1.0000 0.61810  0.48730  0.50444  Biso   1.000  C
  C171     1.0000 0.60260  0.44370  0.54790  Biso   1.000  C
  H117     1.0000 0.55940  0.40660  0.54380  Biso   1.000  H
  C172     1.0000 0.65310  0.45770  0.59620  Biso   1.000  C
  H118     1.0000 0.64550  0.42750  0.62450  Biso   1.000  H
  C173     1.0000 0.71570  0.51660  0.60304  Biso   1.000  C
  C174     1.0000 0.72280  0.56160  0.56100  Biso   1.000  C
  H119     1.0000 0.76220  0.60280  0.56520  Biso   1.000  H
  C175     1.0000 0.67350  0.54820  0.51220  Biso   1.000  C
  H120     1.0000 0.67880  0.58160  0.48460  Biso   1.000  H
  C176     1.0000 0.77040  0.53150  0.65516  Biso   1.000  C
  C177     1.0000 0.40220  0.44510  0.28499  Biso   1.000  C
  H121     1.0000 0.36070  0.44470  0.25280  Biso   1.000  H
  H122     1.0000 0.38560  0.48500  0.30790  Biso   1.000  H
  C178     1.0000 0.48160  0.47240  0.27376  Biso   1.000  C
  C179     1.0000 0.34150  0.30330  0.28986  Biso   1.000  C
  H123     1.0000 0.30640  0.30020  0.31430  Biso   1.000  H
  H124     1.0000 0.30840  0.32250  0.25700  Biso   1.000  H
  C180     1.0000 0.37230  0.21800  0.28228  Biso   1.000  C
  C181     1.0000 0.65650  0.42360  0.53580  Biso   1.000  C
  H125     1.0000 0.65290  0.36960  0.52380  Biso   1.000  H
  C182     1.0000 0.69960  0.44220  0.58470  Biso   1.000  C
  H126     1.0000 0.71920  0.39840  0.60670  Biso   1.000  H
  C183     1.0000 0.69090  0.58760  0.56860  Biso   1.000  C
  H127     1.0000 0.70580  0.64130  0.57880  Biso   1.000  H
  C184     1.0000 0.64490  0.56900  0.52110  Biso   1.000  C
  H128     1.0000 0.62960  0.61230  0.49770  Biso   1.000  H
