data_image0
_cell_length_a       20.136
_cell_length_b       21.19
_cell_length_c       17.292
_cell_angle_alpha    90
_cell_angle_beta     93.78
_cell_angle_gamma    90

_symmetry_space_group_name_H-M    "P 1"
_symmetry_int_tables_number       1

loop_
  _symmetry_equiv_pos_as_xyz
  'x, y, z'

loop_
  _atom_site_label
  _atom_site_occupancy
  _atom_site_fract_x
  _atom_site_fract_y
  _atom_site_fract_z
  _atom_site_thermal_displace_type
  _atom_site_B_iso_or_equiv
  _atom_site_type_symbol
  Co1      1.0000 0.10654  0.25704  0.10590  Biso   1.000  Co
  O1       1.0000 0.16659  0.32191  0.14923  Biso   1.000  O
  O2       1.0000 0.26020  0.31655  0.08566  Biso   1.000  O
  O3       1.0000 0.14607  0.26593  0.98570  Biso   1.000  O
  O4       1.0000 0.04235  0.27641  0.01377  Biso   1.000  O
  O5       1.0000 0.26172  0.67932  0.42101  Biso   1.000  O
  O6       1.0000 0.36383  0.66916  0.37763  Biso   1.000  O
  N1       1.0000 0.04106  0.25807  0.19512  Biso   1.000  N
  C1       1.0000 0.22442  0.34018  0.13376  Biso   1.000  C
  C2       1.0000 0.25140  0.39589  0.17954  Biso   1.000  C
  C3       1.0000 0.21218  0.42697  0.22855  Biso   1.000  C
  H1       1.0000 0.16850  0.41190  0.23510  Biso   1.000  H
  C4       1.0000 0.23530  0.48117  0.26985  Biso   1.000  C
  C5       1.0000 0.19510  0.51450  0.31990  Biso   1.000  C
  H2       1.0000 0.15160  0.49950  0.32780  Biso   1.000  H
  C6       1.0000 0.21769  0.56810  0.35710  Biso   1.000  C
  H3       1.0000 0.18970  0.59040  0.38980  Biso   1.000  H
  C7       1.0000 0.28278  0.59011  0.34694  Biso   1.000  C
  C8       1.0000 0.32344  0.55855  0.29992  Biso   1.000  C
  H4       1.0000 0.36720  0.57370  0.29410  Biso   1.000  H
  C9       1.0000 0.30081  0.50323  0.25953  Biso   1.000  C
  C10      1.0000 0.34125  0.46936  0.20980  Biso   1.000  C
  H5       1.0000 0.38550  0.48310  0.20350  Biso   1.000  H
  C11      1.0000 0.31734  0.41709  0.17070  Biso   1.000  C
  H6       1.0000 0.34500  0.39490  0.13750  Biso   1.000  H
  C12      1.0000 0.08602  0.27505  0.96379  Biso   1.000  C
  C13      1.0000 0.30456  0.65065  0.38570  Biso   1.000  C
  C14      1.0000 0.06504  0.28223  0.87971  Biso   1.000  C
  C15      1.0000 0.11252  0.28280  0.82411  Biso   1.000  C
  H7       1.0000 0.15860  0.28080  0.83990  Biso   1.000  H
  C16      1.0000 0.09242  0.28620  0.74650  Biso   1.000  C
  H8       1.0000 0.12490  0.28770  0.70910  Biso   1.000  H
  C17      1.0000 0.99849  0.28609  0.85761  Biso   1.000  C
  H9       1.0000 0.96700  0.28780  0.89610  Biso   1.000  H
  C18      1.0000 0.02393  0.28759  0.72175  Biso   1.000  C
  C19      1.0000 0.97600  0.25040  0.16510  Biso   1.000  C
  H10      1.0000 0.97290  0.21260  0.13160  Biso   1.000  H
  H11      1.0000 0.96250  0.28750  0.13300  Biso   1.000  H
  C20      1.0000 0.06160  0.20580  0.25410  Biso   1.000  C
  H12      1.0000 0.05520  0.16380  0.22970  Biso   1.000  H
  H13      1.0000 0.10920  0.21050  0.27150  Biso   1.000  H
  C21      1.0000 0.05180  0.31830  0.24210  Biso   1.000  C
  H14      1.0000 0.04950  0.35550  0.20740  Biso   1.000  H
  H15      1.0000 0.09600  0.31760  0.27070  Biso   1.000  H
  C22      1.0000 0.98150  0.21170  0.17650  Biso   1.000  C
  H16      1.0000 0.95400  0.22740  0.13100  Biso   1.000  H
  H17      1.0000 0.99900  0.16960  0.16350  Biso   1.000  H
  C23      1.0000 0.07070  0.24320  0.26980  Biso   1.000  C
  H18      1.0000 0.10970  0.27100  0.28070  Biso   1.000  H
  H19      1.0000 0.08690  0.19910  0.26940  Biso   1.000  H
  C24      1.0000 0.00400  0.32150  0.20030  Biso   1.000  C
  H20      1.0000 0.98430  0.33310  0.14830  Biso   1.000  H
  H21      1.0000 0.03620  0.35490  0.21730  Biso   1.000  H
  Co2      1.0000 0.60654  0.75704  0.10590  Biso   1.000  Co
  O7       1.0000 0.66659  0.82191  0.14923  Biso   1.000  O
  O8       1.0000 0.76020  0.81655  0.08566  Biso   1.000  O
  O9       1.0000 0.64607  0.76593  0.98570  Biso   1.000  O
  O10      1.0000 0.54235  0.77641  0.01377  Biso   1.000  O
  O11      1.0000 0.76172  0.17932  0.42101  Biso   1.000  O
  O12      1.0000 0.86383  0.16916  0.37763  Biso   1.000  O
  N2       1.0000 0.54106  0.75807  0.19512  Biso   1.000  N
  C25      1.0000 0.72442  0.84018  0.13376  Biso   1.000  C
  C26      1.0000 0.75140  0.89589  0.17954  Biso   1.000  C
  C27      1.0000 0.71218  0.92697  0.22855  Biso   1.000  C
  H22      1.0000 0.66850  0.91190  0.23510  Biso   1.000  H
  C28      1.0000 0.73530  0.98117  0.26985  Biso   1.000  C
  C29      1.0000 0.69510  0.01450  0.31990  Biso   1.000  C
  H23      1.0000 0.65160  0.99950  0.32780  Biso   1.000  H
  C30      1.0000 0.71769  0.06810  0.35710  Biso   1.000  C
  H24      1.0000 0.68970  0.09040  0.38980  Biso   1.000  H
  C31      1.0000 0.78278  0.09011  0.34694  Biso   1.000  C
  C32      1.0000 0.82344  0.05855  0.29992  Biso   1.000  C
  H25      1.0000 0.86720  0.07370  0.29410  Biso   1.000  H
  C33      1.0000 0.80081  0.00323  0.25953  Biso   1.000  C
  C34      1.0000 0.84125  0.96936  0.20980  Biso   1.000  C
  H26      1.0000 0.88550  0.98310  0.20350  Biso   1.000  H
  C35      1.0000 0.81734  0.91709  0.17070  Biso   1.000  C
  H27      1.0000 0.84500  0.89490  0.13750  Biso   1.000  H
  C36      1.0000 0.58602  0.77505  0.96379  Biso   1.000  C
  C37      1.0000 0.80456  0.15065  0.38570  Biso   1.000  C
  C38      1.0000 0.56504  0.78223  0.87971  Biso   1.000  C
  C39      1.0000 0.61252  0.78280  0.82411  Biso   1.000  C
  H28      1.0000 0.65860  0.78080  0.83990  Biso   1.000  H
  C40      1.0000 0.59242  0.78620  0.74650  Biso   1.000  C
  H29      1.0000 0.62490  0.78770  0.70910  Biso   1.000  H
  C41      1.0000 0.49849  0.78609  0.85761  Biso   1.000  C
  H30      1.0000 0.46700  0.78780  0.89610  Biso   1.000  H
  C42      1.0000 0.52393  0.78759  0.72175  Biso   1.000  C
  C43      1.0000 0.47600  0.75040  0.16510  Biso   1.000  C
  H31      1.0000 0.47290  0.71260  0.13160  Biso   1.000  H
  H32      1.0000 0.46250  0.78750  0.13300  Biso   1.000  H
  C44      1.0000 0.56160  0.70580  0.25410  Biso   1.000  C
  H33      1.0000 0.55520  0.66380  0.22970  Biso   1.000  H
  H34      1.0000 0.60920  0.71050  0.27150  Biso   1.000  H
  C45      1.0000 0.55180  0.81830  0.24210  Biso   1.000  C
  H35      1.0000 0.54950  0.85550  0.20740  Biso   1.000  H
  H36      1.0000 0.59600  0.81760  0.27070  Biso   1.000  H
  C46      1.0000 0.48150  0.71170  0.17650  Biso   1.000  C
  H37      1.0000 0.45400  0.72740  0.13100  Biso   1.000  H
  H38      1.0000 0.49900  0.66960  0.16350  Biso   1.000  H
  C47      1.0000 0.57070  0.74320  0.26980  Biso   1.000  C
  H39      1.0000 0.60970  0.77100  0.28070  Biso   1.000  H
  H40      1.0000 0.58690  0.69910  0.26940  Biso   1.000  H
  C48      1.0000 0.50400  0.82150  0.20030  Biso   1.000  C
  H41      1.0000 0.48430  0.83310  0.14830  Biso   1.000  H
  H42      1.0000 0.53620  0.85490  0.21730  Biso   1.000  H
  Co3      1.0000 0.89346  0.25704  0.39410  Biso   1.000  Co
  O13      1.0000 0.83341  0.32191  0.35077  Biso   1.000  O
  O14      1.0000 0.73980  0.31655  0.41434  Biso   1.000  O
  O15      1.0000 0.85393  0.26593  0.51430  Biso   1.000  O
  O16      1.0000 0.95765  0.27641  0.48623  Biso   1.000  O
  O17      1.0000 0.73828  0.67932  0.07899  Biso   1.000  O
  O18      1.0000 0.63617  0.66916  0.12237  Biso   1.000  O
  N3       1.0000 0.95894  0.25807  0.30488  Biso   1.000  N
  C49      1.0000 0.77558  0.34018  0.36624  Biso   1.000  C
  C50      1.0000 0.74860  0.39589  0.32046  Biso   1.000  C
  C51      1.0000 0.78782  0.42697  0.27145  Biso   1.000  C
  H43      1.0000 0.83150  0.41190  0.26490  Biso   1.000  H
  C52      1.0000 0.76470  0.48117  0.23015  Biso   1.000  C
  C53      1.0000 0.80490  0.51450  0.18010  Biso   1.000  C
  H44      1.0000 0.84840  0.49950  0.17220  Biso   1.000  H
  C54      1.0000 0.78231  0.56810  0.14290  Biso   1.000  C
  H45      1.0000 0.81030  0.59040  0.11020  Biso   1.000  H
  C55      1.0000 0.71722  0.59011  0.15306  Biso   1.000  C
  C56      1.0000 0.67656  0.55855  0.20008  Biso   1.000  C
  H46      1.0000 0.63280  0.57370  0.20590  Biso   1.000  H
  C57      1.0000 0.69919  0.50323  0.24047  Biso   1.000  C
  C58      1.0000 0.65875  0.46936  0.29020  Biso   1.000  C
  H47      1.0000 0.61450  0.48310  0.29650  Biso   1.000  H
  C59      1.0000 0.68266  0.41709  0.32930  Biso   1.000  C
  H48      1.0000 0.65500  0.39490  0.36250  Biso   1.000  H
  C60      1.0000 0.91398  0.27505  0.53621  Biso   1.000  C
  C61      1.0000 0.69544  0.65065  0.11430  Biso   1.000  C
  C62      1.0000 0.93496  0.28223  0.62029  Biso   1.000  C
  C63      1.0000 0.88748  0.28280  0.67589  Biso   1.000  C
  H49      1.0000 0.84140  0.28080  0.66010  Biso   1.000  H
  C64      1.0000 0.90758  0.28620  0.75350  Biso   1.000  C
  H50      1.0000 0.87510  0.28770  0.79090  Biso   1.000  H
  C65      1.0000 0.00151  0.28609  0.64239  Biso   1.000  C
  H51      1.0000 0.03300  0.28780  0.60390  Biso   1.000  H
  C66      1.0000 0.97607  0.28759  0.77825  Biso   1.000  C
  C67      1.0000 0.02400  0.25040  0.33490  Biso   1.000  C
  H52      1.0000 0.02710  0.21260  0.36840  Biso   1.000  H
  H53      1.0000 0.03750  0.28750  0.36700  Biso   1.000  H
  C68      1.0000 0.93840  0.20580  0.24590  Biso   1.000  C
  H54      1.0000 0.94480  0.16380  0.27030  Biso   1.000  H
  H55      1.0000 0.89080  0.21050  0.22850  Biso   1.000  H
  C69      1.0000 0.94820  0.31830  0.25790  Biso   1.000  C
  H56      1.0000 0.95050  0.35550  0.29260  Biso   1.000  H
  H57      1.0000 0.90400  0.31760  0.22930  Biso   1.000  H
  C70      1.0000 0.01850  0.21170  0.32350  Biso   1.000  C
  H58      1.0000 0.04600  0.22740  0.36900  Biso   1.000  H
  H59      1.0000 0.00100  0.16960  0.33650  Biso   1.000  H
  C71      1.0000 0.92930  0.24320  0.23020  Biso   1.000  C
  H60      1.0000 0.89030  0.27100  0.21930  Biso   1.000  H
  H61      1.0000 0.91310  0.19910  0.23060  Biso   1.000  H
  C72      1.0000 0.99600  0.32150  0.29970  Biso   1.000  C
  H62      1.0000 0.01570  0.33310  0.35170  Biso   1.000  H
  H63      1.0000 0.96380  0.35490  0.28270  Biso   1.000  H
  Co4      1.0000 0.39346  0.75704  0.39410  Biso   1.000  Co
  O19      1.0000 0.33341  0.82191  0.35077  Biso   1.000  O
  O20      1.0000 0.23980  0.81655  0.41434  Biso   1.000  O
  O21      1.0000 0.35393  0.76593  0.51430  Biso   1.000  O
  O22      1.0000 0.45765  0.77641  0.48623  Biso   1.000  O
  O23      1.0000 0.23828  0.17932  0.07899  Biso   1.000  O
  O24      1.0000 0.13617  0.16916  0.12237  Biso   1.000  O
  N4       1.0000 0.45894  0.75807  0.30488  Biso   1.000  N
  C73      1.0000 0.27558  0.84018  0.36624  Biso   1.000  C
  C74      1.0000 0.24860  0.89589  0.32046  Biso   1.000  C
  C75      1.0000 0.28782  0.92697  0.27145  Biso   1.000  C
  H64      1.0000 0.33150  0.91190  0.26490  Biso   1.000  H
  C76      1.0000 0.26470  0.98117  0.23015  Biso   1.000  C
  C77      1.0000 0.30490  0.01450  0.18010  Biso   1.000  C
  H65      1.0000 0.34840  0.99950  0.17220  Biso   1.000  H
  C78      1.0000 0.28231  0.06810  0.14290  Biso   1.000  C
  H66      1.0000 0.31030  0.09040  0.11020  Biso   1.000  H
  C79      1.0000 0.21722  0.09011  0.15306  Biso   1.000  C
  C80      1.0000 0.17656  0.05855  0.20008  Biso   1.000  C
  H67      1.0000 0.13280  0.07370  0.20590  Biso   1.000  H
  C81      1.0000 0.19919  0.00323  0.24047  Biso   1.000  C
  C82      1.0000 0.15875  0.96936  0.29020  Biso   1.000  C
  H68      1.0000 0.11450  0.98310  0.29650  Biso   1.000  H
  C83      1.0000 0.18266  0.91709  0.32930  Biso   1.000  C
  H69      1.0000 0.15500  0.89490  0.36250  Biso   1.000  H
  C84      1.0000 0.41398  0.77505  0.53621  Biso   1.000  C
  C85      1.0000 0.19544  0.15065  0.11430  Biso   1.000  C
  C86      1.0000 0.43496  0.78223  0.62029  Biso   1.000  C
  C87      1.0000 0.38748  0.78280  0.67589  Biso   1.000  C
  H70      1.0000 0.34140  0.78080  0.66010  Biso   1.000  H
  C88      1.0000 0.40758  0.78620  0.75350  Biso   1.000  C
  H71      1.0000 0.37510  0.78770  0.79090  Biso   1.000  H
  C89      1.0000 0.50151  0.78609  0.64239  Biso   1.000  C
  H72      1.0000 0.53300  0.78780  0.60390  Biso   1.000  H
  C90      1.0000 0.47607  0.78759  0.77825  Biso   1.000  C
  C91      1.0000 0.52400  0.75040  0.33490  Biso   1.000  C
  H73      1.0000 0.52710  0.71260  0.36840  Biso   1.000  H
  H74      1.0000 0.53750  0.78750  0.36700  Biso   1.000  H
  C92      1.0000 0.43840  0.70580  0.24590  Biso   1.000  C
  H75      1.0000 0.44480  0.66380  0.27030  Biso   1.000  H
  H76      1.0000 0.39080  0.71050  0.22850  Biso   1.000  H
  C93      1.0000 0.44820  0.81830  0.25790  Biso   1.000  C
  H77      1.0000 0.45050  0.85550  0.29260  Biso   1.000  H
  H78      1.0000 0.40400  0.81760  0.22930  Biso   1.000  H
  C94      1.0000 0.51850  0.71170  0.32350  Biso   1.000  C
  H79      1.0000 0.54600  0.72740  0.36900  Biso   1.000  H
  H80      1.0000 0.50100  0.66960  0.33650  Biso   1.000  H
  C95      1.0000 0.42930  0.74320  0.23020  Biso   1.000  C
  H81      1.0000 0.39030  0.77100  0.21930  Biso   1.000  H
  H82      1.0000 0.41310  0.69910  0.23060  Biso   1.000  H
  C96      1.0000 0.49600  0.82150  0.29970  Biso   1.000  C
  H83      1.0000 0.51570  0.83310  0.35170  Biso   1.000  H
  H84      1.0000 0.46380  0.85490  0.28270  Biso   1.000  H
  Co5      1.0000 0.89346  0.74296  0.89410  Biso   1.000  Co
  O25      1.0000 0.83341  0.67809  0.85077  Biso   1.000  O
  O26      1.0000 0.73980  0.68345  0.91434  Biso   1.000  O
  O27      1.0000 0.85393  0.73407  0.01430  Biso   1.000  O
  O28      1.0000 0.95765  0.72359  0.98623  Biso   1.000  O
  O29      1.0000 0.73828  0.32068  0.57899  Biso   1.000  O
  O30      1.0000 0.63617  0.33084  0.62237  Biso   1.000  O
  N5       1.0000 0.95894  0.74193  0.80488  Biso   1.000  N
  C97      1.0000 0.77558  0.65982  0.86624  Biso   1.000  C
  C98      1.0000 0.74860  0.60411  0.82046  Biso   1.000  C
  C99      1.0000 0.78782  0.57303  0.77145  Biso   1.000  C
  H85      1.0000 0.83150  0.58810  0.76490  Biso   1.000  H
  C100     1.0000 0.76470  0.51883  0.73015  Biso   1.000  C
  C101     1.0000 0.80490  0.48550  0.68010  Biso   1.000  C
  H86      1.0000 0.84840  0.50050  0.67220  Biso   1.000  H
  C102     1.0000 0.78231  0.43190  0.64290  Biso   1.000  C
  H87      1.0000 0.81030  0.40960  0.61020  Biso   1.000  H
  C103     1.0000 0.71722  0.40989  0.65306  Biso   1.000  C
  C104     1.0000 0.67656  0.44145  0.70008  Biso   1.000  C
  H88      1.0000 0.63280  0.42630  0.70590  Biso   1.000  H
  C105     1.0000 0.69919  0.49677  0.74047  Biso   1.000  C
  C106     1.0000 0.65875  0.53064  0.79020  Biso   1.000  C
  H89      1.0000 0.61450  0.51690  0.79650  Biso   1.000  H
  C107     1.0000 0.68266  0.58291  0.82930  Biso   1.000  C
  H90      1.0000 0.65500  0.60510  0.86250  Biso   1.000  H
  C108     1.0000 0.91398  0.72495  0.03621  Biso   1.000  C
  C109     1.0000 0.69544  0.34935  0.61430  Biso   1.000  C
  C110     1.0000 0.93496  0.71777  0.12029  Biso   1.000  C
  C111     1.0000 0.88748  0.71720  0.17589  Biso   1.000  C
  H91      1.0000 0.84140  0.71920  0.16010  Biso   1.000  H
  C112     1.0000 0.90758  0.71380  0.25350  Biso   1.000  C
  H92      1.0000 0.87510  0.71230  0.29090  Biso   1.000  H
  C113     1.0000 0.00151  0.71391  0.14239  Biso   1.000  C
  H93      1.0000 0.03300  0.71220  0.10390  Biso   1.000  H
  C114     1.0000 0.97607  0.71241  0.27825  Biso   1.000  C
  C115     1.0000 0.02400  0.74960  0.83490  Biso   1.000  C
  H94      1.0000 0.02710  0.78740  0.86840  Biso   1.000  H
  H95      1.0000 0.03750  0.71250  0.86700  Biso   1.000  H
  C116     1.0000 0.93840  0.79420  0.74590  Biso   1.000  C
  H96      1.0000 0.94480  0.83620  0.77030  Biso   1.000  H
  H97      1.0000 0.89080  0.78950  0.72850  Biso   1.000  H
  C117     1.0000 0.94820  0.68170  0.75790  Biso   1.000  C
  H98      1.0000 0.95050  0.64450  0.79260  Biso   1.000  H
  H99      1.0000 0.90400  0.68240  0.72930  Biso   1.000  H
  C118     1.0000 0.01850  0.78830  0.82350  Biso   1.000  C
  H100     1.0000 0.04600  0.77260  0.86900  Biso   1.000  H
  H101     1.0000 0.00100  0.83040  0.83650  Biso   1.000  H
  C119     1.0000 0.92930  0.75680  0.73020  Biso   1.000  C
  H102     1.0000 0.89030  0.72900  0.71930  Biso   1.000  H
  H103     1.0000 0.91310  0.80090  0.73060  Biso   1.000  H
  C120     1.0000 0.99600  0.67850  0.79970  Biso   1.000  C
  H104     1.0000 0.01570  0.66690  0.85170  Biso   1.000  H
  H105     1.0000 0.96380  0.64510  0.78270  Biso   1.000  H
  Co6      1.0000 0.39346  0.24296  0.89410  Biso   1.000  Co
  O31      1.0000 0.33341  0.17809  0.85077  Biso   1.000  O
  O32      1.0000 0.23980  0.18345  0.91434  Biso   1.000  O
  O33      1.0000 0.35393  0.23407  0.01430  Biso   1.000  O
  O34      1.0000 0.45765  0.22359  0.98623  Biso   1.000  O
  O35      1.0000 0.23828  0.82068  0.57899  Biso   1.000  O
  O36      1.0000 0.13617  0.83084  0.62237  Biso   1.000  O
  N6       1.0000 0.45894  0.24193  0.80488  Biso   1.000  N
  C121     1.0000 0.27558  0.15982  0.86624  Biso   1.000  C
  C122     1.0000 0.24860  0.10411  0.82046  Biso   1.000  C
  C123     1.0000 0.28782  0.07303  0.77145  Biso   1.000  C
  H106     1.0000 0.33150  0.08810  0.76490  Biso   1.000  H
  C124     1.0000 0.26470  0.01883  0.73015  Biso   1.000  C
  C125     1.0000 0.30490  0.98550  0.68010  Biso   1.000  C
  H107     1.0000 0.34840  0.00050  0.67220  Biso   1.000  H
  C126     1.0000 0.28231  0.93190  0.64290  Biso   1.000  C
  H108     1.0000 0.31030  0.90960  0.61020  Biso   1.000  H
  C127     1.0000 0.21722  0.90989  0.65306  Biso   1.000  C
  C128     1.0000 0.17656  0.94145  0.70008  Biso   1.000  C
  H109     1.0000 0.13280  0.92630  0.70590  Biso   1.000  H
  C129     1.0000 0.19919  0.99677  0.74047  Biso   1.000  C
  C130     1.0000 0.15875  0.03064  0.79020  Biso   1.000  C
  H110     1.0000 0.11450  0.01690  0.79650  Biso   1.000  H
  C131     1.0000 0.18266  0.08291  0.82930  Biso   1.000  C
  H111     1.0000 0.15500  0.10510  0.86250  Biso   1.000  H
  C132     1.0000 0.41398  0.22495  0.03621  Biso   1.000  C
  C133     1.0000 0.19544  0.84935  0.61430  Biso   1.000  C
  C134     1.0000 0.43496  0.21777  0.12029  Biso   1.000  C
  C135     1.0000 0.38748  0.21720  0.17589  Biso   1.000  C
  H112     1.0000 0.34140  0.21920  0.16010  Biso   1.000  H
  C136     1.0000 0.40758  0.21380  0.25350  Biso   1.000  C
  H113     1.0000 0.37510  0.21230  0.29090  Biso   1.000  H
  C137     1.0000 0.50151  0.21391  0.14239  Biso   1.000  C
  H114     1.0000 0.53300  0.21220  0.10390  Biso   1.000  H
  C138     1.0000 0.47607  0.21241  0.27825  Biso   1.000  C
  C139     1.0000 0.52400  0.24960  0.83490  Biso   1.000  C
  H115     1.0000 0.52710  0.28740  0.86840  Biso   1.000  H
  H116     1.0000 0.53750  0.21250  0.86700  Biso   1.000  H
  C140     1.0000 0.43840  0.29420  0.74590  Biso   1.000  C
  H117     1.0000 0.44480  0.33620  0.77030  Biso   1.000  H
  H118     1.0000 0.39080  0.28950  0.72850  Biso   1.000  H
  C141     1.0000 0.44820  0.18170  0.75790  Biso   1.000  C
  H119     1.0000 0.45050  0.14450  0.79260  Biso   1.000  H
  H120     1.0000 0.40400  0.18240  0.72930  Biso   1.000  H
  C142     1.0000 0.51850  0.28830  0.82350  Biso   1.000  C
  H121     1.0000 0.54600  0.27260  0.86900  Biso   1.000  H
  H122     1.0000 0.50100  0.33040  0.83650  Biso   1.000  H
  C143     1.0000 0.42930  0.25680  0.73020  Biso   1.000  C
  H123     1.0000 0.39030  0.22900  0.71930  Biso   1.000  H
  H124     1.0000 0.41310  0.30090  0.73060  Biso   1.000  H
  C144     1.0000 0.49600  0.17850  0.79970  Biso   1.000  C
  H125     1.0000 0.51570  0.16690  0.85170  Biso   1.000  H
  H126     1.0000 0.46380  0.14510  0.78270  Biso   1.000  H
  Co7      1.0000 0.10654  0.74296  0.60590  Biso   1.000  Co
  O37      1.0000 0.16659  0.67809  0.64923  Biso   1.000  O
  O38      1.0000 0.26020  0.68345  0.58566  Biso   1.000  O
  O39      1.0000 0.14607  0.73407  0.48570  Biso   1.000  O
  O40      1.0000 0.04235  0.72359  0.51377  Biso   1.000  O
  O41      1.0000 0.26172  0.32068  0.92101  Biso   1.000  O
  O42      1.0000 0.36383  0.33084  0.87763  Biso   1.000  O
  N7       1.0000 0.04106  0.74193  0.69512  Biso   1.000  N
  C145     1.0000 0.22442  0.65982  0.63376  Biso   1.000  C
  C146     1.0000 0.25140  0.60411  0.67954  Biso   1.000  C
  C147     1.0000 0.21218  0.57303  0.72855  Biso   1.000  C
  H127     1.0000 0.16850  0.58810  0.73510  Biso   1.000  H
  C148     1.0000 0.23530  0.51883  0.76985  Biso   1.000  C
  C149     1.0000 0.19510  0.48550  0.81990  Biso   1.000  C
  H128     1.0000 0.15160  0.50050  0.82780  Biso   1.000  H
  C150     1.0000 0.21769  0.43190  0.85710  Biso   1.000  C
  H129     1.0000 0.18970  0.40960  0.88980  Biso   1.000  H
  C151     1.0000 0.28278  0.40989  0.84694  Biso   1.000  C
  C152     1.0000 0.32344  0.44145  0.79992  Biso   1.000  C
  H130     1.0000 0.36720  0.42630  0.79410  Biso   1.000  H
  C153     1.0000 0.30081  0.49677  0.75953  Biso   1.000  C
  C154     1.0000 0.34125  0.53064  0.70980  Biso   1.000  C
  H131     1.0000 0.38550  0.51690  0.70350  Biso   1.000  H
  C155     1.0000 0.31734  0.58291  0.67070  Biso   1.000  C
  H132     1.0000 0.34500  0.60510  0.63750  Biso   1.000  H
  C156     1.0000 0.08602  0.72495  0.46379  Biso   1.000  C
  C157     1.0000 0.30456  0.34935  0.88570  Biso   1.000  C
  C158     1.0000 0.06504  0.71777  0.37971  Biso   1.000  C
  C159     1.0000 0.11252  0.71720  0.32411  Biso   1.000  C
  H133     1.0000 0.15860  0.71920  0.33990  Biso   1.000  H
  C160     1.0000 0.09242  0.71380  0.24650  Biso   1.000  C
  H134     1.0000 0.12490  0.71230  0.20910  Biso   1.000  H
  C161     1.0000 0.99849  0.71391  0.35761  Biso   1.000  C
  H135     1.0000 0.96700  0.71220  0.39610  Biso   1.000  H
  C162     1.0000 0.02393  0.71241  0.22175  Biso   1.000  C
  C163     1.0000 0.97600  0.74960  0.66510  Biso   1.000  C
  H136     1.0000 0.97290  0.78740  0.63160  Biso   1.000  H
  H137     1.0000 0.96250  0.71250  0.63300  Biso   1.000  H
  C164     1.0000 0.06160  0.79420  0.75410  Biso   1.000  C
  H138     1.0000 0.05520  0.83620  0.72970  Biso   1.000  H
  H139     1.0000 0.10920  0.78950  0.77150  Biso   1.000  H
  C165     1.0000 0.05180  0.68170  0.74210  Biso   1.000  C
  H140     1.0000 0.04950  0.64450  0.70740  Biso   1.000  H
  H141     1.0000 0.09600  0.68240  0.77070  Biso   1.000  H
  C166     1.0000 0.98150  0.78830  0.67650  Biso   1.000  C
  H142     1.0000 0.95400  0.77260  0.63100  Biso   1.000  H
  H143     1.0000 0.99900  0.83040  0.66350  Biso   1.000  H
  C167     1.0000 0.07070  0.75680  0.76980  Biso   1.000  C
  H144     1.0000 0.10970  0.72900  0.78070  Biso   1.000  H
  H145     1.0000 0.08690  0.80090  0.76940  Biso   1.000  H
  C168     1.0000 0.00400  0.67850  0.70030  Biso   1.000  C
  H146     1.0000 0.98430  0.66690  0.64830  Biso   1.000  H
  H147     1.0000 0.03620  0.64510  0.71730  Biso   1.000  H
  Co8      1.0000 0.60654  0.24296  0.60590  Biso   1.000  Co
  O43      1.0000 0.66659  0.17809  0.64923  Biso   1.000  O
  O44      1.0000 0.76020  0.18345  0.58566  Biso   1.000  O
  O45      1.0000 0.64607  0.23407  0.48570  Biso   1.000  O
  O46      1.0000 0.54235  0.22359  0.51377  Biso   1.000  O
  O47      1.0000 0.76172  0.82068  0.92101  Biso   1.000  O
  O48      1.0000 0.86383  0.83084  0.87763  Biso   1.000  O
  N8       1.0000 0.54106  0.24193  0.69512  Biso   1.000  N
  C169     1.0000 0.72442  0.15982  0.63376  Biso   1.000  C
  C170     1.0000 0.75140  0.10411  0.67954  Biso   1.000  C
  C171     1.0000 0.71218  0.07303  0.72855  Biso   1.000  C
  H148     1.0000 0.66850  0.08810  0.73510  Biso   1.000  H
  C172     1.0000 0.73530  0.01883  0.76985  Biso   1.000  C
  C173     1.0000 0.69510  0.98550  0.81990  Biso   1.000  C
  H149     1.0000 0.65160  0.00050  0.82780  Biso   1.000  H
  C174     1.0000 0.71769  0.93190  0.85710  Biso   1.000  C
  H150     1.0000 0.68970  0.90960  0.88980  Biso   1.000  H
  C175     1.0000 0.78278  0.90989  0.84694  Biso   1.000  C
  C176     1.0000 0.82344  0.94145  0.79992  Biso   1.000  C
  H151     1.0000 0.86720  0.92630  0.79410  Biso   1.000  H
  C177     1.0000 0.80081  0.99677  0.75953  Biso   1.000  C
  C178     1.0000 0.84125  0.03064  0.70980  Biso   1.000  C
  H152     1.0000 0.88550  0.01690  0.70350  Biso   1.000  H
  C179     1.0000 0.81734  0.08291  0.67070  Biso   1.000  C
  H153     1.0000 0.84500  0.10510  0.63750  Biso   1.000  H
  C180     1.0000 0.58602  0.22495  0.46379  Biso   1.000  C
  C181     1.0000 0.80456  0.84935  0.88570  Biso   1.000  C
  C182     1.0000 0.56504  0.21777  0.37971  Biso   1.000  C
  C183     1.0000 0.61252  0.21720  0.32411  Biso   1.000  C
  H154     1.0000 0.65860  0.21920  0.33990  Biso   1.000  H
  C184     1.0000 0.59242  0.21380  0.24650  Biso   1.000  C
  H155     1.0000 0.62490  0.21230  0.20910  Biso   1.000  H
  C185     1.0000 0.49849  0.21391  0.35761  Biso   1.000  C
  H156     1.0000 0.46700  0.21220  0.39610  Biso   1.000  H
  C186     1.0000 0.52393  0.21241  0.22175  Biso   1.000  C
  C187     1.0000 0.47600  0.24960  0.66510  Biso   1.000  C
  H157     1.0000 0.47290  0.28740  0.63160  Biso   1.000  H
  H158     1.0000 0.46250  0.21250  0.63300  Biso   1.000  H
  C188     1.0000 0.56160  0.29420  0.75410  Biso   1.000  C
  H159     1.0000 0.55520  0.33620  0.72970  Biso   1.000  H
  H160     1.0000 0.60920  0.28950  0.77150  Biso   1.000  H
  C189     1.0000 0.55180  0.18170  0.74210  Biso   1.000  C
  H161     1.0000 0.54950  0.14450  0.70740  Biso   1.000  H
  H162     1.0000 0.59600  0.18240  0.77070  Biso   1.000  H
  C190     1.0000 0.48150  0.28830  0.67650  Biso   1.000  C
  H163     1.0000 0.45400  0.27260  0.63100  Biso   1.000  H
  H164     1.0000 0.49900  0.33040  0.66350  Biso   1.000  H
  C191     1.0000 0.57070  0.25680  0.76980  Biso   1.000  C
  H165     1.0000 0.60970  0.22900  0.78070  Biso   1.000  H
  H166     1.0000 0.58690  0.30090  0.76940  Biso   1.000  H
  C192     1.0000 0.50400  0.17850  0.70030  Biso   1.000  C
  H167     1.0000 0.48430  0.16690  0.64830  Biso   1.000  H
  H168     1.0000 0.53620  0.14510  0.71730  Biso   1.000  H
  Co9      1.0000 0.25000  0.25000  0.00000  Biso   1.000  Co
  Co10     1.0000 0.75000  0.25000  0.50000  Biso   1.000  Co
  Co11     1.0000 0.75000  0.75000  0.00000  Biso   1.000  Co
  Co12     1.0000 0.25000  0.75000  0.50000  Biso   1.000  Co
