data_image0
_cell_length_a       15.9731
_cell_length_b       15.9731
_cell_length_c       18.4149
_cell_angle_alpha    90
_cell_angle_beta     90
_cell_angle_gamma    120

_symmetry_space_group_name_H-M    "P 1"
_symmetry_int_tables_number       1

loop_
  _symmetry_equiv_pos_as_xyz
  'x, y, z'

loop_
  _atom_site_label
  _atom_site_occupancy
  _atom_site_fract_x
  _atom_site_fract_y
  _atom_site_fract_z
  _atom_site_thermal_displace_type
  _atom_site_B_iso_or_equiv
  _atom_site_type_symbol
  P1       1.0000 0.45030  0.28992  0.08236  Biso   1.000  P
  O1       1.0000 0.48149  0.21370  0.08028  Biso   1.000  O
  O2       1.0000 0.53726  0.39316  0.07897  Biso   1.000  O
  O3       1.0000 0.38931  0.27739  0.14777  Biso   1.000  O
  H1       1.0000 0.48400  0.52600  0.14070  Biso   1.000  H
  H2       1.0000 0.32510  0.36000  0.95840  Biso   1.000  H
  H3       1.0000 0.33990  0.13100  0.97810  Biso   1.000  H
  H4       1.0000 0.29800  0.32100  0.96700  Biso   1.000  H
  H5       1.0000 0.32910  0.36260  0.04340  Biso   1.000  H
  H6       1.0000 0.42420  0.42180  0.99820  Biso   1.000  H
  H7       1.0000 0.29100  0.14030  0.04910  Biso   1.000  H
  H8       1.0000 0.25150  0.14780  0.97290  Biso   1.000  H
  H9       1.0000 0.25300  0.18500  0.96900  Biso   1.000  H
  P2       1.0000 0.71008  0.16038  0.08236  Biso   1.000  P
  O4       1.0000 0.78630  0.26779  0.08028  Biso   1.000  O
  O5       1.0000 0.60684  0.14410  0.07897  Biso   1.000  O
  O6       1.0000 0.72261  0.11192  0.14777  Biso   1.000  O
  H10      1.0000 0.47400  0.95800  0.14070  Biso   1.000  H
  H11      1.0000 0.64000  0.96510  0.95840  Biso   1.000  H
  H12      1.0000 0.86900  0.20890  0.97810  Biso   1.000  H
  H13      1.0000 0.67900  0.97700  0.96700  Biso   1.000  H
  H14      1.0000 0.63740  0.96650  0.04340  Biso   1.000  H
  H15      1.0000 0.57820  0.00240  0.99820  Biso   1.000  H
  H16      1.0000 0.85970  0.15070  0.04910  Biso   1.000  H
  H17      1.0000 0.85220  0.10370  0.97290  Biso   1.000  H
  H18      1.0000 0.81500  0.06800  0.96900  Biso   1.000  H
  P3       1.0000 0.83962  0.54970  0.08236  Biso   1.000  P
  O7       1.0000 0.73221  0.51851  0.08028  Biso   1.000  O
  O8       1.0000 0.85590  0.46274  0.07897  Biso   1.000  O
  O9       1.0000 0.88808  0.61069  0.14777  Biso   1.000  O
  H19      1.0000 0.04200  0.51600  0.14070  Biso   1.000  H
  H20      1.0000 0.03490  0.67490  0.95840  Biso   1.000  H
  H21      1.0000 0.79110  0.66010  0.97810  Biso   1.000  H
  H22      1.0000 0.02300  0.70200  0.96700  Biso   1.000  H
  H23      1.0000 0.03350  0.67090  0.04340  Biso   1.000  H
  H24      1.0000 0.99760  0.57580  0.99820  Biso   1.000  H
  H25      1.0000 0.84930  0.70900  0.04910  Biso   1.000  H
  H26      1.0000 0.89630  0.74850  0.97290  Biso   1.000  H
  H27      1.0000 0.93200  0.74700  0.96900  Biso   1.000  H
  P4       1.0000 0.54970  0.71008  0.08236  Biso   1.000  P
  O10      1.0000 0.51851  0.78630  0.08028  Biso   1.000  O
  O11      1.0000 0.46274  0.60684  0.07897  Biso   1.000  O
  O12      1.0000 0.61069  0.72261  0.14777  Biso   1.000  O
  H28      1.0000 0.51600  0.47400  0.14070  Biso   1.000  H
  H29      1.0000 0.67490  0.64000  0.95840  Biso   1.000  H
  H30      1.0000 0.66010  0.86900  0.97810  Biso   1.000  H
  H31      1.0000 0.70200  0.67900  0.96700  Biso   1.000  H
  H32      1.0000 0.67090  0.63740  0.04340  Biso   1.000  H
  H33      1.0000 0.57580  0.57820  0.99820  Biso   1.000  H
  H34      1.0000 0.70900  0.85970  0.04910  Biso   1.000  H
  H35      1.0000 0.74850  0.85220  0.97290  Biso   1.000  H
  H36      1.0000 0.74700  0.81500  0.96900  Biso   1.000  H
  P5       1.0000 0.28992  0.83962  0.08236  Biso   1.000  P
  O13      1.0000 0.21370  0.73221  0.08028  Biso   1.000  O
  O14      1.0000 0.39316  0.85590  0.07897  Biso   1.000  O
  O15      1.0000 0.27739  0.88808  0.14777  Biso   1.000  O
  H37      1.0000 0.52600  0.04200  0.14070  Biso   1.000  H
  H38      1.0000 0.36000  0.03490  0.95840  Biso   1.000  H
  H39      1.0000 0.13100  0.79110  0.97810  Biso   1.000  H
  H40      1.0000 0.32100  0.02300  0.96700  Biso   1.000  H
  H41      1.0000 0.36260  0.03350  0.04340  Biso   1.000  H
  H42      1.0000 0.42180  0.99760  0.99820  Biso   1.000  H
  H43      1.0000 0.14030  0.84930  0.04910  Biso   1.000  H
  H44      1.0000 0.14780  0.89630  0.97290  Biso   1.000  H
  H45      1.0000 0.18500  0.93200  0.96900  Biso   1.000  H
  P6       1.0000 0.16038  0.45030  0.08236  Biso   1.000  P
  O16      1.0000 0.26779  0.48149  0.08028  Biso   1.000  O
  O17      1.0000 0.14410  0.53726  0.07897  Biso   1.000  O
  O18      1.0000 0.11192  0.38931  0.14777  Biso   1.000  O
  H46      1.0000 0.95800  0.48400  0.14070  Biso   1.000  H
  H47      1.0000 0.96510  0.32510  0.95840  Biso   1.000  H
  H48      1.0000 0.20890  0.33990  0.97810  Biso   1.000  H
  H49      1.0000 0.97700  0.29800  0.96700  Biso   1.000  H
  H50      1.0000 0.96650  0.32910  0.04340  Biso   1.000  H
  H51      1.0000 0.00240  0.42420  0.99820  Biso   1.000  H
  H52      1.0000 0.15070  0.29100  0.04910  Biso   1.000  H
  H53      1.0000 0.10370  0.25150  0.97290  Biso   1.000  H
  H54      1.0000 0.06800  0.25300  0.96900  Biso   1.000  H
  P7       1.0000 0.28992  0.45030  0.41764  Biso   1.000  P
  O19      1.0000 0.21370  0.48149  0.41972  Biso   1.000  O
  O20      1.0000 0.39316  0.53726  0.42103  Biso   1.000  O
  O21      1.0000 0.27739  0.38931  0.35223  Biso   1.000  O
  H55      1.0000 0.52600  0.48400  0.35930  Biso   1.000  H
  H56      1.0000 0.36000  0.32510  0.54160  Biso   1.000  H
  H57      1.0000 0.13100  0.33990  0.52190  Biso   1.000  H
  H58      1.0000 0.32100  0.29800  0.53300  Biso   1.000  H
  H59      1.0000 0.36260  0.32910  0.45660  Biso   1.000  H
  H60      1.0000 0.42180  0.42420  0.50180  Biso   1.000  H
  H61      1.0000 0.14030  0.29100  0.45090  Biso   1.000  H
  H62      1.0000 0.14780  0.25150  0.52710  Biso   1.000  H
  H63      1.0000 0.18500  0.25300  0.53100  Biso   1.000  H
  P8       1.0000 0.16038  0.71008  0.41764  Biso   1.000  P
  O22      1.0000 0.26779  0.78630  0.41972  Biso   1.000  O
  O23      1.0000 0.14410  0.60684  0.42103  Biso   1.000  O
  O24      1.0000 0.11192  0.72261  0.35223  Biso   1.000  O
  H64      1.0000 0.95800  0.47400  0.35930  Biso   1.000  H
  H65      1.0000 0.96510  0.64000  0.54160  Biso   1.000  H
  H66      1.0000 0.20890  0.86900  0.52190  Biso   1.000  H
  H67      1.0000 0.97700  0.67900  0.53300  Biso   1.000  H
  H68      1.0000 0.96650  0.63740  0.45660  Biso   1.000  H
  H69      1.0000 0.00240  0.57820  0.50180  Biso   1.000  H
  H70      1.0000 0.15070  0.85970  0.45090  Biso   1.000  H
  H71      1.0000 0.10370  0.85220  0.52710  Biso   1.000  H
  H72      1.0000 0.06800  0.81500  0.53100  Biso   1.000  H
  P9       1.0000 0.54970  0.83962  0.41764  Biso   1.000  P
  O25      1.0000 0.51851  0.73221  0.41972  Biso   1.000  O
  O26      1.0000 0.46274  0.85590  0.42103  Biso   1.000  O
  O27      1.0000 0.61069  0.88808  0.35223  Biso   1.000  O
  H73      1.0000 0.51600  0.04200  0.35930  Biso   1.000  H
  H74      1.0000 0.67490  0.03490  0.54160  Biso   1.000  H
  H75      1.0000 0.66010  0.79110  0.52190  Biso   1.000  H
  H76      1.0000 0.70200  0.02300  0.53300  Biso   1.000  H
  H77      1.0000 0.67090  0.03350  0.45660  Biso   1.000  H
  H78      1.0000 0.57580  0.99760  0.50180  Biso   1.000  H
  H79      1.0000 0.70900  0.84930  0.45090  Biso   1.000  H
  H80      1.0000 0.74850  0.89630  0.52710  Biso   1.000  H
  H81      1.0000 0.74700  0.93200  0.53100  Biso   1.000  H
  P10      1.0000 0.71008  0.54970  0.41764  Biso   1.000  P
  O28      1.0000 0.78630  0.51851  0.41972  Biso   1.000  O
  O29      1.0000 0.60684  0.46274  0.42103  Biso   1.000  O
  O30      1.0000 0.72261  0.61069  0.35223  Biso   1.000  O
  H82      1.0000 0.47400  0.51600  0.35930  Biso   1.000  H
  H83      1.0000 0.64000  0.67490  0.54160  Biso   1.000  H
  H84      1.0000 0.86900  0.66010  0.52190  Biso   1.000  H
  H85      1.0000 0.67900  0.70200  0.53300  Biso   1.000  H
  H86      1.0000 0.63740  0.67090  0.45660  Biso   1.000  H
  H87      1.0000 0.57820  0.57580  0.50180  Biso   1.000  H
  H88      1.0000 0.85970  0.70900  0.45090  Biso   1.000  H
  H89      1.0000 0.85220  0.74850  0.52710  Biso   1.000  H
  H90      1.0000 0.81500  0.74700  0.53100  Biso   1.000  H
  P11      1.0000 0.83962  0.28992  0.41764  Biso   1.000  P
  O31      1.0000 0.73221  0.21370  0.41972  Biso   1.000  O
  O32      1.0000 0.85590  0.39316  0.42103  Biso   1.000  O
  O33      1.0000 0.88808  0.27739  0.35223  Biso   1.000  O
  H91      1.0000 0.04200  0.52600  0.35930  Biso   1.000  H
  H92      1.0000 0.03490  0.36000  0.54160  Biso   1.000  H
  H93      1.0000 0.79110  0.13100  0.52190  Biso   1.000  H
  H94      1.0000 0.02300  0.32100  0.53300  Biso   1.000  H
  H95      1.0000 0.03350  0.36260  0.45660  Biso   1.000  H
  H96      1.0000 0.99760  0.42180  0.50180  Biso   1.000  H
  H97      1.0000 0.84930  0.14030  0.45090  Biso   1.000  H
  H98      1.0000 0.89630  0.14780  0.52710  Biso   1.000  H
  H99      1.0000 0.93200  0.18500  0.53100  Biso   1.000  H
  P12      1.0000 0.45030  0.16038  0.41764  Biso   1.000  P
  O34      1.0000 0.48149  0.26779  0.41972  Biso   1.000  O
  O35      1.0000 0.53726  0.14410  0.42103  Biso   1.000  O
  O36      1.0000 0.38931  0.11192  0.35223  Biso   1.000  O
  H100     1.0000 0.48400  0.95800  0.35930  Biso   1.000  H
  H101     1.0000 0.32510  0.96510  0.54160  Biso   1.000  H
  H102     1.0000 0.33990  0.20890  0.52190  Biso   1.000  H
  H103     1.0000 0.29800  0.97700  0.53300  Biso   1.000  H
  H104     1.0000 0.32910  0.96650  0.45660  Biso   1.000  H
  H105     1.0000 0.42420  0.00240  0.50180  Biso   1.000  H
  H106     1.0000 0.29100  0.15070  0.45090  Biso   1.000  H
  H107     1.0000 0.25150  0.10370  0.52710  Biso   1.000  H
  H108     1.0000 0.25300  0.06800  0.53100  Biso   1.000  H
  P13      1.0000 0.54970  0.71008  0.91764  Biso   1.000  P
  O37      1.0000 0.51851  0.78630  0.91972  Biso   1.000  O
  O38      1.0000 0.46274  0.60684  0.92103  Biso   1.000  O
  O39      1.0000 0.61069  0.72261  0.85223  Biso   1.000  O
  H109     1.0000 0.51600  0.47400  0.85930  Biso   1.000  H
  H110     1.0000 0.67490  0.64000  0.04160  Biso   1.000  H
  H111     1.0000 0.66010  0.86900  0.02190  Biso   1.000  H
  H112     1.0000 0.70200  0.67900  0.03300  Biso   1.000  H
  H113     1.0000 0.67090  0.63740  0.95660  Biso   1.000  H
  H114     1.0000 0.57580  0.57820  0.00180  Biso   1.000  H
  H115     1.0000 0.70900  0.85970  0.95090  Biso   1.000  H
  H116     1.0000 0.74850  0.85220  0.02710  Biso   1.000  H
  H117     1.0000 0.74700  0.81500  0.03100  Biso   1.000  H
  P14      1.0000 0.28992  0.83962  0.91764  Biso   1.000  P
  O40      1.0000 0.21370  0.73221  0.91972  Biso   1.000  O
  O41      1.0000 0.39316  0.85590  0.92103  Biso   1.000  O
  O42      1.0000 0.27739  0.88808  0.85223  Biso   1.000  O
  H118     1.0000 0.52600  0.04200  0.85930  Biso   1.000  H
  H119     1.0000 0.36000  0.03490  0.04160  Biso   1.000  H
  H120     1.0000 0.13100  0.79110  0.02190  Biso   1.000  H
  H121     1.0000 0.32100  0.02300  0.03300  Biso   1.000  H
  H122     1.0000 0.36260  0.03350  0.95660  Biso   1.000  H
  H123     1.0000 0.42180  0.99760  0.00180  Biso   1.000  H
  H124     1.0000 0.14030  0.84930  0.95090  Biso   1.000  H
  H125     1.0000 0.14780  0.89630  0.02710  Biso   1.000  H
  H126     1.0000 0.18500  0.93200  0.03100  Biso   1.000  H
  P15      1.0000 0.16038  0.45030  0.91764  Biso   1.000  P
  O43      1.0000 0.26779  0.48149  0.91972  Biso   1.000  O
  O44      1.0000 0.14410  0.53726  0.92103  Biso   1.000  O
  O45      1.0000 0.11192  0.38931  0.85223  Biso   1.000  O
  H127     1.0000 0.95800  0.48400  0.85930  Biso   1.000  H
  H128     1.0000 0.96510  0.32510  0.04160  Biso   1.000  H
  H129     1.0000 0.20890  0.33990  0.02190  Biso   1.000  H
  H130     1.0000 0.97700  0.29800  0.03300  Biso   1.000  H
  H131     1.0000 0.96650  0.32910  0.95660  Biso   1.000  H
  H132     1.0000 0.00240  0.42420  0.00180  Biso   1.000  H
  H133     1.0000 0.15070  0.29100  0.95090  Biso   1.000  H
  H134     1.0000 0.10370  0.25150  0.02710  Biso   1.000  H
  H135     1.0000 0.06800  0.25300  0.03100  Biso   1.000  H
  P16      1.0000 0.45030  0.28992  0.91764  Biso   1.000  P
  O46      1.0000 0.48149  0.21370  0.91972  Biso   1.000  O
  O47      1.0000 0.53726  0.39316  0.92103  Biso   1.000  O
  O48      1.0000 0.38931  0.27739  0.85223  Biso   1.000  O
  H136     1.0000 0.48400  0.52600  0.85930  Biso   1.000  H
  H137     1.0000 0.32510  0.36000  0.04160  Biso   1.000  H
  H138     1.0000 0.33990  0.13100  0.02190  Biso   1.000  H
  H139     1.0000 0.29800  0.32100  0.03300  Biso   1.000  H
  H140     1.0000 0.32910  0.36260  0.95660  Biso   1.000  H
  H141     1.0000 0.42420  0.42180  0.00180  Biso   1.000  H
  H142     1.0000 0.29100  0.14030  0.95090  Biso   1.000  H
  H143     1.0000 0.25150  0.14780  0.02710  Biso   1.000  H
  H144     1.0000 0.25300  0.18500  0.03100  Biso   1.000  H
  P17      1.0000 0.71008  0.16038  0.91764  Biso   1.000  P
  O49      1.0000 0.78630  0.26779  0.91972  Biso   1.000  O
  O50      1.0000 0.60684  0.14410  0.92103  Biso   1.000  O
  O51      1.0000 0.72261  0.11192  0.85223  Biso   1.000  O
  H145     1.0000 0.47400  0.95800  0.85930  Biso   1.000  H
  H146     1.0000 0.64000  0.96510  0.04160  Biso   1.000  H
  H147     1.0000 0.86900  0.20890  0.02190  Biso   1.000  H
  H148     1.0000 0.67900  0.97700  0.03300  Biso   1.000  H
  H149     1.0000 0.63740  0.96650  0.95660  Biso   1.000  H
  H150     1.0000 0.57820  0.00240  0.00180  Biso   1.000  H
  H151     1.0000 0.85970  0.15070  0.95090  Biso   1.000  H
  H152     1.0000 0.85220  0.10370  0.02710  Biso   1.000  H
  H153     1.0000 0.81500  0.06800  0.03100  Biso   1.000  H
  P18      1.0000 0.83962  0.54970  0.91764  Biso   1.000  P
  O52      1.0000 0.73221  0.51851  0.91972  Biso   1.000  O
  O53      1.0000 0.85590  0.46274  0.92103  Biso   1.000  O
  O54      1.0000 0.88808  0.61069  0.85223  Biso   1.000  O
  H154     1.0000 0.04200  0.51600  0.85930  Biso   1.000  H
  H155     1.0000 0.03490  0.67490  0.04160  Biso   1.000  H
  H156     1.0000 0.79110  0.66010  0.02190  Biso   1.000  H
  H157     1.0000 0.02300  0.70200  0.03300  Biso   1.000  H
  H158     1.0000 0.03350  0.67090  0.95660  Biso   1.000  H
  H159     1.0000 0.99760  0.57580  0.00180  Biso   1.000  H
  H160     1.0000 0.84930  0.70900  0.95090  Biso   1.000  H
  H161     1.0000 0.89630  0.74850  0.02710  Biso   1.000  H
  H162     1.0000 0.93200  0.74700  0.03100  Biso   1.000  H
  P19      1.0000 0.71008  0.54970  0.58236  Biso   1.000  P
  O55      1.0000 0.78630  0.51851  0.58028  Biso   1.000  O
  O56      1.0000 0.60684  0.46274  0.57897  Biso   1.000  O
  O57      1.0000 0.72261  0.61069  0.64777  Biso   1.000  O
  H163     1.0000 0.47400  0.51600  0.64070  Biso   1.000  H
  H164     1.0000 0.64000  0.67490  0.45840  Biso   1.000  H
  H165     1.0000 0.86900  0.66010  0.47810  Biso   1.000  H
  H166     1.0000 0.67900  0.70200  0.46700  Biso   1.000  H
  H167     1.0000 0.63740  0.67090  0.54340  Biso   1.000  H
  H168     1.0000 0.57820  0.57580  0.49820  Biso   1.000  H
  H169     1.0000 0.85970  0.70900  0.54910  Biso   1.000  H
  H170     1.0000 0.85220  0.74850  0.47290  Biso   1.000  H
  H171     1.0000 0.81500  0.74700  0.46900  Biso   1.000  H
  P20      1.0000 0.83962  0.28992  0.58236  Biso   1.000  P
  O58      1.0000 0.73221  0.21370  0.58028  Biso   1.000  O
  O59      1.0000 0.85590  0.39316  0.57897  Biso   1.000  O
  O60      1.0000 0.88808  0.27739  0.64777  Biso   1.000  O
  H172     1.0000 0.04200  0.52600  0.64070  Biso   1.000  H
  H173     1.0000 0.03490  0.36000  0.45840  Biso   1.000  H
  H174     1.0000 0.79110  0.13100  0.47810  Biso   1.000  H
  H175     1.0000 0.02300  0.32100  0.46700  Biso   1.000  H
  H176     1.0000 0.03350  0.36260  0.54340  Biso   1.000  H
  H177     1.0000 0.99760  0.42180  0.49820  Biso   1.000  H
  H178     1.0000 0.84930  0.14030  0.54910  Biso   1.000  H
  H179     1.0000 0.89630  0.14780  0.47290  Biso   1.000  H
  H180     1.0000 0.93200  0.18500  0.46900  Biso   1.000  H
  P21      1.0000 0.45030  0.16038  0.58236  Biso   1.000  P
  O61      1.0000 0.48149  0.26779  0.58028  Biso   1.000  O
  O62      1.0000 0.53726  0.14410  0.57897  Biso   1.000  O
  O63      1.0000 0.38931  0.11192  0.64777  Biso   1.000  O
  H181     1.0000 0.48400  0.95800  0.64070  Biso   1.000  H
  H182     1.0000 0.32510  0.96510  0.45840  Biso   1.000  H
  H183     1.0000 0.33990  0.20890  0.47810  Biso   1.000  H
  H184     1.0000 0.29800  0.97700  0.46700  Biso   1.000  H
  H185     1.0000 0.32910  0.96650  0.54340  Biso   1.000  H
  H186     1.0000 0.42420  0.00240  0.49820  Biso   1.000  H
  H187     1.0000 0.29100  0.15070  0.54910  Biso   1.000  H
  H188     1.0000 0.25150  0.10370  0.47290  Biso   1.000  H
  H189     1.0000 0.25300  0.06800  0.46900  Biso   1.000  H
  P22      1.0000 0.28992  0.45030  0.58236  Biso   1.000  P
  O64      1.0000 0.21370  0.48149  0.58028  Biso   1.000  O
  O65      1.0000 0.39316  0.53726  0.57897  Biso   1.000  O
  O66      1.0000 0.27739  0.38931  0.64777  Biso   1.000  O
  H190     1.0000 0.52600  0.48400  0.64070  Biso   1.000  H
  H191     1.0000 0.36000  0.32510  0.45840  Biso   1.000  H
  H192     1.0000 0.13100  0.33990  0.47810  Biso   1.000  H
  H193     1.0000 0.32100  0.29800  0.46700  Biso   1.000  H
  H194     1.0000 0.36260  0.32910  0.54340  Biso   1.000  H
  H195     1.0000 0.42180  0.42420  0.49820  Biso   1.000  H
  H196     1.0000 0.14030  0.29100  0.54910  Biso   1.000  H
  H197     1.0000 0.14780  0.25150  0.47290  Biso   1.000  H
  H198     1.0000 0.18500  0.25300  0.46900  Biso   1.000  H
  P23      1.0000 0.16038  0.71008  0.58236  Biso   1.000  P
  O67      1.0000 0.26779  0.78630  0.58028  Biso   1.000  O
  O68      1.0000 0.14410  0.60684  0.57897  Biso   1.000  O
  O69      1.0000 0.11192  0.72261  0.64777  Biso   1.000  O
  H199     1.0000 0.95800  0.47400  0.64070  Biso   1.000  H
  H200     1.0000 0.96510  0.64000  0.45840  Biso   1.000  H
  H201     1.0000 0.20890  0.86900  0.47810  Biso   1.000  H
  H202     1.0000 0.97700  0.67900  0.46700  Biso   1.000  H
  H203     1.0000 0.96650  0.63740  0.54340  Biso   1.000  H
  H204     1.0000 0.00240  0.57820  0.49820  Biso   1.000  H
  H205     1.0000 0.15070  0.85970  0.54910  Biso   1.000  H
  H206     1.0000 0.10370  0.85220  0.47290  Biso   1.000  H
  H207     1.0000 0.06800  0.81500  0.46900  Biso   1.000  H
  P24      1.0000 0.54970  0.83962  0.58236  Biso   1.000  P
  O70      1.0000 0.51851  0.73221  0.58028  Biso   1.000  O
  O71      1.0000 0.46274  0.85590  0.57897  Biso   1.000  O
  O72      1.0000 0.61069  0.88808  0.64777  Biso   1.000  O
  H208     1.0000 0.51600  0.04200  0.64070  Biso   1.000  H
  H209     1.0000 0.67490  0.03490  0.45840  Biso   1.000  H
  H210     1.0000 0.66010  0.79110  0.47810  Biso   1.000  H
  H211     1.0000 0.70200  0.02300  0.46700  Biso   1.000  H
  H212     1.0000 0.67090  0.03350  0.54340  Biso   1.000  H
  H213     1.0000 0.57580  0.99760  0.49820  Biso   1.000  H
  H214     1.0000 0.70900  0.84930  0.54910  Biso   1.000  H
  H215     1.0000 0.74850  0.89630  0.47290  Biso   1.000  H
  H216     1.0000 0.74700  0.93200  0.46900  Biso   1.000  H
  Pd1      1.0000 0.63688  0.44960  0.00000  Biso   1.000  Pd
  C1       1.0000 0.37870  0.27400  0.00000  Biso   1.000  C
  O73      1.0000 0.28830  0.18360  0.00000  Biso   1.000  O
  C2       1.0000 0.36270  0.36330  0.00000  Biso   1.000  C
  C3       1.0000 0.30850  0.16260  0.00000  Biso   1.000  C
  O74      1.0000 0.33860  0.33700  0.00000  Biso   1.000  O
  Pd2      1.0000 0.55040  0.18728  0.00000  Biso   1.000  Pd
  C4       1.0000 0.72600  0.10470  0.00000  Biso   1.000  C
  O75      1.0000 0.81640  0.10470  0.00000  Biso   1.000  O
  C5       1.0000 0.63670  0.99940  0.00000  Biso   1.000  C
  C6       1.0000 0.83740  0.14590  0.00000  Biso   1.000  C
  O76      1.0000 0.66300  0.00160  0.00000  Biso   1.000  O
  Pd3      1.0000 0.81272  0.36312  0.00000  Biso   1.000  Pd
  C7       1.0000 0.89530  0.62130  0.00000  Biso   1.000  C
  O77      1.0000 0.89530  0.71170  0.00000  Biso   1.000  O
  C8       1.0000 0.00060  0.63730  0.00000  Biso   1.000  C
  C9       1.0000 0.85410  0.69150  0.00000  Biso   1.000  C
  O78      1.0000 0.99840  0.66140  0.00000  Biso   1.000  O
  Pd4      1.0000 0.36312  0.55040  0.00000  Biso   1.000  Pd
  C10      1.0000 0.62130  0.72600  0.00000  Biso   1.000  C
  O79      1.0000 0.71170  0.81640  0.00000  Biso   1.000  O
  C11      1.0000 0.63730  0.63670  0.00000  Biso   1.000  C
  C12      1.0000 0.69150  0.83740  0.00000  Biso   1.000  C
  O80      1.0000 0.66140  0.66300  0.00000  Biso   1.000  O
  Pd5      1.0000 0.44960  0.81272  0.00000  Biso   1.000  Pd
  C13      1.0000 0.27400  0.89530  0.00000  Biso   1.000  C
  O81      1.0000 0.18360  0.89530  0.00000  Biso   1.000  O
  C14      1.0000 0.36330  0.00060  0.00000  Biso   1.000  C
  C15      1.0000 0.16260  0.85410  0.00000  Biso   1.000  C
  O82      1.0000 0.33700  0.99840  0.00000  Biso   1.000  O
  Pd6      1.0000 0.18728  0.63688  0.00000  Biso   1.000  Pd
  C16      1.0000 0.10470  0.37870  0.00000  Biso   1.000  C
  O83      1.0000 0.10470  0.28830  0.00000  Biso   1.000  O
  C17      1.0000 0.99940  0.36270  0.00000  Biso   1.000  C
  C18      1.0000 0.14590  0.30850  0.00000  Biso   1.000  C
  O84      1.0000 0.00160  0.33860  0.00000  Biso   1.000  O
  Pd7      1.0000 0.44960  0.63688  0.50000  Biso   1.000  Pd
  C19      1.0000 0.27400  0.37870  0.50000  Biso   1.000  C
  O85      1.0000 0.18360  0.28830  0.50000  Biso   1.000  O
  C20      1.0000 0.36330  0.36270  0.50000  Biso   1.000  C
  C21      1.0000 0.16260  0.30850  0.50000  Biso   1.000  C
  O86      1.0000 0.33700  0.33860  0.50000  Biso   1.000  O
  Pd8      1.0000 0.18728  0.55040  0.50000  Biso   1.000  Pd
  C22      1.0000 0.10470  0.72600  0.50000  Biso   1.000  C
  O87      1.0000 0.10470  0.81640  0.50000  Biso   1.000  O
  C23      1.0000 0.99940  0.63670  0.50000  Biso   1.000  C
  C24      1.0000 0.14590  0.83740  0.50000  Biso   1.000  C
  O88      1.0000 0.00160  0.66300  0.50000  Biso   1.000  O
  Pd9      1.0000 0.36312  0.81272  0.50000  Biso   1.000  Pd
  C25      1.0000 0.62130  0.89530  0.50000  Biso   1.000  C
  O89      1.0000 0.71170  0.89530  0.50000  Biso   1.000  O
  C26      1.0000 0.63730  0.00060  0.50000  Biso   1.000  C
  C27      1.0000 0.69150  0.85410  0.50000  Biso   1.000  C
  O90      1.0000 0.66140  0.99840  0.50000  Biso   1.000  O
  Pd10     1.0000 0.55040  0.36312  0.50000  Biso   1.000  Pd
  C28      1.0000 0.72600  0.62130  0.50000  Biso   1.000  C
  O91      1.0000 0.81640  0.71170  0.50000  Biso   1.000  O
  C29      1.0000 0.63670  0.63730  0.50000  Biso   1.000  C
  C30      1.0000 0.83740  0.69150  0.50000  Biso   1.000  C
  O92      1.0000 0.66300  0.66140  0.50000  Biso   1.000  O
  Pd11     1.0000 0.81272  0.44960  0.50000  Biso   1.000  Pd
  C31      1.0000 0.89530  0.27400  0.50000  Biso   1.000  C
  O93      1.0000 0.89530  0.18360  0.50000  Biso   1.000  O
  C32      1.0000 0.00060  0.36330  0.50000  Biso   1.000  C
  C33      1.0000 0.85410  0.16260  0.50000  Biso   1.000  C
  O94      1.0000 0.99840  0.33700  0.50000  Biso   1.000  O
  Pd12     1.0000 0.63688  0.18728  0.50000  Biso   1.000  Pd
  C34      1.0000 0.37870  0.10470  0.50000  Biso   1.000  C
  O95      1.0000 0.28830  0.10470  0.50000  Biso   1.000  O
  C35      1.0000 0.36270  0.99940  0.50000  Biso   1.000  C
  C36      1.0000 0.30850  0.14590  0.50000  Biso   1.000  C
  O96      1.0000 0.33860  0.00160  0.50000  Biso   1.000  O
  Ca1      1.0000 0.37002  0.37002  0.25000  Biso   1.000  Ca
  Ca2      1.0000 0.62998  0.00000  0.25000  Biso   1.000  Ca
  Ca3      1.0000 0.00000  0.62998  0.25000  Biso   1.000  Ca
  Ca4      1.0000 0.62998  0.62998  0.25000  Biso   1.000  Ca
  Ca5      1.0000 0.37002  0.00000  0.25000  Biso   1.000  Ca
  Ca6      1.0000 0.00000  0.37002  0.25000  Biso   1.000  Ca
  Ca7      1.0000 0.62998  0.62998  0.75000  Biso   1.000  Ca
  Ca8      1.0000 0.37002  0.00000  0.75000  Biso   1.000  Ca
  Ca9      1.0000 0.00000  0.37002  0.75000  Biso   1.000  Ca
  Ca10     1.0000 0.37002  0.37002  0.75000  Biso   1.000  Ca
  Ca11     1.0000 0.62998  0.00000  0.75000  Biso   1.000  Ca
  Ca12     1.0000 0.00000  0.62998  0.75000  Biso   1.000  Ca
  O97      1.0000 0.50000  0.50000  0.17187  Biso   1.000  O
  O98      1.0000 0.50000  0.00000  0.17187  Biso   1.000  O
  O99      1.0000 0.00000  0.50000  0.17187  Biso   1.000  O
  O100     1.0000 0.50000  0.50000  0.32813  Biso   1.000  O
  O101     1.0000 0.00000  0.50000  0.32813  Biso   1.000  O
  O102     1.0000 0.50000  0.00000  0.32813  Biso   1.000  O
  O103     1.0000 0.50000  0.50000  0.82813  Biso   1.000  O
  O104     1.0000 0.50000  0.00000  0.82813  Biso   1.000  O
  O105     1.0000 0.00000  0.50000  0.82813  Biso   1.000  O
  O106     1.0000 0.50000  0.50000  0.67187  Biso   1.000  O
  O107     1.0000 0.00000  0.50000  0.67187  Biso   1.000  O
  O108     1.0000 0.50000  0.00000  0.67187  Biso   1.000  O
