data_image0
_cell_length_a       14.8357
_cell_length_b       14.8357
_cell_length_c       6.7854
_cell_angle_alpha    90
_cell_angle_beta     90
_cell_angle_gamma    90

_symmetry_space_group_name_H-M    "P 1"
_symmetry_int_tables_number       1

loop_
  _symmetry_equiv_pos_as_xyz
  'x, y, z'

loop_
  _atom_site_label
  _atom_site_occupancy
  _atom_site_fract_x
  _atom_site_fract_y
  _atom_site_fract_z
  _atom_site_thermal_displace_type
  _atom_site_B_iso_or_equiv
  _atom_site_type_symbol
  C1       1.0000 0.31830  0.79320  0.24900  Biso   1.000  C
  C2       1.0000 0.25280  0.85830  0.25410  Biso   1.000  C
  F1       1.0000 0.40440  0.82010  0.25240  Biso   1.000  F
  F2       1.0000 0.27830  0.94600  0.25340  Biso   1.000  F
  O1       1.0000 0.42630  0.63330  0.11400  Biso   1.000  O
  O2       1.0000 0.04340  0.91970  0.09910  Biso   1.000  O
  O3       1.0000 0.61490  0.69240  0.98700  Biso   1.000  O
  H1       1.0000 0.67200  0.68720  0.98860  Biso   1.000  H
  H2       1.0000 0.59790  0.72150  0.08850  Biso   1.000  H
  O4       1.0000 0.66130  0.64600  0.94500  Biso   1.000  O
  H3       1.0000 0.68290  0.66550  0.05270  Biso   1.000  H
  H4       1.0000 0.70340  0.62330  0.87570  Biso   1.000  H
  C3       1.0000 0.68170  0.20680  0.74900  Biso   1.000  C
  C4       1.0000 0.74720  0.14170  0.75410  Biso   1.000  C
  F3       1.0000 0.59560  0.17990  0.75240  Biso   1.000  F
  F4       1.0000 0.72170  0.05400  0.75340  Biso   1.000  F
  O5       1.0000 0.57370  0.36670  0.61400  Biso   1.000  O
  O6       1.0000 0.95660  0.08030  0.59910  Biso   1.000  O
  O7       1.0000 0.38510  0.30760  0.48700  Biso   1.000  O
  H5       1.0000 0.32800  0.31280  0.48860  Biso   1.000  H
  H6       1.0000 0.40210  0.27850  0.58850  Biso   1.000  H
  O8       1.0000 0.33870  0.35400  0.44500  Biso   1.000  O
  H7       1.0000 0.31710  0.33450  0.55270  Biso   1.000  H
  H8       1.0000 0.29660  0.37670  0.37570  Biso   1.000  H
  C5       1.0000 0.70680  0.81830  0.49900  Biso   1.000  C
  C6       1.0000 0.64170  0.75280  0.50410  Biso   1.000  C
  F5       1.0000 0.67990  0.90440  0.50240  Biso   1.000  F
  F6       1.0000 0.55400  0.77830  0.50340  Biso   1.000  F
  O9       1.0000 0.86670  0.92630  0.36400  Biso   1.000  O
  O10      1.0000 0.58030  0.54340  0.34910  Biso   1.000  O
  O11      1.0000 0.80760  0.11490  0.23700  Biso   1.000  O
  H9       1.0000 0.81280  0.17200  0.23860  Biso   1.000  H
  H10      1.0000 0.77850  0.09790  0.33850  Biso   1.000  H
  O12      1.0000 0.85400  0.16130  0.19500  Biso   1.000  O
  H11      1.0000 0.83450  0.18290  0.30270  Biso   1.000  H
  H12      1.0000 0.87670  0.20340  0.12570  Biso   1.000  H
  C7       1.0000 0.29320  0.18170  0.99900  Biso   1.000  C
  C8       1.0000 0.35830  0.24720  0.00410  Biso   1.000  C
  F7       1.0000 0.32010  0.09560  0.00240  Biso   1.000  F
  F8       1.0000 0.44600  0.22170  0.00340  Biso   1.000  F
  O13      1.0000 0.13330  0.07370  0.86400  Biso   1.000  O
  O14      1.0000 0.41970  0.45660  0.84910  Biso   1.000  O
  O15      1.0000 0.19240  0.88510  0.73700  Biso   1.000  O
  H13      1.0000 0.18720  0.82800  0.73860  Biso   1.000  H
  H14      1.0000 0.22150  0.90210  0.83850  Biso   1.000  H
  O16      1.0000 0.14600  0.83870  0.69500  Biso   1.000  O
  H15      1.0000 0.16550  0.81710  0.80270  Biso   1.000  H
  H16      1.0000 0.12330  0.79660  0.62570  Biso   1.000  H
  C9       1.0000 0.18170  0.29320  0.00100  Biso   1.000  C
  C10      1.0000 0.24720  0.35830  0.99590  Biso   1.000  C
  F9       1.0000 0.09560  0.32010  0.99760  Biso   1.000  F
  F10      1.0000 0.22170  0.44600  0.99660  Biso   1.000  F
  O17      1.0000 0.07370  0.13330  0.13600  Biso   1.000  O
  O18      1.0000 0.45660  0.41970  0.15090  Biso   1.000  O
  O19      1.0000 0.88510  0.19240  0.26300  Biso   1.000  O
  H17      1.0000 0.82800  0.18720  0.26140  Biso   1.000  H
  H18      1.0000 0.90210  0.22150  0.16150  Biso   1.000  H
  O20      1.0000 0.83870  0.14600  0.30500  Biso   1.000  O
  H19      1.0000 0.81710  0.16550  0.19730  Biso   1.000  H
  H20      1.0000 0.79660  0.12330  0.37430  Biso   1.000  H
  C11      1.0000 0.81830  0.70680  0.50100  Biso   1.000  C
  C12      1.0000 0.75280  0.64170  0.49590  Biso   1.000  C
  F11      1.0000 0.90440  0.67990  0.49760  Biso   1.000  F
  F12      1.0000 0.77830  0.55400  0.49660  Biso   1.000  F
  O21      1.0000 0.92630  0.86670  0.63600  Biso   1.000  O
  O22      1.0000 0.54340  0.58030  0.65090  Biso   1.000  O
  O23      1.0000 0.11490  0.80760  0.76300  Biso   1.000  O
  H21      1.0000 0.17200  0.81280  0.76140  Biso   1.000  H
  H22      1.0000 0.09790  0.77850  0.66150  Biso   1.000  H
  O24      1.0000 0.16130  0.85400  0.80500  Biso   1.000  O
  H23      1.0000 0.18290  0.83450  0.69730  Biso   1.000  H
  H24      1.0000 0.20340  0.87670  0.87430  Biso   1.000  H
  C13      1.0000 0.79320  0.31830  0.75100  Biso   1.000  C
  C14      1.0000 0.85830  0.25280  0.74590  Biso   1.000  C
  F13      1.0000 0.82010  0.40440  0.74760  Biso   1.000  F
  F14      1.0000 0.94600  0.27830  0.74660  Biso   1.000  F
  O25      1.0000 0.63330  0.42630  0.88600  Biso   1.000  O
  O26      1.0000 0.91970  0.04340  0.90090  Biso   1.000  O
  O27      1.0000 0.69240  0.61490  0.01300  Biso   1.000  O
  H25      1.0000 0.68720  0.67200  0.01140  Biso   1.000  H
  H26      1.0000 0.72150  0.59790  0.91150  Biso   1.000  H
  O28      1.0000 0.64600  0.66130  0.05500  Biso   1.000  O
  H27      1.0000 0.66550  0.68290  0.94730  Biso   1.000  H
  H28      1.0000 0.62330  0.70340  0.12430  Biso   1.000  H
  C15      1.0000 0.20680  0.68170  0.25100  Biso   1.000  C
  C16      1.0000 0.14170  0.74720  0.24590  Biso   1.000  C
  F15      1.0000 0.17990  0.59560  0.24760  Biso   1.000  F
  F16      1.0000 0.05400  0.72170  0.24660  Biso   1.000  F
  O29      1.0000 0.36670  0.57370  0.38600  Biso   1.000  O
  O30      1.0000 0.08030  0.95660  0.40090  Biso   1.000  O
  O31      1.0000 0.30760  0.38510  0.51300  Biso   1.000  O
  H29      1.0000 0.31280  0.32800  0.51140  Biso   1.000  H
  H30      1.0000 0.27850  0.40210  0.41150  Biso   1.000  H
  O32      1.0000 0.35400  0.33870  0.55500  Biso   1.000  O
  H31      1.0000 0.33450  0.31710  0.44730  Biso   1.000  H
  H32      1.0000 0.37670  0.29660  0.62430  Biso   1.000  H
  C17      1.0000 0.36830  0.63170  0.25000  Biso   1.000  C
  C18      1.0000 0.29660  0.70340  0.25000  Biso   1.000  C
  C19      1.0000 0.08980  0.91020  0.25000  Biso   1.000  C
  C20      1.0000 0.16120  0.83880  0.25000  Biso   1.000  C
  C21      1.0000 0.63170  0.36830  0.75000  Biso   1.000  C
  C22      1.0000 0.70340  0.29660  0.75000  Biso   1.000  C
  C23      1.0000 0.91020  0.08980  0.75000  Biso   1.000  C
  C24      1.0000 0.83880  0.16120  0.75000  Biso   1.000  C
  C25      1.0000 0.86830  0.86830  0.50000  Biso   1.000  C
  C26      1.0000 0.79660  0.79660  0.50000  Biso   1.000  C
  C27      1.0000 0.58980  0.58980  0.50000  Biso   1.000  C
  C28      1.0000 0.66120  0.66120  0.50000  Biso   1.000  C
  C29      1.0000 0.13170  0.13170  0.00000  Biso   1.000  C
  C30      1.0000 0.20340  0.20340  0.00000  Biso   1.000  C
  C31      1.0000 0.41020  0.41020  0.00000  Biso   1.000  C
  C32      1.0000 0.33880  0.33880  0.00000  Biso   1.000  C
  Ca1      1.0000 0.54852  0.54852  0.00000  Biso   1.000  Ca
  Ca2      1.0000 0.45148  0.45148  0.50000  Biso   1.000  Ca
  Ca3      1.0000 0.95148  0.04852  0.25000  Biso   1.000  Ca
  Ca4      1.0000 0.04852  0.95148  0.75000  Biso   1.000  Ca
