data_image0
_cell_length_a       8.085
_cell_length_b       14.316
_cell_length_c       29.775
_cell_angle_alpha    90
_cell_angle_beta     103.04
_cell_angle_gamma    90

_symmetry_space_group_name_H-M    "P 1"
_symmetry_int_tables_number       1

loop_
  _symmetry_equiv_pos_as_xyz
  'x, y, z'

loop_
  _atom_site_label
  _atom_site_occupancy
  _atom_site_fract_x
  _atom_site_fract_y
  _atom_site_fract_z
  _atom_site_thermal_displace_type
  _atom_site_B_iso_or_equiv
  _atom_site_type_symbol
  Pr1      1.0000 0.26277  0.96233  0.52004  Biso   1.000  Pr
  O1       1.0000 0.22370  0.95670  0.43440  Biso   1.000  O
  O2       1.0000 0.98510  0.99490  0.45150  Biso   1.000  O
  C1       1.0000 0.06980  0.97400  0.42220  Biso   1.000  C
  C2       1.0000 0.97650  0.96630  0.37250  Biso   1.000  C
  C3       1.0000 0.09760  0.91940  0.34570  Biso   1.000  C
  N1       1.0000 0.02340  0.90230  0.29550  Biso   1.000  N
  C4       1.0000 0.99730  0.99060  0.26750  Biso   1.000  C
  C5       1.0000 0.90890  0.96770  0.21790  Biso   1.000  C
  C6       1.0000 0.85640  0.85000  0.28730  Biso   1.000  C
  C7       1.0000 0.80910  0.81550  0.23710  Biso   1.000  C
  C8       1.0000 0.14790  0.83980  0.27780  Biso   1.000  C
  C9       1.0000 0.09610  0.83550  0.22540  Biso   1.000  C
  N2       1.0000 0.91550  0.86500  0.20920  Biso   1.000  N
  C10      1.0000 0.85370  0.84640  0.15850  Biso   1.000  C
  C11      1.0000 0.83910  0.74300  0.14620  Biso   1.000  C
  C12      1.0000 0.79000  0.72670  0.09500  Biso   1.000  C
  O3       1.0000 0.74130  0.79190  0.06850  Biso   1.000  O
  O4       1.0000 0.31120  0.85510  0.58270  Biso   1.000  O
  O5       1.0000 0.23400  0.13710  0.51190  Biso   1.000  O
  O6       1.0000 0.47530  0.09640  0.49540  Biso   1.000  O
  C13      1.0000 0.37140  0.15780  0.50130  Biso   1.000  C
  C14      1.0000 0.41900  0.25700  0.49590  Biso   1.000  C
  C15      1.0000 0.30730  0.32200  0.49120  Biso   1.000  C
  N3       1.0000 0.36370  0.42670  0.48950  Biso   1.000  N
  C16      1.0000 0.45780  0.45670  0.53900  Biso   1.000  C
  C17      1.0000 0.48630  0.44030  0.46030  Biso   1.000  C
  C18      1.0000 0.19920  0.48680  0.47360  Biso   1.000  C
  C19      1.0000 0.21820  0.58250  0.47080  Biso   1.000  C
  N4       1.0000 0.59190  0.40440  0.51570  Biso   1.000  N
  C20      1.0000 0.55730  0.29560  0.51630  Biso   1.000  C
  H1       1.0000 0.94450  0.02720  0.36010  Biso   1.000  H
  H2       1.0000 0.87680  0.92840  0.36990  Biso   1.000  H
  H3       1.0000 0.19420  0.95970  0.34820  Biso   1.000  H
  H4       1.0000 0.13340  0.86070  0.36030  Biso   1.000  H
  H5       1.0000 0.10510  0.01940  0.26820  Biso   1.000  H
  H6       1.0000 0.92750  0.03270  0.28020  Biso   1.000  H
  H7       1.0000 0.79240  0.98720  0.21230  Biso   1.000  H
  H8       1.0000 0.96490  0.00010  0.19740  Biso   1.000  H
  H9       1.0000 0.77000  0.89060  0.29360  Biso   1.000  H
  H10      1.0000 0.86890  0.79700  0.30750  Biso   1.000  H
  H11      1.0000 0.82400  0.74910  0.23590  Biso   1.000  H
  H12      1.0000 0.69230  0.83090  0.22440  Biso   1.000  H
  H13      1.0000 0.14800  0.77850  0.29080  Biso   1.000  H
  H14      1.0000 0.25950  0.86640  0.28690  Biso   1.000  H
  H15      1.0000 0.16710  0.87580  0.21210  Biso   1.000  H
  H16      1.0000 0.10770  0.77240  0.21570  Biso   1.000  H
  H17      1.0000 0.92790  0.87460  0.14130  Biso   1.000  H
  H18      1.0000 0.74360  0.87450  0.14860  Biso   1.000  H
  H19      1.0000 0.75350  0.71580  0.15990  Biso   1.000  H
  H20      1.0000 0.94660  0.71410  0.15900  Biso   1.000  H
  H21      1.0000 0.46750  0.26050  0.46930  Biso   1.000  H
  H22      1.0000 0.50850  0.27210  0.52200  Biso   1.000  H
  H23      1.0000 0.33380  0.29280  0.50610  Biso   1.000  H
  H24      1.0000 0.40270  0.26820  0.46340  Biso   1.000  H
  H25      1.0000 0.24270  0.31650  0.51450  Biso   1.000  H
  H26      1.0000 0.23200  0.30910  0.46200  Biso   1.000  H
  H27      1.0000 0.55870  0.41970  0.54840  Biso   1.000  H
  H28      1.0000 0.38730  0.44650  0.56050  Biso   1.000  H
  H29      1.0000 0.36550  0.43220  0.45490  Biso   1.000  H
  H30      1.0000 0.52850  0.40580  0.43760  Biso   1.000  H
  H31      1.0000 0.10570  0.46780  0.48640  Biso   1.000  H
  H32      1.0000 0.16740  0.47520  0.44100  Biso   1.000  H
  H33      1.0000 0.16760  0.60350  0.49530  Biso   1.000  H
  H34      1.0000 0.16760  0.61580  0.44310  Biso   1.000  H
  H35      1.0000 0.64110  0.26760  0.50230  Biso   1.000  H
  H36      1.0000 0.58320  0.27620  0.54800  Biso   1.000  H
  Pr2      1.0000 0.23723  0.46233  0.97996  Biso   1.000  Pr
  O7       1.0000 0.27630  0.45670  0.06560  Biso   1.000  O
  O8       1.0000 0.51490  0.49490  0.04850  Biso   1.000  O
  C21      1.0000 0.43020  0.47400  0.07780  Biso   1.000  C
  C22      1.0000 0.52350  0.46630  0.12750  Biso   1.000  C
  C23      1.0000 0.40240  0.41940  0.15430  Biso   1.000  C
  N5       1.0000 0.47660  0.40230  0.20450  Biso   1.000  N
  C24      1.0000 0.50270  0.49060  0.23250  Biso   1.000  C
  C25      1.0000 0.59110  0.46770  0.28210  Biso   1.000  C
  C26      1.0000 0.64360  0.35000  0.21270  Biso   1.000  C
  C27      1.0000 0.69090  0.31550  0.26290  Biso   1.000  C
  C28      1.0000 0.35210  0.33980  0.22220  Biso   1.000  C
  C29      1.0000 0.40390  0.33550  0.27460  Biso   1.000  C
  N6       1.0000 0.58450  0.36500  0.29080  Biso   1.000  N
  C30      1.0000 0.64630  0.34640  0.34150  Biso   1.000  C
  C31      1.0000 0.66090  0.24300  0.35380  Biso   1.000  C
  C32      1.0000 0.71000  0.22670  0.40500  Biso   1.000  C
  O9       1.0000 0.75870  0.29190  0.43150  Biso   1.000  O
  O10      1.0000 0.18880  0.35510  0.91730  Biso   1.000  O
  O11      1.0000 0.26600  0.63710  0.98810  Biso   1.000  O
  O12      1.0000 0.02470  0.59640  0.00460  Biso   1.000  O
  C33      1.0000 0.12860  0.65780  0.99870  Biso   1.000  C
  C34      1.0000 0.08100  0.75700  0.00410  Biso   1.000  C
  C35      1.0000 0.19270  0.82200  0.00880  Biso   1.000  C
  N7       1.0000 0.13630  0.92670  0.01050  Biso   1.000  N
  C36      1.0000 0.04220  0.95670  0.96100  Biso   1.000  C
  C37      1.0000 0.01370  0.94030  0.03970  Biso   1.000  C
  C38      1.0000 0.30080  0.98680  0.02640  Biso   1.000  C
  C39      1.0000 0.28180  0.08250  0.02920  Biso   1.000  C
  N8       1.0000 0.90810  0.90440  0.98430  Biso   1.000  N
  C40      1.0000 0.94270  0.79560  0.98370  Biso   1.000  C
  H37      1.0000 0.55550  0.52720  0.13990  Biso   1.000  H
  H38      1.0000 0.62320  0.42840  0.13010  Biso   1.000  H
  H39      1.0000 0.30580  0.45970  0.15180  Biso   1.000  H
  H40      1.0000 0.36660  0.36070  0.13970  Biso   1.000  H
  H41      1.0000 0.39490  0.51940  0.23180  Biso   1.000  H
  H42      1.0000 0.57250  0.53270  0.21980  Biso   1.000  H
  H43      1.0000 0.70760  0.48720  0.28770  Biso   1.000  H
  H44      1.0000 0.53510  0.50010  0.30260  Biso   1.000  H
  H45      1.0000 0.73000  0.39060  0.20640  Biso   1.000  H
  H46      1.0000 0.63110  0.29700  0.19250  Biso   1.000  H
  H47      1.0000 0.67600  0.24910  0.26410  Biso   1.000  H
  H48      1.0000 0.80770  0.33090  0.27560  Biso   1.000  H
  H49      1.0000 0.35200  0.27850  0.20920  Biso   1.000  H
  H50      1.0000 0.24050  0.36640  0.21310  Biso   1.000  H
  H51      1.0000 0.33290  0.37580  0.28790  Biso   1.000  H
  H52      1.0000 0.39230  0.27240  0.28430  Biso   1.000  H
  H53      1.0000 0.57210  0.37460  0.35870  Biso   1.000  H
  H54      1.0000 0.75640  0.37450  0.35140  Biso   1.000  H
  H55      1.0000 0.74650  0.21580  0.34010  Biso   1.000  H
  H56      1.0000 0.55340  0.21410  0.34100  Biso   1.000  H
  H57      1.0000 0.03250  0.76050  0.03070  Biso   1.000  H
  H58      1.0000 0.99150  0.77210  0.97800  Biso   1.000  H
  H59      1.0000 0.16620  0.79280  0.99390  Biso   1.000  H
  H60      1.0000 0.09730  0.76820  0.03660  Biso   1.000  H
  H61      1.0000 0.25730  0.81650  0.98550  Biso   1.000  H
  H62      1.0000 0.26800  0.80910  0.03800  Biso   1.000  H
  H63      1.0000 0.94130  0.91970  0.95160  Biso   1.000  H
  H64      1.0000 0.11270  0.94650  0.93950  Biso   1.000  H
  H65      1.0000 0.13450  0.93220  0.04510  Biso   1.000  H
  H66      1.0000 0.97150  0.90580  0.06240  Biso   1.000  H
  H67      1.0000 0.39430  0.96780  0.01360  Biso   1.000  H
  H68      1.0000 0.33260  0.97520  0.05900  Biso   1.000  H
  H69      1.0000 0.33240  0.10350  0.00470  Biso   1.000  H
  H70      1.0000 0.33240  0.11580  0.05690  Biso   1.000  H
  H71      1.0000 0.85890  0.76760  0.99770  Biso   1.000  H
  H72      1.0000 0.91680  0.77620  0.95200  Biso   1.000  H
  Pr3      1.0000 0.73723  0.03767  0.47996  Biso   1.000  Pr
  O13      1.0000 0.77630  0.04330  0.56560  Biso   1.000  O
  O14      1.0000 0.01490  0.00510  0.54850  Biso   1.000  O
  C41      1.0000 0.93020  0.02600  0.57780  Biso   1.000  C
  C42      1.0000 0.02350  0.03370  0.62750  Biso   1.000  C
  C43      1.0000 0.90240  0.08060  0.65430  Biso   1.000  C
  N9       1.0000 0.97660  0.09770  0.70450  Biso   1.000  N
  C44      1.0000 0.00270  0.00940  0.73250  Biso   1.000  C
  C45      1.0000 0.09110  0.03230  0.78210  Biso   1.000  C
  C46      1.0000 0.14360  0.15000  0.71270  Biso   1.000  C
  C47      1.0000 0.19090  0.18450  0.76290  Biso   1.000  C
  C48      1.0000 0.85210  0.16020  0.72220  Biso   1.000  C
  C49      1.0000 0.90390  0.16450  0.77460  Biso   1.000  C
  N10      1.0000 0.08450  0.13500  0.79080  Biso   1.000  N
  C50      1.0000 0.14630  0.15360  0.84150  Biso   1.000  C
  C51      1.0000 0.16090  0.25700  0.85380  Biso   1.000  C
  C52      1.0000 0.21000  0.27330  0.90500  Biso   1.000  C
  O15      1.0000 0.25870  0.20810  0.93150  Biso   1.000  O
  O16      1.0000 0.68880  0.14490  0.41730  Biso   1.000  O
  O17      1.0000 0.76600  0.86290  0.48810  Biso   1.000  O
  O18      1.0000 0.52470  0.90360  0.50460  Biso   1.000  O
  C53      1.0000 0.62860  0.84220  0.49870  Biso   1.000  C
  C54      1.0000 0.58100  0.74300  0.50410  Biso   1.000  C
  C55      1.0000 0.69270  0.67800  0.50880  Biso   1.000  C
  N11      1.0000 0.63630  0.57330  0.51050  Biso   1.000  N
  C56      1.0000 0.54220  0.54330  0.46100  Biso   1.000  C
  C57      1.0000 0.51370  0.55970  0.53970  Biso   1.000  C
  C58      1.0000 0.80080  0.51320  0.52640  Biso   1.000  C
  C59      1.0000 0.78180  0.41750  0.52920  Biso   1.000  C
  N12      1.0000 0.40810  0.59560  0.48430  Biso   1.000  N
  C60      1.0000 0.44270  0.70440  0.48370  Biso   1.000  C
  H73      1.0000 0.05550  0.97280  0.63990  Biso   1.000  H
  H74      1.0000 0.12320  0.07160  0.63010  Biso   1.000  H
  H75      1.0000 0.80580  0.04030  0.65180  Biso   1.000  H
  H76      1.0000 0.86660  0.13930  0.63970  Biso   1.000  H
  H77      1.0000 0.89490  0.98060  0.73180  Biso   1.000  H
  H78      1.0000 0.07250  0.96730  0.71980  Biso   1.000  H
  H79      1.0000 0.20760  0.01280  0.78770  Biso   1.000  H
  H80      1.0000 0.03510  0.99990  0.80260  Biso   1.000  H
  H81      1.0000 0.23000  0.10940  0.70640  Biso   1.000  H
  H82      1.0000 0.13110  0.20300  0.69250  Biso   1.000  H
  H83      1.0000 0.17600  0.25090  0.76410  Biso   1.000  H
  H84      1.0000 0.30770  0.16910  0.77560  Biso   1.000  H
  H85      1.0000 0.85200  0.22150  0.70920  Biso   1.000  H
  H86      1.0000 0.74050  0.13360  0.71310  Biso   1.000  H
  H87      1.0000 0.83290  0.12420  0.78790  Biso   1.000  H
  H88      1.0000 0.89230  0.22760  0.78430  Biso   1.000  H
  H89      1.0000 0.07210  0.12540  0.85870  Biso   1.000  H
  H90      1.0000 0.25640  0.12550  0.85140  Biso   1.000  H
  H91      1.0000 0.24650  0.28420  0.84010  Biso   1.000  H
  H92      1.0000 0.05340  0.28590  0.84100  Biso   1.000  H
  H93      1.0000 0.53250  0.73950  0.53070  Biso   1.000  H
  H94      1.0000 0.49150  0.72790  0.47800  Biso   1.000  H
  H95      1.0000 0.66620  0.70720  0.49390  Biso   1.000  H
  H96      1.0000 0.59730  0.73180  0.53660  Biso   1.000  H
  H97      1.0000 0.75730  0.68350  0.48550  Biso   1.000  H
  H98      1.0000 0.76800  0.69090  0.53800  Biso   1.000  H
  H99      1.0000 0.44130  0.58030  0.45160  Biso   1.000  H
  H100     1.0000 0.61270  0.55350  0.43950  Biso   1.000  H
  H101     1.0000 0.63450  0.56780  0.54510  Biso   1.000  H
  H102     1.0000 0.47150  0.59420  0.56240  Biso   1.000  H
  H103     1.0000 0.89430  0.53220  0.51360  Biso   1.000  H
  H104     1.0000 0.83260  0.52480  0.55900  Biso   1.000  H
  H105     1.0000 0.83240  0.39650  0.50470  Biso   1.000  H
  H106     1.0000 0.83240  0.38420  0.55690  Biso   1.000  H
  H107     1.0000 0.35890  0.73240  0.49770  Biso   1.000  H
  H108     1.0000 0.41680  0.72380  0.45200  Biso   1.000  H
  Pr4      1.0000 0.76277  0.53767  0.02004  Biso   1.000  Pr
  O19      1.0000 0.72370  0.54330  0.93440  Biso   1.000  O
  O20      1.0000 0.48510  0.50510  0.95150  Biso   1.000  O
  C61      1.0000 0.56980  0.52600  0.92220  Biso   1.000  C
  C62      1.0000 0.47650  0.53370  0.87250  Biso   1.000  C
  C63      1.0000 0.59760  0.58060  0.84570  Biso   1.000  C
  N13      1.0000 0.52340  0.59770  0.79550  Biso   1.000  N
  C64      1.0000 0.49730  0.50940  0.76750  Biso   1.000  C
  C65      1.0000 0.40890  0.53230  0.71790  Biso   1.000  C
  C66      1.0000 0.35640  0.65000  0.78730  Biso   1.000  C
  C67      1.0000 0.30910  0.68450  0.73710  Biso   1.000  C
  C68      1.0000 0.64790  0.66020  0.77780  Biso   1.000  C
  C69      1.0000 0.59610  0.66450  0.72540  Biso   1.000  C
  N14      1.0000 0.41550  0.63500  0.70920  Biso   1.000  N
  C70      1.0000 0.35370  0.65360  0.65850  Biso   1.000  C
  C71      1.0000 0.33910  0.75700  0.64620  Biso   1.000  C
  C72      1.0000 0.29000  0.77330  0.59500  Biso   1.000  C
  O21      1.0000 0.24130  0.70810  0.56850  Biso   1.000  O
  O22      1.0000 0.81120  0.64490  0.08270  Biso   1.000  O
  O23      1.0000 0.73400  0.36290  0.01190  Biso   1.000  O
  O24      1.0000 0.97530  0.40360  0.99540  Biso   1.000  O
  C73      1.0000 0.87140  0.34220  0.00130  Biso   1.000  C
  C74      1.0000 0.91900  0.24300  0.99590  Biso   1.000  C
  C75      1.0000 0.80730  0.17800  0.99120  Biso   1.000  C
  N15      1.0000 0.86370  0.07330  0.98950  Biso   1.000  N
  C76      1.0000 0.95780  0.04330  0.03900  Biso   1.000  C
  C77      1.0000 0.98630  0.05970  0.96030  Biso   1.000  C
  C78      1.0000 0.69920  0.01320  0.97360  Biso   1.000  C
  C79      1.0000 0.71820  0.91750  0.97080  Biso   1.000  C
  N16      1.0000 0.09190  0.09560  0.01570  Biso   1.000  N
  C80      1.0000 0.05730  0.20440  0.01630  Biso   1.000  C
  H109     1.0000 0.44450  0.47280  0.86010  Biso   1.000  H
  H110     1.0000 0.37680  0.57160  0.86990  Biso   1.000  H
  H111     1.0000 0.69420  0.54030  0.84820  Biso   1.000  H
  H112     1.0000 0.63340  0.63930  0.86030  Biso   1.000  H
  H113     1.0000 0.60510  0.48060  0.76820  Biso   1.000  H
  H114     1.0000 0.42750  0.46730  0.78020  Biso   1.000  H
  H115     1.0000 0.29240  0.51280  0.71230  Biso   1.000  H
  H116     1.0000 0.46490  0.49990  0.69740  Biso   1.000  H
  H117     1.0000 0.27000  0.60940  0.79360  Biso   1.000  H
  H118     1.0000 0.36890  0.70300  0.80750  Biso   1.000  H
  H119     1.0000 0.32400  0.75090  0.73590  Biso   1.000  H
  H120     1.0000 0.19230  0.66910  0.72440  Biso   1.000  H
  H121     1.0000 0.64800  0.72150  0.79080  Biso   1.000  H
  H122     1.0000 0.75950  0.63360  0.78690  Biso   1.000  H
  H123     1.0000 0.66710  0.62420  0.71210  Biso   1.000  H
  H124     1.0000 0.60770  0.72760  0.71570  Biso   1.000  H
  H125     1.0000 0.42790  0.62540  0.64130  Biso   1.000  H
  H126     1.0000 0.24360  0.62550  0.64860  Biso   1.000  H
  H127     1.0000 0.25350  0.78420  0.65990  Biso   1.000  H
  H128     1.0000 0.44660  0.78590  0.65900  Biso   1.000  H
  H129     1.0000 0.96750  0.23950  0.96930  Biso   1.000  H
  H130     1.0000 0.00850  0.22790  0.02200  Biso   1.000  H
  H131     1.0000 0.83380  0.20720  0.00610  Biso   1.000  H
  H132     1.0000 0.90270  0.23180  0.96340  Biso   1.000  H
  H133     1.0000 0.74270  0.18350  0.01450  Biso   1.000  H
  H134     1.0000 0.73200  0.19090  0.96200  Biso   1.000  H
  H135     1.0000 0.05870  0.08030  0.04840  Biso   1.000  H
  H136     1.0000 0.88730  0.05350  0.06050  Biso   1.000  H
  H137     1.0000 0.86550  0.06780  0.95490  Biso   1.000  H
  H138     1.0000 0.02850  0.09420  0.93760  Biso   1.000  H
  H139     1.0000 0.60570  0.03220  0.98640  Biso   1.000  H
  H140     1.0000 0.66740  0.02480  0.94100  Biso   1.000  H
  H141     1.0000 0.66760  0.89650  0.99530  Biso   1.000  H
  H142     1.0000 0.66760  0.88420  0.94310  Biso   1.000  H
  H143     1.0000 0.14110  0.23240  0.00230  Biso   1.000  H
  H144     1.0000 0.08320  0.22380  0.04800  Biso   1.000  H
