data_image0
_cell_length_a       15.216
_cell_length_b       15.216
_cell_length_c       18.65
_cell_angle_alpha    90
_cell_angle_beta     90
_cell_angle_gamma    120

_symmetry_space_group_name_H-M    "P 1"
_symmetry_int_tables_number       1

loop_
  _symmetry_equiv_pos_as_xyz
  'x, y, z'

loop_
  _atom_site_label
  _atom_site_occupancy
  _atom_site_fract_x
  _atom_site_fract_y
  _atom_site_fract_z
  _atom_site_thermal_displace_type
  _atom_site_B_iso_or_equiv
  _atom_site_type_symbol
  N1       1.0000 0.97140  0.60220  0.72700  Biso   1.000  N
  N2       1.0000 0.89120  0.79340  0.91190  Biso   1.000  N
  C1       1.0000 0.97500  0.69150  0.72460  Biso   1.000  C
  C2       1.0000 0.92230  0.84950  0.85200  Biso   1.000  C
  H1       1.0000 0.92490  0.91310  0.85170  Biso   1.000  H
  C3       1.0000 0.95060  0.81970  0.79100  Biso   1.000  C
  H2       1.0000 0.97130  0.86160  0.74960  Biso   1.000  H
  C4       1.0000 0.94870  0.72880  0.79050  Biso   1.000  C
  C5       1.0000 0.91560  0.66820  0.85180  Biso   1.000  C
  H3       1.0000 0.91090  0.60350  0.85290  Biso   1.000  H
  C6       1.0000 0.88990  0.70560  0.91090  Biso   1.000  C
  H4       1.0000 0.87000  0.66590  0.95340  Biso   1.000  H
  C7       1.0000 0.96720  0.41610  0.72710  Biso   1.000  C
  H5       1.0000 0.94370  0.43400  0.76880  Biso   1.000  H
  C8       1.0000 0.97010  0.32570  0.72410  Biso   1.000  C
  H6       1.0000 0.94960  0.28310  0.76520  Biso   1.000  H
  O1       1.0000 0.22040  0.12750  0.39780  Biso   1.000  O
  N3       1.0000 0.13720  0.13110  0.39610  Biso   1.000  N
  O2       1.0000 0.06140  0.06070  0.35980  Biso   1.000  O
  O3       1.0000 0.12810  0.19880  0.42480  Biso   1.000  O
  N4       1.0000 0.82580  0.99980  0.93040  Biso   1.000  N
  O4       1.0000 0.91560  0.04320  0.94060  Biso   1.000  O
  O5       1.0000 0.78250  0.04760  0.91150  Biso   1.000  O
  N5       1.0000 0.39780  0.36920  0.06033  Biso   1.000  N
  N6       1.0000 0.20660  0.09780  0.24523  Biso   1.000  N
  C9       1.0000 0.30850  0.28350  0.05793  Biso   1.000  C
  C10      1.0000 0.15050  0.07280  0.18533  Biso   1.000  C
  H7       1.0000 0.08690  0.01180  0.18503  Biso   1.000  H
  C11      1.0000 0.18030  0.13090  0.12433  Biso   1.000  C
  H8       1.0000 0.13840  0.10970  0.08293  Biso   1.000  H
  C12      1.0000 0.27120  0.21990  0.12383  Biso   1.000  C
  C13      1.0000 0.33180  0.24740  0.18513  Biso   1.000  C
  H9       1.0000 0.39650  0.30740  0.18623  Biso   1.000  H
  C14      1.0000 0.29440  0.18430  0.24423  Biso   1.000  C
  H10      1.0000 0.33410  0.20410  0.28673  Biso   1.000  H
  C15      1.0000 0.58390  0.55110  0.06043  Biso   1.000  C
  H11      1.0000 0.56600  0.50970  0.10213  Biso   1.000  H
  C16      1.0000 0.67430  0.64440  0.05743  Biso   1.000  C
  H12      1.0000 0.71690  0.66650  0.09853  Biso   1.000  H
  O6       1.0000 0.87250  0.09290  0.73113  Biso   1.000  O
  N7       1.0000 0.86890  0.00610  0.72943  Biso   1.000  N
  O7       1.0000 0.93930  0.00070  0.69313  Biso   1.000  O
  O8       1.0000 0.80120  0.92930  0.75813  Biso   1.000  O
  N8       1.0000 0.00020  0.82600  0.26373  Biso   1.000  N
  O9       1.0000 0.95680  0.87240  0.27393  Biso   1.000  O
  O10      1.0000 0.95240  0.73490  0.24483  Biso   1.000  O
  N9       1.0000 0.63080  0.02860  0.39367  Biso   1.000  N
  N10      1.0000 0.90220  0.10880  0.57857  Biso   1.000  N
  C17      1.0000 0.71650  0.02500  0.39127  Biso   1.000  C
  C18      1.0000 0.92720  0.07770  0.51867  Biso   1.000  C
  H13      1.0000 0.98820  0.07510  0.51837  Biso   1.000  H
  C19      1.0000 0.86910  0.04940  0.45767  Biso   1.000  C
  H14      1.0000 0.89030  0.02870  0.41627  Biso   1.000  H
  C20      1.0000 0.78010  0.05130  0.45717  Biso   1.000  C
  C21      1.0000 0.75260  0.08440  0.51847  Biso   1.000  C
  H15      1.0000 0.69260  0.08910  0.51957  Biso   1.000  H
  C22      1.0000 0.81570  0.11010  0.57757  Biso   1.000  C
  H16      1.0000 0.79590  0.13000  0.62007  Biso   1.000  H
  C23      1.0000 0.44890  0.03280  0.39377  Biso   1.000  C
  H17      1.0000 0.49030  0.05630  0.43547  Biso   1.000  H
  C24      1.0000 0.35560  0.02990  0.39077  Biso   1.000  C
  H18      1.0000 0.33350  0.05040  0.43187  Biso   1.000  H
  O11      1.0000 0.90710  0.77960  0.06447  Biso   1.000  O
  N11      1.0000 0.99390  0.86280  0.06277  Biso   1.000  N
  O12      1.0000 0.99930  0.93860  0.02647  Biso   1.000  O
  O13      1.0000 0.07070  0.87190  0.09147  Biso   1.000  O
  N12      1.0000 0.17400  0.17420  0.59707  Biso   1.000  N
  O14      1.0000 0.12760  0.08440  0.60727  Biso   1.000  O
  O15      1.0000 0.26510  0.21750  0.57817  Biso   1.000  O
  N13      1.0000 0.60220  0.97140  0.27300  Biso   1.000  N
  N14      1.0000 0.79340  0.89120  0.08810  Biso   1.000  N
  C25      1.0000 0.69150  0.97500  0.27540  Biso   1.000  C
  C26      1.0000 0.84950  0.92230  0.14800  Biso   1.000  C
  H19      1.0000 0.91310  0.92490  0.14830  Biso   1.000  H
  C27      1.0000 0.81970  0.95060  0.20900  Biso   1.000  C
  H20      1.0000 0.86160  0.97130  0.25040  Biso   1.000  H
  C28      1.0000 0.72880  0.94870  0.20950  Biso   1.000  C
  C29      1.0000 0.66820  0.91560  0.14820  Biso   1.000  C
  H21      1.0000 0.60350  0.91090  0.14710  Biso   1.000  H
  C30      1.0000 0.70560  0.88990  0.08910  Biso   1.000  C
  H22      1.0000 0.66590  0.87000  0.04660  Biso   1.000  H
  C31      1.0000 0.41610  0.96720  0.27290  Biso   1.000  C
  H23      1.0000 0.43400  0.94370  0.23120  Biso   1.000  H
  C32      1.0000 0.32570  0.97010  0.27590  Biso   1.000  C
  H24      1.0000 0.28310  0.94960  0.23480  Biso   1.000  H
  O16      1.0000 0.12750  0.22040  0.60220  Biso   1.000  O
  N15      1.0000 0.13110  0.13720  0.60390  Biso   1.000  N
  O17      1.0000 0.06070  0.06140  0.64020  Biso   1.000  O
  O18      1.0000 0.19880  0.12810  0.57520  Biso   1.000  O
  N16      1.0000 0.99980  0.82580  0.06960  Biso   1.000  N
  O19      1.0000 0.04320  0.91560  0.05940  Biso   1.000  O
  O20      1.0000 0.04760  0.78250  0.08850  Biso   1.000  O
  N17      1.0000 0.36920  0.39780  0.93967  Biso   1.000  N
  N18      1.0000 0.09780  0.20660  0.75477  Biso   1.000  N
  C33      1.0000 0.28350  0.30850  0.94207  Biso   1.000  C
  C34      1.0000 0.07280  0.15050  0.81467  Biso   1.000  C
  H25      1.0000 0.01180  0.08690  0.81497  Biso   1.000  H
  C35      1.0000 0.13090  0.18030  0.87567  Biso   1.000  C
  H26      1.0000 0.10970  0.13840  0.91707  Biso   1.000  H
  C36      1.0000 0.21990  0.27120  0.87617  Biso   1.000  C
  C37      1.0000 0.24740  0.33180  0.81487  Biso   1.000  C
  H27      1.0000 0.30740  0.39650  0.81377  Biso   1.000  H
  C38      1.0000 0.18430  0.29440  0.75577  Biso   1.000  C
  H28      1.0000 0.20410  0.33410  0.71327  Biso   1.000  H
  C39      1.0000 0.55110  0.58390  0.93957  Biso   1.000  C
  H29      1.0000 0.50970  0.56600  0.89787  Biso   1.000  H
  C40      1.0000 0.64440  0.67430  0.94257  Biso   1.000  C
  H30      1.0000 0.66650  0.71690  0.90147  Biso   1.000  H
  O21      1.0000 0.09290  0.87250  0.26887  Biso   1.000  O
  N19      1.0000 0.00610  0.86890  0.27057  Biso   1.000  N
  O22      1.0000 0.00070  0.93930  0.30687  Biso   1.000  O
  O23      1.0000 0.92930  0.80120  0.24187  Biso   1.000  O
  N20      1.0000 0.82600  0.00020  0.73627  Biso   1.000  N
  O24      1.0000 0.87240  0.95680  0.72607  Biso   1.000  O
  O25      1.0000 0.73490  0.95240  0.75517  Biso   1.000  O
  N21      1.0000 0.02860  0.63080  0.60633  Biso   1.000  N
  N22      1.0000 0.10880  0.90220  0.42143  Biso   1.000  N
  C41      1.0000 0.02500  0.71650  0.60873  Biso   1.000  C
  C42      1.0000 0.07770  0.92720  0.48133  Biso   1.000  C
  H31      1.0000 0.07510  0.98820  0.48163  Biso   1.000  H
  C43      1.0000 0.04940  0.86910  0.54233  Biso   1.000  C
  H32      1.0000 0.02870  0.89030  0.58373  Biso   1.000  H
  C44      1.0000 0.05130  0.78010  0.54283  Biso   1.000  C
  C45      1.0000 0.08440  0.75260  0.48153  Biso   1.000  C
  H33      1.0000 0.08910  0.69260  0.48043  Biso   1.000  H
  C46      1.0000 0.11010  0.81570  0.42243  Biso   1.000  C
  H34      1.0000 0.13000  0.79590  0.37993  Biso   1.000  H
  C47      1.0000 0.03280  0.44890  0.60623  Biso   1.000  C
  H35      1.0000 0.05630  0.49030  0.56453  Biso   1.000  H
  C48      1.0000 0.02990  0.35560  0.60923  Biso   1.000  C
  H36      1.0000 0.05040  0.33350  0.56813  Biso   1.000  H
  O26      1.0000 0.77960  0.90710  0.93553  Biso   1.000  O
  N23      1.0000 0.86280  0.99390  0.93723  Biso   1.000  N
  O27      1.0000 0.93860  0.99930  0.97353  Biso   1.000  O
  O28      1.0000 0.87190  0.07070  0.90853  Biso   1.000  O
  N24      1.0000 0.17420  0.17400  0.40293  Biso   1.000  N
  O29      1.0000 0.08440  0.12760  0.39273  Biso   1.000  O
  O30      1.0000 0.21750  0.26510  0.42183  Biso   1.000  O
  Ni1      1.0000 0.16166  0.00000  0.33333  Biso   1.000  Ni
  Ni2      1.0000 0.00000  0.16166  0.66667  Biso   1.000  Ni
  Ni3      1.0000 0.83834  0.83834  0.00000  Biso   1.000  Ni
  N25      1.0000 0.00000  0.75070  0.66667  Biso   1.000  N
  N26      1.0000 0.00000  0.29720  0.66667  Biso   1.000  N
  C49      1.0000 0.00000  0.57650  0.66667  Biso   1.000  C
  C50      1.0000 0.00000  0.47950  0.66667  Biso   1.000  C
  N27      1.0000 0.24930  0.24930  0.00000  Biso   1.000  N
  N28      1.0000 0.70280  0.70280  0.00000  Biso   1.000  N
  C51      1.0000 0.42350  0.42350  0.00000  Biso   1.000  C
  C52      1.0000 0.52050  0.52050  0.00000  Biso   1.000  C
  N29      1.0000 0.75070  0.00000  0.33333  Biso   1.000  N
  N30      1.0000 0.29720  0.00000  0.33333  Biso   1.000  N
  C53      1.0000 0.57650  0.00000  0.33333  Biso   1.000  C
  C54      1.0000 0.47950  0.00000  0.33333  Biso   1.000  C
