data_image0
_cell_length_a       13.518
_cell_length_b       13.518
_cell_length_c       26.42
_cell_angle_alpha    90
_cell_angle_beta     90
_cell_angle_gamma    90

_symmetry_space_group_name_H-M    "P 1"
_symmetry_int_tables_number       1

loop_
  _symmetry_equiv_pos_as_xyz
  'x, y, z'

loop_
  _atom_site_label
  _atom_site_occupancy
  _atom_site_fract_x
  _atom_site_fract_y
  _atom_site_fract_z
  _atom_site_thermal_displace_type
  _atom_site_B_iso_or_equiv
  _atom_site_type_symbol
  Zn1      1.0000 0.65982  0.77207  0.30357  Biso   1.000  Zn
  N1       1.0000 0.37130  0.78910  0.24710  Biso   1.000  N
  N2       1.0000 0.35850  0.72390  0.28610  Biso   1.000  N
  N3       1.0000 0.51540  0.76500  0.28520  Biso   1.000  N
  O1       1.0000 0.61480  0.70680  0.38840  Biso   1.000  O
  O2       1.0000 0.70650  0.83080  0.36750  Biso   1.000  O
  C1       1.0000 0.46690  0.81400  0.24870  Biso   1.000  C
  H1       1.0000 0.49620  0.85980  0.22710  Biso   1.000  H
  C2       1.0000 0.44280  0.70830  0.30740  Biso   1.000  C
  H2       1.0000 0.45320  0.66470  0.33410  Biso   1.000  H
  C3       1.0000 0.66820  0.77720  0.39950  Biso   1.000  C
  C4       1.0000 0.69170  0.80000  0.45420  Biso   1.000  C
  C5       1.0000 0.77270  0.85040  0.47180  Biso   1.000  C
  H3       1.0000 0.82050  0.88020  0.45160  Biso   1.000  H
  C6       1.0000 0.73550  0.87560  0.47140  Biso   1.000  C
  H4       1.0000 0.76400  0.92470  0.45140  Biso   1.000  H
  Zn2      1.0000 0.15982  0.27207  0.80357  Biso   1.000  Zn
  N4       1.0000 0.87130  0.28910  0.74710  Biso   1.000  N
  N5       1.0000 0.85850  0.22390  0.78610  Biso   1.000  N
  N6       1.0000 0.01540  0.26500  0.78520  Biso   1.000  N
  O3       1.0000 0.11480  0.20680  0.88840  Biso   1.000  O
  O4       1.0000 0.20650  0.33080  0.86750  Biso   1.000  O
  C7       1.0000 0.96690  0.31400  0.74870  Biso   1.000  C
  H5       1.0000 0.99620  0.35980  0.72710  Biso   1.000  H
  C8       1.0000 0.94280  0.20830  0.80740  Biso   1.000  C
  H6       1.0000 0.95320  0.16470  0.83410  Biso   1.000  H
  C9       1.0000 0.16820  0.27720  0.89950  Biso   1.000  C
  C10      1.0000 0.19170  0.30000  0.95420  Biso   1.000  C
  C11      1.0000 0.27270  0.35040  0.97180  Biso   1.000  C
  H7       1.0000 0.32050  0.38020  0.95160  Biso   1.000  H
  C12      1.0000 0.23550  0.37560  0.97140  Biso   1.000  C
  H8       1.0000 0.26400  0.42470  0.95140  Biso   1.000  H
  Zn3      1.0000 0.34018  0.22793  0.30357  Biso   1.000  Zn
  N7       1.0000 0.62870  0.21090  0.24710  Biso   1.000  N
  N8       1.0000 0.64150  0.27610  0.28610  Biso   1.000  N
  N9       1.0000 0.48460  0.23500  0.28520  Biso   1.000  N
  O5       1.0000 0.38520  0.29320  0.38840  Biso   1.000  O
  O6       1.0000 0.29350  0.16920  0.36750  Biso   1.000  O
  C13      1.0000 0.53310  0.18600  0.24870  Biso   1.000  C
  H9       1.0000 0.50380  0.14020  0.22710  Biso   1.000  H
  C14      1.0000 0.55720  0.29170  0.30740  Biso   1.000  C
  H10      1.0000 0.54680  0.33530  0.33410  Biso   1.000  H
  C15      1.0000 0.33180  0.22280  0.39950  Biso   1.000  C
  C16      1.0000 0.30830  0.20000  0.45420  Biso   1.000  C
  C17      1.0000 0.22730  0.14960  0.47180  Biso   1.000  C
  H11      1.0000 0.17950  0.11980  0.45160  Biso   1.000  H
  C18      1.0000 0.26450  0.12440  0.47140  Biso   1.000  C
  H12      1.0000 0.23600  0.07530  0.45140  Biso   1.000  H
  Zn4      1.0000 0.84018  0.72793  0.80357  Biso   1.000  Zn
  N10      1.0000 0.12870  0.71090  0.74710  Biso   1.000  N
  N11      1.0000 0.14150  0.77610  0.78610  Biso   1.000  N
  N12      1.0000 0.98460  0.73500  0.78520  Biso   1.000  N
  O7       1.0000 0.88520  0.79320  0.88840  Biso   1.000  O
  O8       1.0000 0.79350  0.66920  0.86750  Biso   1.000  O
  C19      1.0000 0.03310  0.68600  0.74870  Biso   1.000  C
  H13      1.0000 0.00380  0.64020  0.72710  Biso   1.000  H
  C20      1.0000 0.05720  0.79170  0.80740  Biso   1.000  C
  H14      1.0000 0.04680  0.83530  0.83410  Biso   1.000  H
  C21      1.0000 0.83180  0.72280  0.89950  Biso   1.000  C
  C22      1.0000 0.80830  0.70000  0.95420  Biso   1.000  C
  C23      1.0000 0.72730  0.64960  0.97180  Biso   1.000  C
  H15      1.0000 0.67950  0.61980  0.95160  Biso   1.000  H
  C24      1.0000 0.76450  0.62440  0.97140  Biso   1.000  C
  H16      1.0000 0.73600  0.57530  0.95140  Biso   1.000  H
  Zn5      1.0000 0.22793  0.65982  0.30357  Biso   1.000  Zn
  N13      1.0000 0.21090  0.37130  0.24710  Biso   1.000  N
  N14      1.0000 0.27610  0.35850  0.28610  Biso   1.000  N
  N15      1.0000 0.23500  0.51540  0.28520  Biso   1.000  N
  O9       1.0000 0.29320  0.61480  0.38840  Biso   1.000  O
  O10      1.0000 0.16920  0.70650  0.36750  Biso   1.000  O
  C25      1.0000 0.18600  0.46690  0.24870  Biso   1.000  C
  H17      1.0000 0.14020  0.49620  0.22710  Biso   1.000  H
  C26      1.0000 0.29170  0.44280  0.30740  Biso   1.000  C
  H18      1.0000 0.33530  0.45320  0.33410  Biso   1.000  H
  C27      1.0000 0.22280  0.66820  0.39950  Biso   1.000  C
  C28      1.0000 0.20000  0.69170  0.45420  Biso   1.000  C
  C29      1.0000 0.14960  0.77270  0.47180  Biso   1.000  C
  H19      1.0000 0.11980  0.82050  0.45160  Biso   1.000  H
  C30      1.0000 0.12440  0.73550  0.47140  Biso   1.000  C
  H20      1.0000 0.07530  0.76400  0.45140  Biso   1.000  H
  Zn6      1.0000 0.72793  0.15982  0.80357  Biso   1.000  Zn
  N16      1.0000 0.71090  0.87130  0.74710  Biso   1.000  N
  N17      1.0000 0.77610  0.85850  0.78610  Biso   1.000  N
  N18      1.0000 0.73500  0.01540  0.78520  Biso   1.000  N
  O11      1.0000 0.79320  0.11480  0.88840  Biso   1.000  O
  O12      1.0000 0.66920  0.20650  0.86750  Biso   1.000  O
  C31      1.0000 0.68600  0.96690  0.74870  Biso   1.000  C
  H21      1.0000 0.64020  0.99620  0.72710  Biso   1.000  H
  C32      1.0000 0.79170  0.94280  0.80740  Biso   1.000  C
  H22      1.0000 0.83530  0.95320  0.83410  Biso   1.000  H
  C33      1.0000 0.72280  0.16820  0.89950  Biso   1.000  C
  C34      1.0000 0.70000  0.19170  0.95420  Biso   1.000  C
  C35      1.0000 0.64960  0.27270  0.97180  Biso   1.000  C
  H23      1.0000 0.61980  0.32050  0.95160  Biso   1.000  H
  C36      1.0000 0.62440  0.23550  0.97140  Biso   1.000  C
  H24      1.0000 0.57530  0.26400  0.95140  Biso   1.000  H
  Zn7      1.0000 0.77207  0.34018  0.30357  Biso   1.000  Zn
  N19      1.0000 0.78910  0.62870  0.24710  Biso   1.000  N
  N20      1.0000 0.72390  0.64150  0.28610  Biso   1.000  N
  N21      1.0000 0.76500  0.48460  0.28520  Biso   1.000  N
  O13      1.0000 0.70680  0.38520  0.38840  Biso   1.000  O
  O14      1.0000 0.83080  0.29350  0.36750  Biso   1.000  O
  C37      1.0000 0.81400  0.53310  0.24870  Biso   1.000  C
  H25      1.0000 0.85980  0.50380  0.22710  Biso   1.000  H
  C38      1.0000 0.70830  0.55720  0.30740  Biso   1.000  C
  H26      1.0000 0.66470  0.54680  0.33410  Biso   1.000  H
  C39      1.0000 0.77720  0.33180  0.39950  Biso   1.000  C
  C40      1.0000 0.80000  0.30830  0.45420  Biso   1.000  C
  C41      1.0000 0.85040  0.22730  0.47180  Biso   1.000  C
  H27      1.0000 0.88020  0.17950  0.45160  Biso   1.000  H
  C42      1.0000 0.87560  0.26450  0.47140  Biso   1.000  C
  H28      1.0000 0.92470  0.23600  0.45140  Biso   1.000  H
  Zn8      1.0000 0.27207  0.84018  0.80357  Biso   1.000  Zn
  N22      1.0000 0.28910  0.12870  0.74710  Biso   1.000  N
  N23      1.0000 0.22390  0.14150  0.78610  Biso   1.000  N
  N24      1.0000 0.26500  0.98460  0.78520  Biso   1.000  N
  O15      1.0000 0.20680  0.88520  0.88840  Biso   1.000  O
  O16      1.0000 0.33080  0.79350  0.86750  Biso   1.000  O
  C43      1.0000 0.31400  0.03310  0.74870  Biso   1.000  C
  H29      1.0000 0.35980  0.00380  0.72710  Biso   1.000  H
  C44      1.0000 0.20830  0.05720  0.80740  Biso   1.000  C
  H30      1.0000 0.16470  0.04680  0.83410  Biso   1.000  H
  C45      1.0000 0.27720  0.83180  0.89950  Biso   1.000  C
  C46      1.0000 0.30000  0.80830  0.95420  Biso   1.000  C
  C47      1.0000 0.35040  0.72730  0.97180  Biso   1.000  C
  H31      1.0000 0.38020  0.67950  0.95160  Biso   1.000  H
  C48      1.0000 0.37560  0.76450  0.97140  Biso   1.000  C
  H32      1.0000 0.42470  0.73600  0.95140  Biso   1.000  H
  Zn9      1.0000 0.34018  0.22793  0.69643  Biso   1.000  Zn
  N25      1.0000 0.62870  0.21090  0.75290  Biso   1.000  N
  N26      1.0000 0.64150  0.27610  0.71390  Biso   1.000  N
  N27      1.0000 0.48460  0.23500  0.71480  Biso   1.000  N
  O17      1.0000 0.38520  0.29320  0.61160  Biso   1.000  O
  O18      1.0000 0.29350  0.16920  0.63250  Biso   1.000  O
  C49      1.0000 0.53310  0.18600  0.75130  Biso   1.000  C
  H33      1.0000 0.50380  0.14020  0.77290  Biso   1.000  H
  C50      1.0000 0.55720  0.29170  0.69260  Biso   1.000  C
  H34      1.0000 0.54680  0.33530  0.66590  Biso   1.000  H
  C51      1.0000 0.33180  0.22280  0.60050  Biso   1.000  C
  C52      1.0000 0.30830  0.20000  0.54580  Biso   1.000  C
  C53      1.0000 0.22730  0.14960  0.52820  Biso   1.000  C
  H35      1.0000 0.17950  0.11980  0.54840  Biso   1.000  H
  C54      1.0000 0.26450  0.12440  0.52860  Biso   1.000  C
  H36      1.0000 0.23600  0.07530  0.54860  Biso   1.000  H
  Zn10     1.0000 0.84018  0.72793  0.19643  Biso   1.000  Zn
  N28      1.0000 0.12870  0.71090  0.25290  Biso   1.000  N
  N29      1.0000 0.14150  0.77610  0.21390  Biso   1.000  N
  N30      1.0000 0.98460  0.73500  0.21480  Biso   1.000  N
  O19      1.0000 0.88520  0.79320  0.11160  Biso   1.000  O
  O20      1.0000 0.79350  0.66920  0.13250  Biso   1.000  O
  C55      1.0000 0.03310  0.68600  0.25130  Biso   1.000  C
  H37      1.0000 0.00380  0.64020  0.27290  Biso   1.000  H
  C56      1.0000 0.05720  0.79170  0.19260  Biso   1.000  C
  H38      1.0000 0.04680  0.83530  0.16590  Biso   1.000  H
  C57      1.0000 0.83180  0.72280  0.10050  Biso   1.000  C
  C58      1.0000 0.80830  0.70000  0.04580  Biso   1.000  C
  C59      1.0000 0.72730  0.64960  0.02820  Biso   1.000  C
  H39      1.0000 0.67950  0.61980  0.04840  Biso   1.000  H
  C60      1.0000 0.76450  0.62440  0.02860  Biso   1.000  C
  H40      1.0000 0.73600  0.57530  0.04860  Biso   1.000  H
  Zn11     1.0000 0.65982  0.77207  0.69643  Biso   1.000  Zn
  N31      1.0000 0.37130  0.78910  0.75290  Biso   1.000  N
  N32      1.0000 0.35850  0.72390  0.71390  Biso   1.000  N
  N33      1.0000 0.51540  0.76500  0.71480  Biso   1.000  N
  O21      1.0000 0.61480  0.70680  0.61160  Biso   1.000  O
  O22      1.0000 0.70650  0.83080  0.63250  Biso   1.000  O
  C61      1.0000 0.46690  0.81400  0.75130  Biso   1.000  C
  H41      1.0000 0.49620  0.85980  0.77290  Biso   1.000  H
  C62      1.0000 0.44280  0.70830  0.69260  Biso   1.000  C
  H42      1.0000 0.45320  0.66470  0.66590  Biso   1.000  H
  C63      1.0000 0.66820  0.77720  0.60050  Biso   1.000  C
  C64      1.0000 0.69170  0.80000  0.54580  Biso   1.000  C
  C65      1.0000 0.77270  0.85040  0.52820  Biso   1.000  C
  H43      1.0000 0.82050  0.88020  0.54840  Biso   1.000  H
  C66      1.0000 0.73550  0.87560  0.52860  Biso   1.000  C
  H44      1.0000 0.76400  0.92470  0.54860  Biso   1.000  H
  Zn12     1.0000 0.15982  0.27207  0.19643  Biso   1.000  Zn
  N34      1.0000 0.87130  0.28910  0.25290  Biso   1.000  N
  N35      1.0000 0.85850  0.22390  0.21390  Biso   1.000  N
  N36      1.0000 0.01540  0.26500  0.21480  Biso   1.000  N
  O23      1.0000 0.11480  0.20680  0.11160  Biso   1.000  O
  O24      1.0000 0.20650  0.33080  0.13250  Biso   1.000  O
  C67      1.0000 0.96690  0.31400  0.25130  Biso   1.000  C
  H45      1.0000 0.99620  0.35980  0.27290  Biso   1.000  H
  C68      1.0000 0.94280  0.20830  0.19260  Biso   1.000  C
  H46      1.0000 0.95320  0.16470  0.16590  Biso   1.000  H
  C69      1.0000 0.16820  0.27720  0.10050  Biso   1.000  C
  C70      1.0000 0.19170  0.30000  0.04580  Biso   1.000  C
  C71      1.0000 0.27270  0.35040  0.02820  Biso   1.000  C
  H47      1.0000 0.32050  0.38020  0.04840  Biso   1.000  H
  C72      1.0000 0.23550  0.37560  0.02860  Biso   1.000  C
  H48      1.0000 0.26400  0.42470  0.04860  Biso   1.000  H
  Zn13     1.0000 0.77207  0.34018  0.69643  Biso   1.000  Zn
  N37      1.0000 0.78910  0.62870  0.75290  Biso   1.000  N
  N38      1.0000 0.72390  0.64150  0.71390  Biso   1.000  N
  N39      1.0000 0.76500  0.48460  0.71480  Biso   1.000  N
  O25      1.0000 0.70680  0.38520  0.61160  Biso   1.000  O
  O26      1.0000 0.83080  0.29350  0.63250  Biso   1.000  O
  C73      1.0000 0.81400  0.53310  0.75130  Biso   1.000  C
  H49      1.0000 0.85980  0.50380  0.77290  Biso   1.000  H
  C74      1.0000 0.70830  0.55720  0.69260  Biso   1.000  C
  H50      1.0000 0.66470  0.54680  0.66590  Biso   1.000  H
  C75      1.0000 0.77720  0.33180  0.60050  Biso   1.000  C
  C76      1.0000 0.80000  0.30830  0.54580  Biso   1.000  C
  C77      1.0000 0.85040  0.22730  0.52820  Biso   1.000  C
  H51      1.0000 0.88020  0.17950  0.54840  Biso   1.000  H
  C78      1.0000 0.87560  0.26450  0.52860  Biso   1.000  C
  H52      1.0000 0.92470  0.23600  0.54860  Biso   1.000  H
  Zn14     1.0000 0.27207  0.84018  0.19643  Biso   1.000  Zn
  N40      1.0000 0.28910  0.12870  0.25290  Biso   1.000  N
  N41      1.0000 0.22390  0.14150  0.21390  Biso   1.000  N
  N42      1.0000 0.26500  0.98460  0.21480  Biso   1.000  N
  O27      1.0000 0.20680  0.88520  0.11160  Biso   1.000  O
  O28      1.0000 0.33080  0.79350  0.13250  Biso   1.000  O
  C79      1.0000 0.31400  0.03310  0.25130  Biso   1.000  C
  H53      1.0000 0.35980  0.00380  0.27290  Biso   1.000  H
  C80      1.0000 0.20830  0.05720  0.19260  Biso   1.000  C
  H54      1.0000 0.16470  0.04680  0.16590  Biso   1.000  H
  C81      1.0000 0.27720  0.83180  0.10050  Biso   1.000  C
  C82      1.0000 0.30000  0.80830  0.04580  Biso   1.000  C
  C83      1.0000 0.35040  0.72730  0.02820  Biso   1.000  C
  H55      1.0000 0.38020  0.67950  0.04840  Biso   1.000  H
  C84      1.0000 0.37560  0.76450  0.02860  Biso   1.000  C
  H56      1.0000 0.42470  0.73600  0.04860  Biso   1.000  H
  Zn15     1.0000 0.22793  0.65982  0.69643  Biso   1.000  Zn
  N43      1.0000 0.21090  0.37130  0.75290  Biso   1.000  N
  N44      1.0000 0.27610  0.35850  0.71390  Biso   1.000  N
  N45      1.0000 0.23500  0.51540  0.71480  Biso   1.000  N
  O29      1.0000 0.29320  0.61480  0.61160  Biso   1.000  O
  O30      1.0000 0.16920  0.70650  0.63250  Biso   1.000  O
  C85      1.0000 0.18600  0.46690  0.75130  Biso   1.000  C
  H57      1.0000 0.14020  0.49620  0.77290  Biso   1.000  H
  C86      1.0000 0.29170  0.44280  0.69260  Biso   1.000  C
  H58      1.0000 0.33530  0.45320  0.66590  Biso   1.000  H
  C87      1.0000 0.22280  0.66820  0.60050  Biso   1.000  C
  C88      1.0000 0.20000  0.69170  0.54580  Biso   1.000  C
  C89      1.0000 0.14960  0.77270  0.52820  Biso   1.000  C
  H59      1.0000 0.11980  0.82050  0.54840  Biso   1.000  H
  C90      1.0000 0.12440  0.73550  0.52860  Biso   1.000  C
  H60      1.0000 0.07530  0.76400  0.54860  Biso   1.000  H
  Zn16     1.0000 0.72793  0.15982  0.19643  Biso   1.000  Zn
  N46      1.0000 0.71090  0.87130  0.25290  Biso   1.000  N
  N47      1.0000 0.77610  0.85850  0.21390  Biso   1.000  N
  N48      1.0000 0.73500  0.01540  0.21480  Biso   1.000  N
  O31      1.0000 0.79320  0.11480  0.11160  Biso   1.000  O
  O32      1.0000 0.66920  0.20650  0.13250  Biso   1.000  O
  C91      1.0000 0.68600  0.96690  0.25130  Biso   1.000  C
  H61      1.0000 0.64020  0.99620  0.27290  Biso   1.000  H
  C92      1.0000 0.79170  0.94280  0.19260  Biso   1.000  C
  H62      1.0000 0.83530  0.95320  0.16590  Biso   1.000  H
  C93      1.0000 0.72280  0.16820  0.10050  Biso   1.000  C
  C94      1.0000 0.70000  0.19170  0.04580  Biso   1.000  C
  C95      1.0000 0.64960  0.27270  0.02820  Biso   1.000  C
  H63      1.0000 0.61980  0.32050  0.04840  Biso   1.000  H
  C96      1.0000 0.62440  0.23550  0.02860  Biso   1.000  C
  H64      1.0000 0.57530  0.26400  0.04860  Biso   1.000  H
  S1       1.0000 0.63160  0.73210  0.50000  Biso   1.000  S
  S2       1.0000 0.13160  0.23210  0.00000  Biso   1.000  S
  S3       1.0000 0.36840  0.26790  0.50000  Biso   1.000  S
  S4       1.0000 0.86840  0.76790  0.00000  Biso   1.000  S
  S5       1.0000 0.26790  0.63160  0.50000  Biso   1.000  S
  S6       1.0000 0.76790  0.13160  0.00000  Biso   1.000  S
  S7       1.0000 0.73210  0.36840  0.50000  Biso   1.000  S
  S8       1.0000 0.23210  0.86840  0.00000  Biso   1.000  S
