data_image0
_cell_length_a       18.483
_cell_length_b       18.483
_cell_length_c       46.758
_cell_angle_alpha    90
_cell_angle_beta     90
_cell_angle_gamma    120

_symmetry_space_group_name_H-M    "P 1"
_symmetry_int_tables_number       1

loop_
  _symmetry_equiv_pos_as_xyz
  'x, y, z'

loop_
  _atom_site_label
  _atom_site_occupancy
  _atom_site_fract_x
  _atom_site_fract_y
  _atom_site_fract_z
  _atom_site_thermal_displace_type
  _atom_site_B_iso_or_equiv
  _atom_site_type_symbol
  O1       1.0000 0.29610  0.44380  0.83124  Biso   1.000  O
  O2       1.0000 0.25460  0.36240  0.86997  Biso   1.000  O
  C1       1.0000 0.30680  0.42590  0.85661  Biso   1.000  C
  C2       1.0000 0.38500  0.48390  0.87041  Biso   1.000  C
  C3       1.0000 0.39860  0.47110  0.89876  Biso   1.000  C
  H1       1.0000 0.35920  0.42330  0.90820  Biso   1.000  H
  C4       1.0000 0.46340  0.43030  0.98240  Biso   1.000  C
  H2       1.0000 0.44310  0.37550  0.99030  Biso   1.000  H
  C5       1.0000 0.45450  0.44200  0.95340  Biso   1.000  C
  H3       1.0000 0.42970  0.39500  0.94070  Biso   1.000  H
  C6       1.0000 0.53300  0.57990  0.98960  Biso   1.000  C
  H4       1.0000 0.56350  0.62780  0.00170  Biso   1.000  H
  C7       1.0000 0.51700  0.58910  0.96110  Biso   1.000  C
  H5       1.0000 0.53710  0.64380  0.95320  Biso   1.000  H
  O3       1.0000 0.96277  0.77713  0.16457  Biso   1.000  O
  O4       1.0000 0.92127  0.69573  0.20330  Biso   1.000  O
  C8       1.0000 0.97347  0.75923  0.18994  Biso   1.000  C
  C9       1.0000 0.05167  0.81723  0.20374  Biso   1.000  C
  C10      1.0000 0.06527  0.80443  0.23209  Biso   1.000  C
  H6       1.0000 0.02587  0.75663  0.24153  Biso   1.000  H
  C11      1.0000 0.13007  0.76363  0.31573  Biso   1.000  C
  H7       1.0000 0.10977  0.70883  0.32363  Biso   1.000  H
  C12      1.0000 0.12117  0.77533  0.28673  Biso   1.000  C
  H8       1.0000 0.09637  0.72833  0.27403  Biso   1.000  H
  C13      1.0000 0.19967  0.91323  0.32293  Biso   1.000  C
  H9       1.0000 0.23017  0.96113  0.33503  Biso   1.000  H
  C14      1.0000 0.18367  0.92243  0.29443  Biso   1.000  C
  H10      1.0000 0.20377  0.97713  0.28653  Biso   1.000  H
  O5       1.0000 0.62943  0.11047  0.49791  Biso   1.000  O
  O6       1.0000 0.58793  0.02907  0.53664  Biso   1.000  O
  C15      1.0000 0.64013  0.09257  0.52328  Biso   1.000  C
  C16      1.0000 0.71833  0.15057  0.53708  Biso   1.000  C
  C17      1.0000 0.73193  0.13777  0.56543  Biso   1.000  C
  H11      1.0000 0.69253  0.08997  0.57487  Biso   1.000  H
  C18      1.0000 0.79673  0.09697  0.64907  Biso   1.000  C
  H12      1.0000 0.77643  0.04217  0.65697  Biso   1.000  H
  C19      1.0000 0.78783  0.10867  0.62007  Biso   1.000  C
  H13      1.0000 0.76303  0.06167  0.60737  Biso   1.000  H
  C20      1.0000 0.86633  0.24657  0.65627  Biso   1.000  C
  H14      1.0000 0.89683  0.29447  0.66837  Biso   1.000  H
  C21      1.0000 0.85033  0.25577  0.62777  Biso   1.000  C
  H15      1.0000 0.87043  0.31047  0.61987  Biso   1.000  H
  O7       1.0000 0.55620  0.85230  0.83124  Biso   1.000  O
  O8       1.0000 0.63760  0.89220  0.86997  Biso   1.000  O
  C22      1.0000 0.57410  0.88090  0.85661  Biso   1.000  C
  C23      1.0000 0.51610  0.90110  0.87041  Biso   1.000  C
  C24      1.0000 0.52890  0.92750  0.89876  Biso   1.000  C
  H16      1.0000 0.57670  0.93590  0.90820  Biso   1.000  H
  C25      1.0000 0.56970  0.03310  0.98240  Biso   1.000  C
  H17      1.0000 0.62450  0.06760  0.99030  Biso   1.000  H
  C26      1.0000 0.55800  0.01250  0.95340  Biso   1.000  C
  H18      1.0000 0.60500  0.03470  0.94070  Biso   1.000  H
  C27      1.0000 0.42010  0.95310  0.98960  Biso   1.000  C
  H19      1.0000 0.37220  0.93570  0.00170  Biso   1.000  H
  C28      1.0000 0.41090  0.92790  0.96110  Biso   1.000  C
  H20      1.0000 0.35620  0.89330  0.95320  Biso   1.000  H
  O9       1.0000 0.22287  0.18563  0.16457  Biso   1.000  O
  O10      1.0000 0.30427  0.22553  0.20330  Biso   1.000  O
  C29      1.0000 0.24077  0.21423  0.18994  Biso   1.000  C
  C30      1.0000 0.18277  0.23443  0.20374  Biso   1.000  C
  C31      1.0000 0.19557  0.26083  0.23209  Biso   1.000  C
  H21      1.0000 0.24337  0.26923  0.24153  Biso   1.000  H
  C32      1.0000 0.23637  0.36643  0.31573  Biso   1.000  C
  H22      1.0000 0.29117  0.40093  0.32363  Biso   1.000  H
  C33      1.0000 0.22467  0.34583  0.28673  Biso   1.000  C
  H23      1.0000 0.27167  0.36803  0.27403  Biso   1.000  H
  C34      1.0000 0.08677  0.28643  0.32293  Biso   1.000  C
  H24      1.0000 0.03887  0.26903  0.33503  Biso   1.000  H
  C35      1.0000 0.07757  0.26123  0.29443  Biso   1.000  C
  H25      1.0000 0.02287  0.22663  0.28653  Biso   1.000  H
  O11      1.0000 0.88953  0.51897  0.49791  Biso   1.000  O
  O12      1.0000 0.97093  0.55887  0.53664  Biso   1.000  O
  C36      1.0000 0.90743  0.54757  0.52328  Biso   1.000  C
  C37      1.0000 0.84943  0.56777  0.53708  Biso   1.000  C
  C38      1.0000 0.86223  0.59417  0.56543  Biso   1.000  C
  H26      1.0000 0.91003  0.60257  0.57487  Biso   1.000  H
  C39      1.0000 0.90303  0.69977  0.64907  Biso   1.000  C
  H27      1.0000 0.95783  0.73427  0.65697  Biso   1.000  H
  C40      1.0000 0.89133  0.67917  0.62007  Biso   1.000  C
  H28      1.0000 0.93833  0.70137  0.60737  Biso   1.000  H
  C41      1.0000 0.75343  0.61977  0.65627  Biso   1.000  C
  H29      1.0000 0.70553  0.60237  0.66837  Biso   1.000  H
  C42      1.0000 0.74423  0.59457  0.62777  Biso   1.000  C
  H30      1.0000 0.68953  0.55997  0.61987  Biso   1.000  H
  O13      1.0000 0.14770  0.70390  0.83124  Biso   1.000  O
  O14      1.0000 0.10780  0.74540  0.86997  Biso   1.000  O
  C43      1.0000 0.11910  0.69320  0.85661  Biso   1.000  C
  C44      1.0000 0.09890  0.61500  0.87041  Biso   1.000  C
  C45      1.0000 0.07250  0.60140  0.89876  Biso   1.000  C
  H31      1.0000 0.06410  0.64080  0.90820  Biso   1.000  H
  C46      1.0000 0.96690  0.53660  0.98240  Biso   1.000  C
  H32      1.0000 0.93240  0.55690  0.99030  Biso   1.000  H
  C47      1.0000 0.98750  0.54550  0.95340  Biso   1.000  C
  H33      1.0000 0.96530  0.57030  0.94070  Biso   1.000  H
  C48      1.0000 0.04690  0.46700  0.98960  Biso   1.000  C
  H34      1.0000 0.06430  0.43650  0.00170  Biso   1.000  H
  C49      1.0000 0.07210  0.48300  0.96110  Biso   1.000  C
  H35      1.0000 0.10670  0.46290  0.95320  Biso   1.000  H
  O15      1.0000 0.81437  0.03723  0.16457  Biso   1.000  O
  O16      1.0000 0.77447  0.07873  0.20330  Biso   1.000  O
  C50      1.0000 0.78577  0.02653  0.18994  Biso   1.000  C
  C51      1.0000 0.76557  0.94833  0.20374  Biso   1.000  C
  C52      1.0000 0.73917  0.93473  0.23209  Biso   1.000  C
  H36      1.0000 0.73077  0.97413  0.24153  Biso   1.000  H
  C53      1.0000 0.63357  0.86993  0.31573  Biso   1.000  C
  H37      1.0000 0.59907  0.89023  0.32363  Biso   1.000  H
  C54      1.0000 0.65417  0.87883  0.28673  Biso   1.000  C
  H38      1.0000 0.63197  0.90363  0.27403  Biso   1.000  H
  C55      1.0000 0.71357  0.80033  0.32293  Biso   1.000  C
  H39      1.0000 0.73097  0.76983  0.33503  Biso   1.000  H
  C56      1.0000 0.73877  0.81633  0.29443  Biso   1.000  C
  H40      1.0000 0.77337  0.79623  0.28653  Biso   1.000  H
  O17      1.0000 0.48103  0.37057  0.49791  Biso   1.000  O
  O18      1.0000 0.44113  0.41207  0.53664  Biso   1.000  O
  C57      1.0000 0.45243  0.35987  0.52328  Biso   1.000  C
  C58      1.0000 0.43223  0.28167  0.53708  Biso   1.000  C
  C59      1.0000 0.40583  0.26807  0.56543  Biso   1.000  C
  H41      1.0000 0.39743  0.30747  0.57487  Biso   1.000  H
  C60      1.0000 0.30023  0.20327  0.64907  Biso   1.000  C
  H42      1.0000 0.26573  0.22357  0.65697  Biso   1.000  H
  C61      1.0000 0.32083  0.21217  0.62007  Biso   1.000  C
  H43      1.0000 0.29863  0.23697  0.60737  Biso   1.000  H
  C62      1.0000 0.38023  0.13367  0.65627  Biso   1.000  C
  H44      1.0000 0.39763  0.10317  0.66837  Biso   1.000  H
  C63      1.0000 0.40543  0.14967  0.62777  Biso   1.000  C
  H45      1.0000 0.44003  0.12957  0.61987  Biso   1.000  H
  O19      1.0000 0.44380  0.29610  0.16876  Biso   1.000  O
  O20      1.0000 0.36240  0.25460  0.13003  Biso   1.000  O
  C64      1.0000 0.42590  0.30680  0.14339  Biso   1.000  C
  C65      1.0000 0.48390  0.38500  0.12959  Biso   1.000  C
  C66      1.0000 0.47110  0.39860  0.10124  Biso   1.000  C
  H46      1.0000 0.42330  0.35920  0.09180  Biso   1.000  H
  C67      1.0000 0.43030  0.46340  0.01760  Biso   1.000  C
  H47      1.0000 0.37550  0.44310  0.00970  Biso   1.000  H
  C68      1.0000 0.44200  0.45450  0.04660  Biso   1.000  C
  H48      1.0000 0.39500  0.42970  0.05930  Biso   1.000  H
  C69      1.0000 0.57990  0.53300  0.01040  Biso   1.000  C
  H49      1.0000 0.62780  0.56350  0.99830  Biso   1.000  H
  C70      1.0000 0.58910  0.51700  0.03890  Biso   1.000  C
  H50      1.0000 0.64380  0.53710  0.04680  Biso   1.000  H
  O21      1.0000 0.11047  0.62943  0.50209  Biso   1.000  O
  O22      1.0000 0.02907  0.58793  0.46336  Biso   1.000  O
  C71      1.0000 0.09257  0.64013  0.47672  Biso   1.000  C
  C72      1.0000 0.15057  0.71833  0.46292  Biso   1.000  C
  C73      1.0000 0.13777  0.73193  0.43457  Biso   1.000  C
  H51      1.0000 0.08997  0.69253  0.42513  Biso   1.000  H
  C74      1.0000 0.09697  0.79673  0.35093  Biso   1.000  C
  H52      1.0000 0.04217  0.77643  0.34303  Biso   1.000  H
  C75      1.0000 0.10867  0.78783  0.37993  Biso   1.000  C
  H53      1.0000 0.06167  0.76303  0.39263  Biso   1.000  H
  C76      1.0000 0.24657  0.86633  0.34373  Biso   1.000  C
  H54      1.0000 0.29447  0.89683  0.33163  Biso   1.000  H
  C77      1.0000 0.25577  0.85033  0.37223  Biso   1.000  C
  H55      1.0000 0.31047  0.87043  0.38013  Biso   1.000  H
  O23      1.0000 0.77713  0.96277  0.83543  Biso   1.000  O
  O24      1.0000 0.69573  0.92127  0.79670  Biso   1.000  O
  C78      1.0000 0.75923  0.97347  0.81006  Biso   1.000  C
  C79      1.0000 0.81723  0.05167  0.79626  Biso   1.000  C
  C80      1.0000 0.80443  0.06527  0.76791  Biso   1.000  C
  H56      1.0000 0.75663  0.02587  0.75847  Biso   1.000  H
  C81      1.0000 0.76363  0.13007  0.68427  Biso   1.000  C
  H57      1.0000 0.70883  0.10977  0.67637  Biso   1.000  H
  C82      1.0000 0.77533  0.12117  0.71327  Biso   1.000  C
  H58      1.0000 0.72833  0.09637  0.72597  Biso   1.000  H
  C83      1.0000 0.91323  0.19967  0.67707  Biso   1.000  C
  H59      1.0000 0.96113  0.23017  0.66497  Biso   1.000  H
  C84      1.0000 0.92243  0.18367  0.70557  Biso   1.000  C
  H60      1.0000 0.97713  0.20377  0.71347  Biso   1.000  H
  O25      1.0000 0.85230  0.55620  0.16876  Biso   1.000  O
  O26      1.0000 0.89220  0.63760  0.13003  Biso   1.000  O
  C85      1.0000 0.88090  0.57410  0.14339  Biso   1.000  C
  C86      1.0000 0.90110  0.51610  0.12959  Biso   1.000  C
  C87      1.0000 0.92750  0.52890  0.10124  Biso   1.000  C
  H61      1.0000 0.93590  0.57670  0.09180  Biso   1.000  H
  C88      1.0000 0.03310  0.56970  0.01760  Biso   1.000  C
  H62      1.0000 0.06760  0.62450  0.00970  Biso   1.000  H
  C89      1.0000 0.01250  0.55800  0.04660  Biso   1.000  C
  H63      1.0000 0.03470  0.60500  0.05930  Biso   1.000  H
  C90      1.0000 0.95310  0.42010  0.01040  Biso   1.000  C
  H64      1.0000 0.93570  0.37220  0.99830  Biso   1.000  H
  C91      1.0000 0.92790  0.41090  0.03890  Biso   1.000  C
  H65      1.0000 0.89330  0.35620  0.04680  Biso   1.000  H
  O27      1.0000 0.51897  0.88953  0.50209  Biso   1.000  O
  O28      1.0000 0.55887  0.97093  0.46336  Biso   1.000  O
  C92      1.0000 0.54757  0.90743  0.47672  Biso   1.000  C
  C93      1.0000 0.56777  0.84943  0.46292  Biso   1.000  C
  C94      1.0000 0.59417  0.86223  0.43457  Biso   1.000  C
  H66      1.0000 0.60257  0.91003  0.42513  Biso   1.000  H
  C95      1.0000 0.69977  0.90303  0.35093  Biso   1.000  C
  H67      1.0000 0.73427  0.95783  0.34303  Biso   1.000  H
  C96      1.0000 0.67917  0.89133  0.37993  Biso   1.000  C
  H68      1.0000 0.70137  0.93833  0.39263  Biso   1.000  H
  C97      1.0000 0.61977  0.75343  0.34373  Biso   1.000  C
  H69      1.0000 0.60237  0.70553  0.33163  Biso   1.000  H
  C98      1.0000 0.59457  0.74423  0.37223  Biso   1.000  C
  H70      1.0000 0.55997  0.68953  0.38013  Biso   1.000  H
  O29      1.0000 0.18563  0.22287  0.83543  Biso   1.000  O
  O30      1.0000 0.22553  0.30427  0.79670  Biso   1.000  O
  C99      1.0000 0.21423  0.24077  0.81006  Biso   1.000  C
  C100     1.0000 0.23443  0.18277  0.79626  Biso   1.000  C
  C101     1.0000 0.26083  0.19557  0.76791  Biso   1.000  C
  H71      1.0000 0.26923  0.24337  0.75847  Biso   1.000  H
  C102     1.0000 0.36643  0.23637  0.68427  Biso   1.000  C
  H72      1.0000 0.40093  0.29117  0.67637  Biso   1.000  H
  C103     1.0000 0.34583  0.22467  0.71327  Biso   1.000  C
  H73      1.0000 0.36803  0.27167  0.72597  Biso   1.000  H
  C104     1.0000 0.28643  0.08677  0.67707  Biso   1.000  C
  H74      1.0000 0.26903  0.03887  0.66497  Biso   1.000  H
  C105     1.0000 0.26123  0.07757  0.70557  Biso   1.000  C
  H75      1.0000 0.22663  0.02287  0.71347  Biso   1.000  H
  O31      1.0000 0.70390  0.14770  0.16876  Biso   1.000  O
  O32      1.0000 0.74540  0.10780  0.13003  Biso   1.000  O
  C106     1.0000 0.69320  0.11910  0.14339  Biso   1.000  C
  C107     1.0000 0.61500  0.09890  0.12959  Biso   1.000  C
  C108     1.0000 0.60140  0.07250  0.10124  Biso   1.000  C
  H76      1.0000 0.64080  0.06410  0.09180  Biso   1.000  H
  C109     1.0000 0.53660  0.96690  0.01760  Biso   1.000  C
  H77      1.0000 0.55690  0.93240  0.00970  Biso   1.000  H
  C110     1.0000 0.54550  0.98750  0.04660  Biso   1.000  C
  H78      1.0000 0.57030  0.96530  0.05930  Biso   1.000  H
  C111     1.0000 0.46700  0.04690  0.01040  Biso   1.000  C
  H79      1.0000 0.43650  0.06430  0.99830  Biso   1.000  H
  C112     1.0000 0.48300  0.07210  0.03890  Biso   1.000  C
  H80      1.0000 0.46290  0.10670  0.04680  Biso   1.000  H
  O33      1.0000 0.37057  0.48103  0.50209  Biso   1.000  O
  O34      1.0000 0.41207  0.44113  0.46336  Biso   1.000  O
  C113     1.0000 0.35987  0.45243  0.47672  Biso   1.000  C
  C114     1.0000 0.28167  0.43223  0.46292  Biso   1.000  C
  C115     1.0000 0.26807  0.40583  0.43457  Biso   1.000  C
  H81      1.0000 0.30747  0.39743  0.42513  Biso   1.000  H
  C116     1.0000 0.20327  0.30023  0.35093  Biso   1.000  C
  H82      1.0000 0.22357  0.26573  0.34303  Biso   1.000  H
  C117     1.0000 0.21217  0.32083  0.37993  Biso   1.000  C
  H83      1.0000 0.23697  0.29863  0.39263  Biso   1.000  H
  C118     1.0000 0.13367  0.38023  0.34373  Biso   1.000  C
  H84      1.0000 0.10317  0.39763  0.33163  Biso   1.000  H
  C119     1.0000 0.14967  0.40543  0.37223  Biso   1.000  C
  H85      1.0000 0.12957  0.44003  0.38013  Biso   1.000  H
  O35      1.0000 0.03723  0.81437  0.83543  Biso   1.000  O
  O36      1.0000 0.07873  0.77447  0.79670  Biso   1.000  O
  C120     1.0000 0.02653  0.78577  0.81006  Biso   1.000  C
  C121     1.0000 0.94833  0.76557  0.79626  Biso   1.000  C
  C122     1.0000 0.93473  0.73917  0.76791  Biso   1.000  C
  H86      1.0000 0.97413  0.73077  0.75847  Biso   1.000  H
  C123     1.0000 0.86993  0.63357  0.68427  Biso   1.000  C
  H87      1.0000 0.89023  0.59907  0.67637  Biso   1.000  H
  C124     1.0000 0.87883  0.65417  0.71327  Biso   1.000  C
  H88      1.0000 0.90363  0.63197  0.72597  Biso   1.000  H
  C125     1.0000 0.80033  0.71357  0.67707  Biso   1.000  C
  H89      1.0000 0.76983  0.73097  0.66497  Biso   1.000  H
  C126     1.0000 0.81633  0.73877  0.70557  Biso   1.000  C
  H90      1.0000 0.79623  0.77337  0.71347  Biso   1.000  H
  O37      1.0000 0.70390  0.55620  0.16876  Biso   1.000  O
  O38      1.0000 0.74540  0.63760  0.13003  Biso   1.000  O
  C127     1.0000 0.69320  0.57410  0.14339  Biso   1.000  C
  C128     1.0000 0.61500  0.51610  0.12959  Biso   1.000  C
  C129     1.0000 0.60140  0.52890  0.10124  Biso   1.000  C
  H91      1.0000 0.64080  0.57670  0.09180  Biso   1.000  H
  C130     1.0000 0.53660  0.56970  0.01760  Biso   1.000  C
  H92      1.0000 0.55690  0.62450  0.00970  Biso   1.000  H
  C131     1.0000 0.54550  0.55800  0.04660  Biso   1.000  C
  H93      1.0000 0.57030  0.60500  0.05930  Biso   1.000  H
  C132     1.0000 0.46700  0.42010  0.01040  Biso   1.000  C
  H94      1.0000 0.43650  0.37220  0.99830  Biso   1.000  H
  C133     1.0000 0.48300  0.41090  0.03890  Biso   1.000  C
  H95      1.0000 0.46290  0.35620  0.04680  Biso   1.000  H
  O39      1.0000 0.37057  0.88953  0.50209  Biso   1.000  O
  O40      1.0000 0.41207  0.97093  0.46336  Biso   1.000  O
  C134     1.0000 0.35987  0.90743  0.47672  Biso   1.000  C
  C135     1.0000 0.28167  0.84943  0.46292  Biso   1.000  C
  C136     1.0000 0.26807  0.86223  0.43457  Biso   1.000  C
  H96      1.0000 0.30747  0.91003  0.42513  Biso   1.000  H
  C137     1.0000 0.20327  0.90303  0.35093  Biso   1.000  C
  H97      1.0000 0.22357  0.95783  0.34303  Biso   1.000  H
  C138     1.0000 0.21217  0.89133  0.37993  Biso   1.000  C
  H98      1.0000 0.23697  0.93833  0.39263  Biso   1.000  H
  C139     1.0000 0.13367  0.75343  0.34373  Biso   1.000  C
  H99      1.0000 0.10317  0.70553  0.33163  Biso   1.000  H
  C140     1.0000 0.14967  0.74423  0.37223  Biso   1.000  C
  H100     1.0000 0.12957  0.68953  0.38013  Biso   1.000  H
  O41      1.0000 0.03723  0.22287  0.83543  Biso   1.000  O
  O42      1.0000 0.07873  0.30427  0.79670  Biso   1.000  O
  C141     1.0000 0.02653  0.24077  0.81006  Biso   1.000  C
  C142     1.0000 0.94833  0.18277  0.79626  Biso   1.000  C
  C143     1.0000 0.93473  0.19557  0.76791  Biso   1.000  C
  H101     1.0000 0.97413  0.24337  0.75847  Biso   1.000  H
  C144     1.0000 0.86993  0.23637  0.68427  Biso   1.000  C
  H102     1.0000 0.89023  0.29117  0.67637  Biso   1.000  H
  C145     1.0000 0.87883  0.22467  0.71327  Biso   1.000  C
  H103     1.0000 0.90363  0.27167  0.72597  Biso   1.000  H
  C146     1.0000 0.80033  0.08677  0.67707  Biso   1.000  C
  H104     1.0000 0.76983  0.03887  0.66497  Biso   1.000  H
  C147     1.0000 0.81633  0.07757  0.70557  Biso   1.000  C
  H105     1.0000 0.79623  0.02287  0.71347  Biso   1.000  H
  O43      1.0000 0.44380  0.14770  0.16876  Biso   1.000  O
  O44      1.0000 0.36240  0.10780  0.13003  Biso   1.000  O
  C148     1.0000 0.42590  0.11910  0.14339  Biso   1.000  C
  C149     1.0000 0.48390  0.09890  0.12959  Biso   1.000  C
  C150     1.0000 0.47110  0.07250  0.10124  Biso   1.000  C
  H106     1.0000 0.42330  0.06410  0.09180  Biso   1.000  H
  C151     1.0000 0.43030  0.96690  0.01760  Biso   1.000  C
  H107     1.0000 0.37550  0.93240  0.00970  Biso   1.000  H
  C152     1.0000 0.44200  0.98750  0.04660  Biso   1.000  C
  H108     1.0000 0.39500  0.96530  0.05930  Biso   1.000  H
  C153     1.0000 0.57990  0.04690  0.01040  Biso   1.000  C
  H109     1.0000 0.62780  0.06430  0.99830  Biso   1.000  H
  C154     1.0000 0.58910  0.07210  0.03890  Biso   1.000  C
  H110     1.0000 0.64380  0.10670  0.04680  Biso   1.000  H
  O45      1.0000 0.11047  0.48103  0.50209  Biso   1.000  O
  O46      1.0000 0.02907  0.44113  0.46336  Biso   1.000  O
  C155     1.0000 0.09257  0.45243  0.47672  Biso   1.000  C
  C156     1.0000 0.15057  0.43223  0.46292  Biso   1.000  C
  C157     1.0000 0.13777  0.40583  0.43457  Biso   1.000  C
  H111     1.0000 0.08997  0.39743  0.42513  Biso   1.000  H
  C158     1.0000 0.09697  0.30023  0.35093  Biso   1.000  C
  H112     1.0000 0.04217  0.26573  0.34303  Biso   1.000  H
  C159     1.0000 0.10867  0.32083  0.37993  Biso   1.000  C
  H113     1.0000 0.06167  0.29863  0.39263  Biso   1.000  H
  C160     1.0000 0.24657  0.38023  0.34373  Biso   1.000  C
  H114     1.0000 0.29447  0.39763  0.33163  Biso   1.000  H
  C161     1.0000 0.25577  0.40543  0.37223  Biso   1.000  C
  H115     1.0000 0.31047  0.44003  0.38013  Biso   1.000  H
  O47      1.0000 0.77713  0.81437  0.83543  Biso   1.000  O
  O48      1.0000 0.69573  0.77447  0.79670  Biso   1.000  O
  C162     1.0000 0.75923  0.78577  0.81006  Biso   1.000  C
  C163     1.0000 0.81723  0.76557  0.79626  Biso   1.000  C
  C164     1.0000 0.80443  0.73917  0.76791  Biso   1.000  C
  H116     1.0000 0.75663  0.73077  0.75847  Biso   1.000  H
  C165     1.0000 0.76363  0.63357  0.68427  Biso   1.000  C
  H117     1.0000 0.70883  0.59907  0.67637  Biso   1.000  H
  C166     1.0000 0.77533  0.65417  0.71327  Biso   1.000  C
  H118     1.0000 0.72833  0.63197  0.72597  Biso   1.000  H
  C167     1.0000 0.91323  0.71357  0.67707  Biso   1.000  C
  H119     1.0000 0.96113  0.73097  0.66497  Biso   1.000  H
  C168     1.0000 0.92243  0.73877  0.70557  Biso   1.000  C
  H120     1.0000 0.97713  0.77337  0.71347  Biso   1.000  H
  O49      1.0000 0.85230  0.29610  0.16876  Biso   1.000  O
  O50      1.0000 0.89220  0.25460  0.13003  Biso   1.000  O
  C169     1.0000 0.88090  0.30680  0.14339  Biso   1.000  C
  C170     1.0000 0.90110  0.38500  0.12959  Biso   1.000  C
  C171     1.0000 0.92750  0.39860  0.10124  Biso   1.000  C
  H121     1.0000 0.93590  0.35920  0.09180  Biso   1.000  H
  C172     1.0000 0.03310  0.46340  0.01760  Biso   1.000  C
  H122     1.0000 0.06760  0.44310  0.00970  Biso   1.000  H
  C173     1.0000 0.01250  0.45450  0.04660  Biso   1.000  C
  H123     1.0000 0.03470  0.42970  0.05930  Biso   1.000  H
  C174     1.0000 0.95310  0.53300  0.01040  Biso   1.000  C
  H124     1.0000 0.93570  0.56350  0.99830  Biso   1.000  H
  C175     1.0000 0.92790  0.51700  0.03890  Biso   1.000  C
  H125     1.0000 0.89330  0.53710  0.04680  Biso   1.000  H
  O51      1.0000 0.51897  0.62943  0.50209  Biso   1.000  O
  O52      1.0000 0.55887  0.58793  0.46336  Biso   1.000  O
  C176     1.0000 0.54757  0.64013  0.47672  Biso   1.000  C
  C177     1.0000 0.56777  0.71833  0.46292  Biso   1.000  C
  C178     1.0000 0.59417  0.73193  0.43457  Biso   1.000  C
  H126     1.0000 0.60257  0.69253  0.42513  Biso   1.000  H
  C179     1.0000 0.69977  0.79673  0.35093  Biso   1.000  C
  H127     1.0000 0.73427  0.77643  0.34303  Biso   1.000  H
  C180     1.0000 0.67917  0.78783  0.37993  Biso   1.000  C
  H128     1.0000 0.70137  0.76303  0.39263  Biso   1.000  H
  C181     1.0000 0.61977  0.86633  0.34373  Biso   1.000  C
  H129     1.0000 0.60237  0.89683  0.33163  Biso   1.000  H
  C182     1.0000 0.59457  0.85033  0.37223  Biso   1.000  C
  H130     1.0000 0.55997  0.87043  0.38013  Biso   1.000  H
  O53      1.0000 0.18563  0.96277  0.83543  Biso   1.000  O
  O54      1.0000 0.22553  0.92127  0.79670  Biso   1.000  O
  C183     1.0000 0.21423  0.97347  0.81006  Biso   1.000  C
  C184     1.0000 0.23443  0.05167  0.79626  Biso   1.000  C
  C185     1.0000 0.26083  0.06527  0.76791  Biso   1.000  C
  H131     1.0000 0.26923  0.02587  0.75847  Biso   1.000  H
  C186     1.0000 0.36643  0.13007  0.68427  Biso   1.000  C
  H132     1.0000 0.40093  0.10977  0.67637  Biso   1.000  H
  C187     1.0000 0.34583  0.12117  0.71327  Biso   1.000  C
  H133     1.0000 0.36803  0.09637  0.72597  Biso   1.000  H
  C188     1.0000 0.28643  0.19967  0.67707  Biso   1.000  C
  H134     1.0000 0.26903  0.23017  0.66497  Biso   1.000  H
  C189     1.0000 0.26123  0.18367  0.70557  Biso   1.000  C
  H135     1.0000 0.22663  0.20377  0.71347  Biso   1.000  H
  O55      1.0000 0.55620  0.70390  0.83124  Biso   1.000  O
  O56      1.0000 0.63760  0.74540  0.86997  Biso   1.000  O
  C190     1.0000 0.57410  0.69320  0.85661  Biso   1.000  C
  C191     1.0000 0.51610  0.61500  0.87041  Biso   1.000  C
  C192     1.0000 0.52890  0.60140  0.89876  Biso   1.000  C
  H136     1.0000 0.57670  0.64080  0.90820  Biso   1.000  H
  C193     1.0000 0.56970  0.53660  0.98240  Biso   1.000  C
  H137     1.0000 0.62450  0.55690  0.99030  Biso   1.000  H
  C194     1.0000 0.55800  0.54550  0.95340  Biso   1.000  C
  H138     1.0000 0.60500  0.57030  0.94070  Biso   1.000  H
  C195     1.0000 0.42010  0.46700  0.98960  Biso   1.000  C
  H139     1.0000 0.37220  0.43650  0.00170  Biso   1.000  H
  C196     1.0000 0.41090  0.48300  0.96110  Biso   1.000  C
  H140     1.0000 0.35620  0.46290  0.95320  Biso   1.000  H
  O57      1.0000 0.22287  0.03723  0.16457  Biso   1.000  O
  O58      1.0000 0.30427  0.07873  0.20330  Biso   1.000  O
  C197     1.0000 0.24077  0.02653  0.18994  Biso   1.000  C
  C198     1.0000 0.18277  0.94833  0.20374  Biso   1.000  C
  C199     1.0000 0.19557  0.93473  0.23209  Biso   1.000  C
  H141     1.0000 0.24337  0.97413  0.24153  Biso   1.000  H
  C200     1.0000 0.23637  0.86993  0.31573  Biso   1.000  C
  H142     1.0000 0.29117  0.89023  0.32363  Biso   1.000  H
  C201     1.0000 0.22467  0.87883  0.28673  Biso   1.000  C
  H143     1.0000 0.27167  0.90363  0.27403  Biso   1.000  H
  C202     1.0000 0.08677  0.80033  0.32293  Biso   1.000  C
  H144     1.0000 0.03887  0.76983  0.33503  Biso   1.000  H
  C203     1.0000 0.07757  0.81633  0.29443  Biso   1.000  C
  H145     1.0000 0.02287  0.79623  0.28653  Biso   1.000  H
  O59      1.0000 0.88953  0.37057  0.49791  Biso   1.000  O
  O60      1.0000 0.97093  0.41207  0.53664  Biso   1.000  O
  C204     1.0000 0.90743  0.35987  0.52328  Biso   1.000  C
  C205     1.0000 0.84943  0.28167  0.53708  Biso   1.000  C
  C206     1.0000 0.86223  0.26807  0.56543  Biso   1.000  C
  H146     1.0000 0.91003  0.30747  0.57487  Biso   1.000  H
  C207     1.0000 0.90303  0.20327  0.64907  Biso   1.000  C
  H147     1.0000 0.95783  0.22357  0.65697  Biso   1.000  H
  C208     1.0000 0.89133  0.21217  0.62007  Biso   1.000  C
  H148     1.0000 0.93833  0.23697  0.60737  Biso   1.000  H
  C209     1.0000 0.75343  0.13367  0.65627  Biso   1.000  C
  H149     1.0000 0.70553  0.10317  0.66837  Biso   1.000  H
  C210     1.0000 0.74423  0.14967  0.62777  Biso   1.000  C
  H150     1.0000 0.68953  0.12957  0.61987  Biso   1.000  H
  O61      1.0000 0.14770  0.44380  0.83124  Biso   1.000  O
  O62      1.0000 0.10780  0.36240  0.86997  Biso   1.000  O
  C211     1.0000 0.11910  0.42590  0.85661  Biso   1.000  C
  C212     1.0000 0.09890  0.48390  0.87041  Biso   1.000  C
  C213     1.0000 0.07250  0.47110  0.89876  Biso   1.000  C
  H151     1.0000 0.06410  0.42330  0.90820  Biso   1.000  H
  C214     1.0000 0.96690  0.43030  0.98240  Biso   1.000  C
  H152     1.0000 0.93240  0.37550  0.99030  Biso   1.000  H
  C215     1.0000 0.98750  0.44200  0.95340  Biso   1.000  C
  H153     1.0000 0.96530  0.39500  0.94070  Biso   1.000  H
  C216     1.0000 0.04690  0.57990  0.98960  Biso   1.000  C
  H154     1.0000 0.06430  0.62780  0.00170  Biso   1.000  H
  C217     1.0000 0.07210  0.58910  0.96110  Biso   1.000  C
  H155     1.0000 0.10670  0.64380  0.95320  Biso   1.000  H
  O63      1.0000 0.81437  0.77713  0.16457  Biso   1.000  O
  O64      1.0000 0.77447  0.69573  0.20330  Biso   1.000  O
  C218     1.0000 0.78577  0.75923  0.18994  Biso   1.000  C
  C219     1.0000 0.76557  0.81723  0.20374  Biso   1.000  C
  C220     1.0000 0.73917  0.80443  0.23209  Biso   1.000  C
  H156     1.0000 0.73077  0.75663  0.24153  Biso   1.000  H
  C221     1.0000 0.63357  0.76363  0.31573  Biso   1.000  C
  H157     1.0000 0.59907  0.70883  0.32363  Biso   1.000  H
  C222     1.0000 0.65417  0.77533  0.28673  Biso   1.000  C
  H158     1.0000 0.63197  0.72833  0.27403  Biso   1.000  H
  C223     1.0000 0.71357  0.91323  0.32293  Biso   1.000  C
  H159     1.0000 0.73097  0.96113  0.33503  Biso   1.000  H
  C224     1.0000 0.73877  0.92243  0.29443  Biso   1.000  C
  H160     1.0000 0.77337  0.97713  0.28653  Biso   1.000  H
  O65      1.0000 0.48103  0.11047  0.49791  Biso   1.000  O
  O66      1.0000 0.44113  0.02907  0.53664  Biso   1.000  O
  C225     1.0000 0.45243  0.09257  0.52328  Biso   1.000  C
  C226     1.0000 0.43223  0.15057  0.53708  Biso   1.000  C
  C227     1.0000 0.40583  0.13777  0.56543  Biso   1.000  C
  H161     1.0000 0.39743  0.08997  0.57487  Biso   1.000  H
  C228     1.0000 0.30023  0.09697  0.64907  Biso   1.000  C
  H162     1.0000 0.26573  0.04217  0.65697  Biso   1.000  H
  C229     1.0000 0.32083  0.10867  0.62007  Biso   1.000  C
  H163     1.0000 0.29863  0.06167  0.60737  Biso   1.000  H
  C230     1.0000 0.38023  0.24657  0.65627  Biso   1.000  C
  H164     1.0000 0.39763  0.29447  0.66837  Biso   1.000  H
  C231     1.0000 0.40543  0.25577  0.62777  Biso   1.000  C
  H165     1.0000 0.44003  0.31047  0.61987  Biso   1.000  H
  O67      1.0000 0.29610  0.85230  0.83124  Biso   1.000  O
  O68      1.0000 0.25460  0.89220  0.86997  Biso   1.000  O
  C232     1.0000 0.30680  0.88090  0.85661  Biso   1.000  C
  C233     1.0000 0.38500  0.90110  0.87041  Biso   1.000  C
  C234     1.0000 0.39860  0.92750  0.89876  Biso   1.000  C
  H166     1.0000 0.35920  0.93590  0.90820  Biso   1.000  H
  C235     1.0000 0.46340  0.03310  0.98240  Biso   1.000  C
  H167     1.0000 0.44310  0.06760  0.99030  Biso   1.000  H
  C236     1.0000 0.45450  0.01250  0.95340  Biso   1.000  C
  H168     1.0000 0.42970  0.03470  0.94070  Biso   1.000  H
  C237     1.0000 0.53300  0.95310  0.98960  Biso   1.000  C
  H169     1.0000 0.56350  0.93570  0.00170  Biso   1.000  H
  C238     1.0000 0.51700  0.92790  0.96110  Biso   1.000  C
  H170     1.0000 0.53710  0.89330  0.95320  Biso   1.000  H
  O69      1.0000 0.96277  0.18563  0.16457  Biso   1.000  O
  O70      1.0000 0.92127  0.22553  0.20330  Biso   1.000  O
  C239     1.0000 0.97347  0.21423  0.18994  Biso   1.000  C
  C240     1.0000 0.05167  0.23443  0.20374  Biso   1.000  C
  C241     1.0000 0.06527  0.26083  0.23209  Biso   1.000  C
  H171     1.0000 0.02587  0.26923  0.24153  Biso   1.000  H
  C242     1.0000 0.13007  0.36643  0.31573  Biso   1.000  C
  H172     1.0000 0.10977  0.40093  0.32363  Biso   1.000  H
  C243     1.0000 0.12117  0.34583  0.28673  Biso   1.000  C
  H173     1.0000 0.09637  0.36803  0.27403  Biso   1.000  H
  C244     1.0000 0.19967  0.28643  0.32293  Biso   1.000  C
  H174     1.0000 0.23017  0.26903  0.33503  Biso   1.000  H
  C245     1.0000 0.18367  0.26123  0.29443  Biso   1.000  C
  H175     1.0000 0.20377  0.22663  0.28653  Biso   1.000  H
  O71      1.0000 0.62943  0.51897  0.49791  Biso   1.000  O
  O72      1.0000 0.58793  0.55887  0.53664  Biso   1.000  O
  C246     1.0000 0.64013  0.54757  0.52328  Biso   1.000  C
  C247     1.0000 0.71833  0.56777  0.53708  Biso   1.000  C
  C248     1.0000 0.73193  0.59417  0.56543  Biso   1.000  C
  H176     1.0000 0.69253  0.60257  0.57487  Biso   1.000  H
  C249     1.0000 0.79673  0.69977  0.64907  Biso   1.000  C
  H177     1.0000 0.77643  0.73427  0.65697  Biso   1.000  H
  C250     1.0000 0.78783  0.67917  0.62007  Biso   1.000  C
  H178     1.0000 0.76303  0.70137  0.60737  Biso   1.000  H
  C251     1.0000 0.86633  0.61977  0.65627  Biso   1.000  C
  H179     1.0000 0.89683  0.60237  0.66837  Biso   1.000  H
  C252     1.0000 0.85033  0.59457  0.62777  Biso   1.000  C
  H180     1.0000 0.87043  0.55997  0.61987  Biso   1.000  H
  Cu1      1.0000 0.38183  0.19092  0.18975  Biso   1.000  Cu
  Cu2      1.0000 0.04850  0.52425  0.52309  Biso   1.000  Cu
  Cu3      1.0000 0.71516  0.85758  0.85642  Biso   1.000  Cu
  Cu4      1.0000 0.80908  0.19092  0.18975  Biso   1.000  Cu
  Cu5      1.0000 0.47575  0.52425  0.52309  Biso   1.000  Cu
  Cu6      1.0000 0.14242  0.85758  0.85642  Biso   1.000  Cu
  Cu7      1.0000 0.80908  0.61817  0.18975  Biso   1.000  Cu
  Cu8      1.0000 0.47575  0.95150  0.52309  Biso   1.000  Cu
  Cu9      1.0000 0.14242  0.28484  0.85642  Biso   1.000  Cu
  Cu10     1.0000 0.19092  0.38183  0.81025  Biso   1.000  Cu
  Cu11     1.0000 0.85758  0.71516  0.14358  Biso   1.000  Cu
  Cu12     1.0000 0.52425  0.04850  0.47691  Biso   1.000  Cu
  Cu13     1.0000 0.19092  0.80908  0.81025  Biso   1.000  Cu
  Cu14     1.0000 0.85758  0.14242  0.14358  Biso   1.000  Cu
  Cu15     1.0000 0.52425  0.47575  0.47691  Biso   1.000  Cu
  Cu16     1.0000 0.61817  0.80908  0.81025  Biso   1.000  Cu
  Cu17     1.0000 0.28484  0.14242  0.14358  Biso   1.000  Cu
  Cu18     1.0000 0.95150  0.47575  0.47691  Biso   1.000  Cu
  C253     1.0000 0.44460  0.55540  0.85656  Biso   1.000  C
  H181     1.0000 0.43630  0.56370  0.83750  Biso   1.000  H
  C254     1.0000 0.47060  0.52940  0.91320  Biso   1.000  C
  C255     1.0000 0.47920  0.52080  0.94370  Biso   1.000  C
  C256     1.0000 0.51550  0.48450  0.05790  Biso   1.000  C
  C257     1.0000 0.50870  0.49130  0.03330  Biso   1.000  C
  C258     1.0000 0.11127  0.88873  0.18989  Biso   1.000  C
  H182     1.0000 0.10297  0.89703  0.17083  Biso   1.000  H
  C259     1.0000 0.13727  0.86273  0.24653  Biso   1.000  C
  C260     1.0000 0.14587  0.85413  0.27703  Biso   1.000  C
  C261     1.0000 0.18217  0.81783  0.39123  Biso   1.000  C
  C262     1.0000 0.17537  0.82463  0.36663  Biso   1.000  C
  C263     1.0000 0.77793  0.22207  0.52323  Biso   1.000  C
  H183     1.0000 0.76963  0.23037  0.50417  Biso   1.000  H
  C264     1.0000 0.80393  0.19607  0.57987  Biso   1.000  C
  C265     1.0000 0.81253  0.18747  0.61037  Biso   1.000  C
  C266     1.0000 0.84883  0.15117  0.72457  Biso   1.000  C
  C267     1.0000 0.84203  0.15797  0.69997  Biso   1.000  C
  C268     1.0000 0.44460  0.88920  0.85656  Biso   1.000  C
  H184     1.0000 0.43630  0.87260  0.83750  Biso   1.000  H
  C269     1.0000 0.47060  0.94120  0.91320  Biso   1.000  C
  C270     1.0000 0.47920  0.95840  0.94370  Biso   1.000  C
  C271     1.0000 0.51550  0.03100  0.05790  Biso   1.000  C
  C272     1.0000 0.50870  0.01740  0.03330  Biso   1.000  C
  C273     1.0000 0.11127  0.22253  0.18989  Biso   1.000  C
  H185     1.0000 0.10297  0.20593  0.17083  Biso   1.000  H
  C274     1.0000 0.13727  0.27453  0.24653  Biso   1.000  C
  C275     1.0000 0.14587  0.29173  0.27703  Biso   1.000  C
  C276     1.0000 0.18217  0.36433  0.39123  Biso   1.000  C
  C277     1.0000 0.17537  0.35073  0.36663  Biso   1.000  C
  C278     1.0000 0.77793  0.55587  0.52323  Biso   1.000  C
  H186     1.0000 0.76963  0.53927  0.50417  Biso   1.000  H
  C279     1.0000 0.80393  0.60787  0.57987  Biso   1.000  C
  C280     1.0000 0.81253  0.62507  0.61037  Biso   1.000  C
  C281     1.0000 0.84883  0.69767  0.72457  Biso   1.000  C
  C282     1.0000 0.84203  0.68407  0.69997  Biso   1.000  C
  C283     1.0000 0.11080  0.55540  0.85656  Biso   1.000  C
  H187     1.0000 0.12740  0.56370  0.83750  Biso   1.000  H
  C284     1.0000 0.05880  0.52940  0.91320  Biso   1.000  C
  C285     1.0000 0.04160  0.52080  0.94370  Biso   1.000  C
  C286     1.0000 0.96900  0.48450  0.05790  Biso   1.000  C
  C287     1.0000 0.98260  0.49130  0.03330  Biso   1.000  C
  C288     1.0000 0.77747  0.88873  0.18989  Biso   1.000  C
  H188     1.0000 0.79407  0.89703  0.17083  Biso   1.000  H
  C289     1.0000 0.72547  0.86273  0.24653  Biso   1.000  C
  C290     1.0000 0.70827  0.85413  0.27703  Biso   1.000  C
  C291     1.0000 0.63567  0.81783  0.39123  Biso   1.000  C
  C292     1.0000 0.64927  0.82463  0.36663  Biso   1.000  C
  C293     1.0000 0.44413  0.22207  0.52323  Biso   1.000  C
  H189     1.0000 0.46073  0.23037  0.50417  Biso   1.000  H
  C294     1.0000 0.39213  0.19607  0.57987  Biso   1.000  C
  C295     1.0000 0.37493  0.18747  0.61037  Biso   1.000  C
  C296     1.0000 0.30233  0.15117  0.72457  Biso   1.000  C
  C297     1.0000 0.31593  0.15797  0.69997  Biso   1.000  C
  C298     1.0000 0.55540  0.44460  0.14344  Biso   1.000  C
  H190     1.0000 0.56370  0.43630  0.16250  Biso   1.000  H
  C299     1.0000 0.52940  0.47060  0.08680  Biso   1.000  C
  C300     1.0000 0.52080  0.47920  0.05630  Biso   1.000  C
  C301     1.0000 0.48450  0.51550  0.94210  Biso   1.000  C
  C302     1.0000 0.49130  0.50870  0.96670  Biso   1.000  C
  C303     1.0000 0.22207  0.77793  0.47677  Biso   1.000  C
  H191     1.0000 0.23037  0.76963  0.49583  Biso   1.000  H
  C304     1.0000 0.19607  0.80393  0.42013  Biso   1.000  C
  C305     1.0000 0.18747  0.81253  0.38963  Biso   1.000  C
  C306     1.0000 0.15117  0.84883  0.27543  Biso   1.000  C
  C307     1.0000 0.15797  0.84203  0.30003  Biso   1.000  C
  C308     1.0000 0.88873  0.11127  0.81011  Biso   1.000  C
  H192     1.0000 0.89703  0.10297  0.82917  Biso   1.000  H
  C309     1.0000 0.86273  0.13727  0.75347  Biso   1.000  C
  C310     1.0000 0.85413  0.14587  0.72297  Biso   1.000  C
  C311     1.0000 0.81783  0.18217  0.60877  Biso   1.000  C
  C312     1.0000 0.82463  0.17537  0.63337  Biso   1.000  C
  C313     1.0000 0.88920  0.44460  0.14344  Biso   1.000  C
  H193     1.0000 0.87260  0.43630  0.16250  Biso   1.000  H
  C314     1.0000 0.94120  0.47060  0.08680  Biso   1.000  C
  C315     1.0000 0.95840  0.47920  0.05630  Biso   1.000  C
  C316     1.0000 0.03100  0.51550  0.94210  Biso   1.000  C
  C317     1.0000 0.01740  0.50870  0.96670  Biso   1.000  C
  C318     1.0000 0.55587  0.77793  0.47677  Biso   1.000  C
  H194     1.0000 0.53927  0.76963  0.49583  Biso   1.000  H
  C319     1.0000 0.60787  0.80393  0.42013  Biso   1.000  C
  C320     1.0000 0.62507  0.81253  0.38963  Biso   1.000  C
  C321     1.0000 0.69767  0.84883  0.27543  Biso   1.000  C
  C322     1.0000 0.68407  0.84203  0.30003  Biso   1.000  C
  C323     1.0000 0.22253  0.11127  0.81011  Biso   1.000  C
  H195     1.0000 0.20593  0.10297  0.82917  Biso   1.000  H
  C324     1.0000 0.27453  0.13727  0.75347  Biso   1.000  C
  C325     1.0000 0.29173  0.14587  0.72297  Biso   1.000  C
  C326     1.0000 0.36433  0.18217  0.60877  Biso   1.000  C
  C327     1.0000 0.35073  0.17537  0.63337  Biso   1.000  C
  C328     1.0000 0.55540  0.11080  0.14344  Biso   1.000  C
  H196     1.0000 0.56370  0.12740  0.16250  Biso   1.000  H
  C329     1.0000 0.52940  0.05880  0.08680  Biso   1.000  C
  C330     1.0000 0.52080  0.04160  0.05630  Biso   1.000  C
  C331     1.0000 0.48450  0.96900  0.94210  Biso   1.000  C
  C332     1.0000 0.49130  0.98260  0.96670  Biso   1.000  C
  C333     1.0000 0.22207  0.44413  0.47677  Biso   1.000  C
  H197     1.0000 0.23037  0.46073  0.49583  Biso   1.000  H
  C334     1.0000 0.19607  0.39213  0.42013  Biso   1.000  C
  C335     1.0000 0.18747  0.37493  0.38963  Biso   1.000  C
  C336     1.0000 0.15117  0.30233  0.27543  Biso   1.000  C
  C337     1.0000 0.15797  0.31593  0.30003  Biso   1.000  C
  C338     1.0000 0.88873  0.77747  0.81011  Biso   1.000  C
  H198     1.0000 0.89703  0.79407  0.82917  Biso   1.000  H
  C339     1.0000 0.86273  0.72547  0.75347  Biso   1.000  C
  C340     1.0000 0.85413  0.70827  0.72297  Biso   1.000  C
  C341     1.0000 0.81783  0.63567  0.60877  Biso   1.000  C
  C342     1.0000 0.82463  0.64927  0.63337  Biso   1.000  C
  C343     1.0000 0.50000  0.50000  0.00000  Biso   1.000  C
  C344     1.0000 0.16667  0.83333  0.33333  Biso   1.000  C
  C345     1.0000 0.83333  0.16667  0.66667  Biso   1.000  C
  C346     1.0000 0.50000  0.00000  0.00000  Biso   1.000  C
  C347     1.0000 0.16667  0.33333  0.33333  Biso   1.000  C
  C348     1.0000 0.83333  0.66667  0.66667  Biso   1.000  C
  C349     1.0000 0.00000  0.50000  0.00000  Biso   1.000  C
  C350     1.0000 0.66667  0.83333  0.33333  Biso   1.000  C
  C351     1.0000 0.33333  0.16667  0.66667  Biso   1.000  C
