data_image0
_cell_length_a       21.3209
_cell_length_b       14.1337
_cell_length_c       22.8816
_cell_angle_alpha    90
_cell_angle_beta     90.717
_cell_angle_gamma    90

_symmetry_space_group_name_H-M    "P 1"
_symmetry_int_tables_number       1

loop_
  _symmetry_equiv_pos_as_xyz
  'x, y, z'

loop_
  _atom_site_label
  _atom_site_occupancy
  _atom_site_fract_x
  _atom_site_fract_y
  _atom_site_fract_z
  _atom_site_thermal_displace_type
  _atom_site_B_iso_or_equiv
  _atom_site_type_symbol
  Cr1      1.0000 0.39573  0.04609  0.48245  Biso   1.000  Cr
  Cr2      1.0000 0.53410  0.26786  0.62588  Biso   1.000  Cr
  Mn1      1.0000 0.14459  0.04556  0.50238  Biso   1.000  Mn
  Mn2      1.0000 0.51183  0.77676  0.35978  Biso   1.000  Mn
  C1       1.0000 0.42690  0.86990  0.43060  Biso   1.000  C
  C2       1.0000 0.46710  0.95000  0.39900  Biso   1.000  C
  C3       1.0000 0.56010  0.23870  0.74380  Biso   1.000  C
  C4       1.0000 0.48720  0.25590  0.73900  Biso   1.000  C
  C5       1.0000 0.57510  0.44320  0.58420  Biso   1.000  C
  C6       1.0000 0.61270  0.36820  0.55070  Biso   1.000  C
  C7       1.0000 0.26710  0.05860  0.45910  Biso   1.000  C
  C8       1.0000 0.27440  0.05160  0.52690  Biso   1.000  C
  C9       1.0000 0.48420  0.11220  0.56630  Biso   1.000  C
  C10      1.0000 0.45370  0.20220  0.53680  Biso   1.000  C
  C11      1.0000 0.09020  0.20490  0.45030  Biso   1.000  C
  C12      1.0000 0.06040  0.11910  0.42050  Biso   1.000  C
  O1       1.0000 0.45670  0.03430  0.41370  Biso   1.000  O
  O2       1.0000 0.50450  0.92120  0.36130  Biso   1.000  O
  O3       1.0000 0.39240  0.90140  0.46990  Biso   1.000  O
  O4       1.0000 0.43630  0.78930  0.41670  Biso   1.000  O
  O5       1.0000 0.58040  0.22320  0.79550  Biso   1.000  O
  O6       1.0000 0.59020  0.24160  0.69880  Biso   1.000  O
  O7       1.0000 0.45650  0.25170  0.78510  Biso   1.000  O
  O8       1.0000 0.46580  0.26990  0.68990  Biso   1.000  O
  O9       1.0000 0.60560  0.28380  0.56590  Biso   1.000  O
  O10      1.0000 0.64670  0.39810  0.51000  Biso   1.000  O
  O11      1.0000 0.54110  0.41400  0.62430  Biso   1.000  O
  O12      1.0000 0.58020  0.52630  0.56870  Biso   1.000  O
  O13      1.0000 0.22450  0.05140  0.55520  Biso   1.000  O
  O14      1.0000 0.32790  0.04590  0.54740  Biso   1.000  O
  O15      1.0000 0.21280  0.05430  0.43890  Biso   1.000  O
  O16      1.0000 0.31750  0.06460  0.43080  Biso   1.000  O
  O17      1.0000 0.46680  0.03370  0.54550  Biso   1.000  O
  O18      1.0000 0.52200  0.12500  0.60590  Biso   1.000  O
  O19      1.0000 0.41580  0.18790  0.49570  Biso   1.000  O
  O20      1.0000 0.46900  0.27880  0.55700  Biso   1.000  O
  O21      1.0000 0.07570  0.03930  0.43830  Biso   1.000  O
  O22      1.0000 0.02000  0.13450  0.38020  Biso   1.000  O
  O23      1.0000 0.12560  0.18900  0.49180  Biso   1.000  O
  O24      1.0000 0.07580  0.28440  0.42990  Biso   1.000  O
  Cr3      1.0000 0.89573  0.54609  0.48245  Biso   1.000  Cr
  Cr4      1.0000 0.03410  0.76786  0.62588  Biso   1.000  Cr
  Mn3      1.0000 0.64459  0.54556  0.50238  Biso   1.000  Mn
  Mn4      1.0000 0.01183  0.27676  0.35978  Biso   1.000  Mn
  C13      1.0000 0.92690  0.36990  0.43060  Biso   1.000  C
  C14      1.0000 0.96710  0.45000  0.39900  Biso   1.000  C
  C15      1.0000 0.06010  0.73870  0.74380  Biso   1.000  C
  C16      1.0000 0.98720  0.75590  0.73900  Biso   1.000  C
  C17      1.0000 0.07510  0.94320  0.58420  Biso   1.000  C
  C18      1.0000 0.11270  0.86820  0.55070  Biso   1.000  C
  C19      1.0000 0.76710  0.55860  0.45910  Biso   1.000  C
  C20      1.0000 0.77440  0.55160  0.52690  Biso   1.000  C
  C21      1.0000 0.98420  0.61220  0.56630  Biso   1.000  C
  C22      1.0000 0.95370  0.70220  0.53680  Biso   1.000  C
  C23      1.0000 0.59020  0.70490  0.45030  Biso   1.000  C
  C24      1.0000 0.56040  0.61910  0.42050  Biso   1.000  C
  O25      1.0000 0.95670  0.53430  0.41370  Biso   1.000  O
  O26      1.0000 0.00450  0.42120  0.36130  Biso   1.000  O
  O27      1.0000 0.89240  0.40140  0.46990  Biso   1.000  O
  O28      1.0000 0.93630  0.28930  0.41670  Biso   1.000  O
  O29      1.0000 0.08040  0.72320  0.79550  Biso   1.000  O
  O30      1.0000 0.09020  0.74160  0.69880  Biso   1.000  O
  O31      1.0000 0.95650  0.75170  0.78510  Biso   1.000  O
  O32      1.0000 0.96580  0.76990  0.68990  Biso   1.000  O
  O33      1.0000 0.10560  0.78380  0.56590  Biso   1.000  O
  O34      1.0000 0.14670  0.89810  0.51000  Biso   1.000  O
  O35      1.0000 0.04110  0.91400  0.62430  Biso   1.000  O
  O36      1.0000 0.08020  0.02630  0.56870  Biso   1.000  O
  O37      1.0000 0.72450  0.55140  0.55520  Biso   1.000  O
  O38      1.0000 0.82790  0.54590  0.54740  Biso   1.000  O
  O39      1.0000 0.71280  0.55430  0.43890  Biso   1.000  O
  O40      1.0000 0.81750  0.56460  0.43080  Biso   1.000  O
  O41      1.0000 0.96680  0.53370  0.54550  Biso   1.000  O
  O42      1.0000 0.02200  0.62500  0.60590  Biso   1.000  O
  O43      1.0000 0.91580  0.68790  0.49570  Biso   1.000  O
  O44      1.0000 0.96900  0.77880  0.55700  Biso   1.000  O
  O45      1.0000 0.57570  0.53930  0.43830  Biso   1.000  O
  O46      1.0000 0.52000  0.63450  0.38020  Biso   1.000  O
  O47      1.0000 0.62560  0.68900  0.49180  Biso   1.000  O
  O48      1.0000 0.57580  0.78440  0.42990  Biso   1.000  O
  Cr5      1.0000 0.39573  0.95391  0.98245  Biso   1.000  Cr
  Cr6      1.0000 0.53410  0.73214  0.12588  Biso   1.000  Cr
  Mn5      1.0000 0.14459  0.95444  0.00238  Biso   1.000  Mn
  Mn6      1.0000 0.51183  0.22324  0.85978  Biso   1.000  Mn
  C25      1.0000 0.42690  0.13010  0.93060  Biso   1.000  C
  C26      1.0000 0.46710  0.05000  0.89900  Biso   1.000  C
  C27      1.0000 0.56010  0.76130  0.24380  Biso   1.000  C
  C28      1.0000 0.48720  0.74410  0.23900  Biso   1.000  C
  C29      1.0000 0.57510  0.55680  0.08420  Biso   1.000  C
  C30      1.0000 0.61270  0.63180  0.05070  Biso   1.000  C
  C31      1.0000 0.26710  0.94140  0.95910  Biso   1.000  C
  C32      1.0000 0.27440  0.94840  0.02690  Biso   1.000  C
  C33      1.0000 0.48420  0.88780  0.06630  Biso   1.000  C
  C34      1.0000 0.45370  0.79780  0.03680  Biso   1.000  C
  C35      1.0000 0.09020  0.79510  0.95030  Biso   1.000  C
  C36      1.0000 0.06040  0.88090  0.92050  Biso   1.000  C
  O49      1.0000 0.45670  0.96570  0.91370  Biso   1.000  O
  O50      1.0000 0.50450  0.07880  0.86130  Biso   1.000  O
  O51      1.0000 0.39240  0.09860  0.96990  Biso   1.000  O
  O52      1.0000 0.43630  0.21070  0.91670  Biso   1.000  O
  O53      1.0000 0.58040  0.77680  0.29550  Biso   1.000  O
  O54      1.0000 0.59020  0.75840  0.19880  Biso   1.000  O
  O55      1.0000 0.45650  0.74830  0.28510  Biso   1.000  O
  O56      1.0000 0.46580  0.73010  0.18990  Biso   1.000  O
  O57      1.0000 0.60560  0.71620  0.06590  Biso   1.000  O
  O58      1.0000 0.64670  0.60190  0.01000  Biso   1.000  O
  O59      1.0000 0.54110  0.58600  0.12430  Biso   1.000  O
  O60      1.0000 0.58020  0.47370  0.06870  Biso   1.000  O
  O61      1.0000 0.22450  0.94860  0.05520  Biso   1.000  O
  O62      1.0000 0.32790  0.95410  0.04740  Biso   1.000  O
  O63      1.0000 0.21280  0.94570  0.93890  Biso   1.000  O
  O64      1.0000 0.31750  0.93540  0.93080  Biso   1.000  O
  O65      1.0000 0.46680  0.96630  0.04550  Biso   1.000  O
  O66      1.0000 0.52200  0.87500  0.10590  Biso   1.000  O
  O67      1.0000 0.41580  0.81210  0.99570  Biso   1.000  O
  O68      1.0000 0.46900  0.72120  0.05700  Biso   1.000  O
  O69      1.0000 0.07570  0.96070  0.93830  Biso   1.000  O
  O70      1.0000 0.02000  0.86550  0.88020  Biso   1.000  O
  O71      1.0000 0.12560  0.81100  0.99180  Biso   1.000  O
  O72      1.0000 0.07580  0.71560  0.92990  Biso   1.000  O
  Cr7      1.0000 0.89573  0.45391  0.98245  Biso   1.000  Cr
  Cr8      1.0000 0.03410  0.23214  0.12588  Biso   1.000  Cr
  Mn7      1.0000 0.64459  0.45444  0.00238  Biso   1.000  Mn
  Mn8      1.0000 0.01183  0.72324  0.85978  Biso   1.000  Mn
  C37      1.0000 0.92690  0.63010  0.93060  Biso   1.000  C
  C38      1.0000 0.96710  0.55000  0.89900  Biso   1.000  C
  C39      1.0000 0.06010  0.26130  0.24380  Biso   1.000  C
  C40      1.0000 0.98720  0.24410  0.23900  Biso   1.000  C
  C41      1.0000 0.07510  0.05680  0.08420  Biso   1.000  C
  C42      1.0000 0.11270  0.13180  0.05070  Biso   1.000  C
  C43      1.0000 0.76710  0.44140  0.95910  Biso   1.000  C
  C44      1.0000 0.77440  0.44840  0.02690  Biso   1.000  C
  C45      1.0000 0.98420  0.38780  0.06630  Biso   1.000  C
  C46      1.0000 0.95370  0.29780  0.03680  Biso   1.000  C
  C47      1.0000 0.59020  0.29510  0.95030  Biso   1.000  C
  C48      1.0000 0.56040  0.38090  0.92050  Biso   1.000  C
  O73      1.0000 0.95670  0.46570  0.91370  Biso   1.000  O
  O74      1.0000 0.00450  0.57880  0.86130  Biso   1.000  O
  O75      1.0000 0.89240  0.59860  0.96990  Biso   1.000  O
  O76      1.0000 0.93630  0.71070  0.91670  Biso   1.000  O
  O77      1.0000 0.08040  0.27680  0.29550  Biso   1.000  O
  O78      1.0000 0.09020  0.25840  0.19880  Biso   1.000  O
  O79      1.0000 0.95650  0.24830  0.28510  Biso   1.000  O
  O80      1.0000 0.96580  0.23010  0.18990  Biso   1.000  O
  O81      1.0000 0.10560  0.21620  0.06590  Biso   1.000  O
  O82      1.0000 0.14670  0.10190  0.01000  Biso   1.000  O
  O83      1.0000 0.04110  0.08600  0.12430  Biso   1.000  O
  O84      1.0000 0.08020  0.97370  0.06870  Biso   1.000  O
  O85      1.0000 0.72450  0.44860  0.05520  Biso   1.000  O
  O86      1.0000 0.82790  0.45410  0.04740  Biso   1.000  O
  O87      1.0000 0.71280  0.44570  0.93890  Biso   1.000  O
  O88      1.0000 0.81750  0.43540  0.93080  Biso   1.000  O
  O89      1.0000 0.96680  0.46630  0.04550  Biso   1.000  O
  O90      1.0000 0.02200  0.37500  0.10590  Biso   1.000  O
  O91      1.0000 0.91580  0.31210  0.99570  Biso   1.000  O
  O92      1.0000 0.96900  0.22120  0.05700  Biso   1.000  O
  O93      1.0000 0.57570  0.46070  0.93830  Biso   1.000  O
  O94      1.0000 0.52000  0.36550  0.88020  Biso   1.000  O
  O95      1.0000 0.62560  0.31100  0.99180  Biso   1.000  O
  O96      1.0000 0.57580  0.21560  0.92990  Biso   1.000  O
  In1      1.0000 0.18127  0.35638  0.80647  Biso   1.000  In
  C49      1.0000 0.25100  0.52750  0.86520  Biso   1.000  C
  C50      1.0000 0.25650  0.62550  0.86750  Biso   1.000  C
  H1       1.0000 0.22890  0.66330  0.84610  Biso   1.000  H
  C51      1.0000 0.30320  0.66680  0.90180  Biso   1.000  C
  H2       1.0000 0.30690  0.73240  0.90330  Biso   1.000  H
  C52      1.0000 0.34450  0.61030  0.93380  Biso   1.000  C
  H3       1.0000 0.37580  0.63800  0.95680  Biso   1.000  H
  C53      1.0000 0.33900  0.51240  0.93150  Biso   1.000  C
  H4       1.0000 0.36650  0.47450  0.95300  Biso   1.000  H
  C54      1.0000 0.29220  0.47100  0.89720  Biso   1.000  C
  C55      1.0000 0.29270  0.37260  0.89720  Biso   1.000  C
  H5       1.0000 0.32390  0.34280  0.91920  Biso   1.000  H
  C56      1.0000 0.26080  0.22300  0.87650  Biso   1.000  C
  H6       1.0000 0.28060  0.20940  0.91390  Biso   1.000  H
  H7       1.0000 0.28720  0.19800  0.84590  Biso   1.000  H
  C57      1.0000 0.19470  0.17490  0.87320  Biso   1.000  C
  H8       1.0000 0.20130  0.10810  0.86570  Biso   1.000  H
  H9       1.0000 0.17650  0.17960  0.91170  Biso   1.000  H
  C58      1.0000 0.07960  0.20930  0.84720  Biso   1.000  C
  H10      1.0000 0.05530  0.20670  0.81110  Biso   1.000  H
  H11      1.0000 0.06890  0.15440  0.87040  Biso   1.000  H
  C59      1.0000 0.06500  0.28860  0.87670  Biso   1.000  C
  H12      1.0000 0.09040  0.29270  0.91210  Biso   1.000  H
  H13      1.0000 0.02120  0.28690  0.88770  Biso   1.000  H
  C60      1.0000 0.04170  0.39970  0.78930  Biso   1.000  C
  H14      1.0000 0.03100  0.34010  0.77060  Biso   1.000  H
  H15      1.0000 0.00290  0.42670  0.80350  Biso   1.000  H
  C61      1.0000 0.06280  0.45580  0.74920  Biso   1.000  C
  H16      1.0000 0.07270  0.51780  0.76510  Biso   1.000  H
  H17      1.0000 0.03300  0.46270  0.71720  Biso   1.000  H
  C62      1.0000 0.13490  0.39300  0.67490  Biso   1.000  C
  H18      1.0000 0.10450  0.41520  0.64890  Biso   1.000  H
  C63      1.0000 0.18740  0.35280  0.65030  Biso   1.000  C
  C64      1.0000 0.18730  0.35160  0.58960  Biso   1.000  C
  H19      1.0000 0.15330  0.37600  0.56870  Biso   1.000  H
  C65      1.0000 0.23820  0.31420  0.56000  Biso   1.000  C
  H20      1.0000 0.23820  0.31340  0.51940  Biso   1.000  H
  C66      1.0000 0.28910  0.27780  0.59120  Biso   1.000  C
  H21      1.0000 0.32310  0.25270  0.57150  Biso   1.000  H
  C67      1.0000 0.28910  0.27890  0.65200  Biso   1.000  C
  H22      1.0000 0.32320  0.25460  0.67280  Biso   1.000  H
  C68      1.0000 0.23830  0.31640  0.68150  Biso   1.000  C
  O97      1.0000 0.20880  0.49360  0.82540  Biso   1.000  O
  O98      1.0000 0.24150  0.31150  0.73710  Biso   1.000  O
  N1       1.0000 0.25420  0.31990  0.86960  Biso   1.000  N
  N2       1.0000 0.14960  0.20660  0.83310  Biso   1.000  N
  H23      1.0000 0.15340  0.16960  0.80080  Biso   1.000  H
  N3       1.0000 0.07780  0.38020  0.83560  Biso   1.000  N
  H24      1.0000 0.07760  0.43210  0.85910  Biso   1.000  H
  N4       1.0000 0.12300  0.40350  0.72940  Biso   1.000  N
  C69      1.0000 0.23380  0.55370  0.84890  Biso   1.000  C
  C70      1.0000 0.22940  0.65140  0.84340  Biso   1.000  C
  C71      1.0000 0.26640  0.70980  0.87840  Biso   1.000  C
  C72      1.0000 0.30790  0.67040  0.91900  Biso   1.000  C
  C73      1.0000 0.31230  0.57270  0.92460  Biso   1.000  C
  C74      1.0000 0.27520  0.51430  0.88950  Biso   1.000  C
  C75      1.0000 0.27400  0.41580  0.91130  Biso   1.000  C
  C76      1.0000 0.22100  0.26850  0.92420  Biso   1.000  C
  C77      1.0000 0.21520  0.17970  0.88700  Biso   1.000  C
  C78      1.0000 0.10830  0.19220  0.86650  Biso   1.000  C
  C79      1.0000 0.08420  0.28030  0.89700  Biso   1.000  C
  C80      1.0000 0.04140  0.35410  0.80820  Biso   1.000  C
  C81      1.0000 0.05980  0.40390  0.75200  Biso   1.000  C
  C82      1.0000 0.13840  0.35880  0.67860  Biso   1.000  C
  C83      1.0000 0.20180  0.33040  0.65980  Biso   1.000  C
  C84      1.0000 0.20690  0.32470  0.59940  Biso   1.000  C
  C85      1.0000 0.26250  0.29360  0.57480  Biso   1.000  C
  C86      1.0000 0.31290  0.26820  0.61050  Biso   1.000  C
  C87      1.0000 0.30790  0.27390  0.67090  Biso   1.000  C
  C88      1.0000 0.25230  0.30500  0.69560  Biso   1.000  C
  H25      1.0000 0.20170  0.67770  0.81620  Biso   1.000  H
  H26      1.0000 0.26350  0.77510  0.87470  Biso   1.000  H
  H27      1.0000 0.33270  0.70950  0.94240  Biso   1.000  H
  H28      1.0000 0.34000  0.54640  0.95170  Biso   1.000  H
  H29      1.0000 0.29660  0.40350  0.94560  Biso   1.000  H
  H30      1.0000 0.18010  0.28560  0.93930  Biso   1.000  H
  H31      1.0000 0.24890  0.25680  0.95710  Biso   1.000  H
  H32      1.0000 0.25580  0.16280  0.87160  Biso   1.000  H
  H33      1.0000 0.20030  0.12750  0.91070  Biso   1.000  H
  H34      1.0000 0.11000  0.14140  0.89500  Biso   1.000  H
  H35      1.0000 0.07770  0.17430  0.83680  Biso   1.000  H
  H36      1.0000 0.04050  0.27300  0.90740  Biso   1.000  H
  H37      1.0000 0.10870  0.29360  0.93210  Biso   1.000  H
  H38      1.0000 0.00410  0.38390  0.82350  Biso   1.000  H
  H39      1.0000 0.03120  0.28870  0.79940  Biso   1.000  H
  H40      1.0000 0.02750  0.39370  0.72240  Biso   1.000  H
  H41      1.0000 0.06300  0.47140  0.75910  Biso   1.000  H
  H42      1.0000 0.10890  0.37100  0.64930  Biso   1.000  H
  H43      1.0000 0.17320  0.34170  0.57550  Biso   1.000  H
  H44      1.0000 0.26590  0.28970  0.53430  Biso   1.000  H
  H45      1.0000 0.35010  0.24740  0.59400  Biso   1.000  H
  H46      1.0000 0.34160  0.25690  0.69480  Biso   1.000  H
  H47      1.0000 0.17440  0.15590  0.80870  Biso   1.000  H
  H48      1.0000 0.08870  0.41280  0.87250  Biso   1.000  H
  N5       1.0000 0.24600  0.34680  0.88830  Biso   1.000  N
  N6       1.0000 0.17040  0.19800  0.83850  Biso   1.000  N
  N7       1.0000 0.09170  0.35660  0.85330  Biso   1.000  N
  N8       1.0000 0.12050  0.36790  0.73060  Biso   1.000  N
  O99      1.0000 0.19530  0.51010  0.80790  Biso   1.000  O
  O100     1.0000 0.24750  0.30870  0.75200  Biso   1.000  O
  In2      1.0000 0.68127  0.85638  0.80647  Biso   1.000  In
  C89      1.0000 0.75100  0.02750  0.86520  Biso   1.000  C
  C90      1.0000 0.75650  0.12550  0.86750  Biso   1.000  C
  H49      1.0000 0.72890  0.16330  0.84610  Biso   1.000  H
  C91      1.0000 0.80320  0.16680  0.90180  Biso   1.000  C
  H50      1.0000 0.80690  0.23240  0.90330  Biso   1.000  H
  C92      1.0000 0.84450  0.11030  0.93380  Biso   1.000  C
  H51      1.0000 0.87580  0.13800  0.95680  Biso   1.000  H
  C93      1.0000 0.83900  0.01240  0.93150  Biso   1.000  C
  H52      1.0000 0.86650  0.97450  0.95300  Biso   1.000  H
  C94      1.0000 0.79220  0.97100  0.89720  Biso   1.000  C
  C95      1.0000 0.79270  0.87260  0.89720  Biso   1.000  C
  H53      1.0000 0.82390  0.84280  0.91920  Biso   1.000  H
  C96      1.0000 0.76080  0.72300  0.87650  Biso   1.000  C
  H54      1.0000 0.78060  0.70940  0.91390  Biso   1.000  H
  H55      1.0000 0.78720  0.69800  0.84590  Biso   1.000  H
  C97      1.0000 0.69470  0.67490  0.87320  Biso   1.000  C
  H56      1.0000 0.70130  0.60810  0.86570  Biso   1.000  H
  H57      1.0000 0.67650  0.67960  0.91170  Biso   1.000  H
  C98      1.0000 0.57960  0.70930  0.84720  Biso   1.000  C
  H58      1.0000 0.55530  0.70670  0.81110  Biso   1.000  H
  H59      1.0000 0.56890  0.65440  0.87040  Biso   1.000  H
  C99      1.0000 0.56500  0.78860  0.87670  Biso   1.000  C
  H60      1.0000 0.59040  0.79270  0.91210  Biso   1.000  H
  H61      1.0000 0.52120  0.78690  0.88770  Biso   1.000  H
  C100     1.0000 0.54170  0.89970  0.78930  Biso   1.000  C
  H62      1.0000 0.53100  0.84010  0.77060  Biso   1.000  H
  H63      1.0000 0.50290  0.92670  0.80350  Biso   1.000  H
  C101     1.0000 0.56280  0.95580  0.74920  Biso   1.000  C
  H64      1.0000 0.57270  0.01780  0.76510  Biso   1.000  H
  H65      1.0000 0.53300  0.96270  0.71720  Biso   1.000  H
  C102     1.0000 0.63490  0.89300  0.67490  Biso   1.000  C
  H66      1.0000 0.60450  0.91520  0.64890  Biso   1.000  H
  C103     1.0000 0.68740  0.85280  0.65030  Biso   1.000  C
  C104     1.0000 0.68730  0.85160  0.58960  Biso   1.000  C
  H67      1.0000 0.65330  0.87600  0.56870  Biso   1.000  H
  C105     1.0000 0.73820  0.81420  0.56000  Biso   1.000  C
  H68      1.0000 0.73820  0.81340  0.51940  Biso   1.000  H
  C106     1.0000 0.78910  0.77780  0.59120  Biso   1.000  C
  H69      1.0000 0.82310  0.75270  0.57150  Biso   1.000  H
  C107     1.0000 0.78910  0.77890  0.65200  Biso   1.000  C
  H70      1.0000 0.82320  0.75460  0.67280  Biso   1.000  H
  C108     1.0000 0.73830  0.81640  0.68150  Biso   1.000  C
  O101     1.0000 0.70880  0.99360  0.82540  Biso   1.000  O
  O102     1.0000 0.74150  0.81150  0.73710  Biso   1.000  O
  N9       1.0000 0.75420  0.81990  0.86960  Biso   1.000  N
  N10      1.0000 0.64960  0.70660  0.83310  Biso   1.000  N
  H71      1.0000 0.65340  0.66960  0.80080  Biso   1.000  H
  N11      1.0000 0.57780  0.88020  0.83560  Biso   1.000  N
  H72      1.0000 0.57760  0.93210  0.85910  Biso   1.000  H
  N12      1.0000 0.62300  0.90350  0.72940  Biso   1.000  N
  C109     1.0000 0.73380  0.05370  0.84890  Biso   1.000  C
  C110     1.0000 0.72940  0.15140  0.84340  Biso   1.000  C
  C111     1.0000 0.76640  0.20980  0.87840  Biso   1.000  C
  C112     1.0000 0.80790  0.17040  0.91900  Biso   1.000  C
  C113     1.0000 0.81230  0.07270  0.92460  Biso   1.000  C
  C114     1.0000 0.77520  0.01430  0.88950  Biso   1.000  C
  C115     1.0000 0.77400  0.91580  0.91130  Biso   1.000  C
  C116     1.0000 0.72100  0.76850  0.92420  Biso   1.000  C
  C117     1.0000 0.71520  0.67970  0.88700  Biso   1.000  C
  C118     1.0000 0.60830  0.69220  0.86650  Biso   1.000  C
  C119     1.0000 0.58420  0.78030  0.89700  Biso   1.000  C
  C120     1.0000 0.54140  0.85410  0.80820  Biso   1.000  C
  C121     1.0000 0.55980  0.90390  0.75200  Biso   1.000  C
  C122     1.0000 0.63840  0.85880  0.67860  Biso   1.000  C
  C123     1.0000 0.70180  0.83040  0.65980  Biso   1.000  C
  C124     1.0000 0.70690  0.82470  0.59940  Biso   1.000  C
  C125     1.0000 0.76250  0.79360  0.57480  Biso   1.000  C
  C126     1.0000 0.81290  0.76820  0.61050  Biso   1.000  C
  C127     1.0000 0.80790  0.77390  0.67090  Biso   1.000  C
  C128     1.0000 0.75230  0.80500  0.69560  Biso   1.000  C
  H73      1.0000 0.70170  0.17770  0.81620  Biso   1.000  H
  H74      1.0000 0.76350  0.27510  0.87470  Biso   1.000  H
  H75      1.0000 0.83270  0.20950  0.94240  Biso   1.000  H
  H76      1.0000 0.84000  0.04640  0.95170  Biso   1.000  H
  H77      1.0000 0.79660  0.90350  0.94560  Biso   1.000  H
  H78      1.0000 0.68010  0.78560  0.93930  Biso   1.000  H
  H79      1.0000 0.74890  0.75680  0.95710  Biso   1.000  H
  H80      1.0000 0.75580  0.66280  0.87160  Biso   1.000  H
  H81      1.0000 0.70030  0.62750  0.91070  Biso   1.000  H
  H82      1.0000 0.61000  0.64140  0.89500  Biso   1.000  H
  H83      1.0000 0.57770  0.67430  0.83680  Biso   1.000  H
  H84      1.0000 0.54050  0.77300  0.90740  Biso   1.000  H
  H85      1.0000 0.60870  0.79360  0.93210  Biso   1.000  H
  H86      1.0000 0.50410  0.88390  0.82350  Biso   1.000  H
  H87      1.0000 0.53120  0.78870  0.79940  Biso   1.000  H
  H88      1.0000 0.52750  0.89370  0.72240  Biso   1.000  H
  H89      1.0000 0.56300  0.97140  0.75910  Biso   1.000  H
  H90      1.0000 0.60890  0.87100  0.64930  Biso   1.000  H
  H91      1.0000 0.67320  0.84170  0.57550  Biso   1.000  H
  H92      1.0000 0.76590  0.78970  0.53430  Biso   1.000  H
  H93      1.0000 0.85010  0.74740  0.59400  Biso   1.000  H
  H94      1.0000 0.84160  0.75690  0.69480  Biso   1.000  H
  H95      1.0000 0.67440  0.65590  0.80870  Biso   1.000  H
  H96      1.0000 0.58870  0.91280  0.87250  Biso   1.000  H
  N13      1.0000 0.74600  0.84680  0.88830  Biso   1.000  N
  N14      1.0000 0.67040  0.69800  0.83850  Biso   1.000  N
  N15      1.0000 0.59170  0.85660  0.85330  Biso   1.000  N
  N16      1.0000 0.62050  0.86790  0.73060  Biso   1.000  N
  O103     1.0000 0.69530  0.01010  0.80790  Biso   1.000  O
  O104     1.0000 0.74750  0.80870  0.75200  Biso   1.000  O
  In3      1.0000 0.18127  0.64362  0.30647  Biso   1.000  In
  C129     1.0000 0.25100  0.47250  0.36520  Biso   1.000  C
  C130     1.0000 0.25650  0.37450  0.36750  Biso   1.000  C
  H97      1.0000 0.22890  0.33670  0.34610  Biso   1.000  H
  C131     1.0000 0.30320  0.33320  0.40180  Biso   1.000  C
  H98      1.0000 0.30690  0.26760  0.40330  Biso   1.000  H
  C132     1.0000 0.34450  0.38970  0.43380  Biso   1.000  C
  H99      1.0000 0.37580  0.36200  0.45680  Biso   1.000  H
  C133     1.0000 0.33900  0.48760  0.43150  Biso   1.000  C
  H100     1.0000 0.36650  0.52550  0.45300  Biso   1.000  H
  C134     1.0000 0.29220  0.52900  0.39720  Biso   1.000  C
  C135     1.0000 0.29270  0.62740  0.39720  Biso   1.000  C
  H101     1.0000 0.32390  0.65720  0.41920  Biso   1.000  H
  C136     1.0000 0.26080  0.77700  0.37650  Biso   1.000  C
  H102     1.0000 0.28060  0.79060  0.41390  Biso   1.000  H
  H103     1.0000 0.28720  0.80200  0.34590  Biso   1.000  H
  C137     1.0000 0.19470  0.82510  0.37320  Biso   1.000  C
  H104     1.0000 0.20130  0.89190  0.36570  Biso   1.000  H
  H105     1.0000 0.17650  0.82040  0.41170  Biso   1.000  H
  C138     1.0000 0.07960  0.79070  0.34720  Biso   1.000  C
  H106     1.0000 0.05530  0.79330  0.31110  Biso   1.000  H
  H107     1.0000 0.06890  0.84560  0.37040  Biso   1.000  H
  C139     1.0000 0.06500  0.71140  0.37670  Biso   1.000  C
  H108     1.0000 0.09040  0.70730  0.41210  Biso   1.000  H
  H109     1.0000 0.02120  0.71310  0.38770  Biso   1.000  H
  C140     1.0000 0.04170  0.60030  0.28930  Biso   1.000  C
  H110     1.0000 0.03100  0.65990  0.27060  Biso   1.000  H
  H111     1.0000 0.00290  0.57330  0.30350  Biso   1.000  H
  C141     1.0000 0.06280  0.54420  0.24920  Biso   1.000  C
  H112     1.0000 0.07270  0.48220  0.26510  Biso   1.000  H
  H113     1.0000 0.03300  0.53730  0.21720  Biso   1.000  H
  C142     1.0000 0.13490  0.60700  0.17490  Biso   1.000  C
  H114     1.0000 0.10450  0.58480  0.14890  Biso   1.000  H
  C143     1.0000 0.18740  0.64720  0.15030  Biso   1.000  C
  C144     1.0000 0.18730  0.64840  0.08960  Biso   1.000  C
  H115     1.0000 0.15330  0.62400  0.06870  Biso   1.000  H
  C145     1.0000 0.23820  0.68580  0.06000  Biso   1.000  C
  H116     1.0000 0.23820  0.68660  0.01940  Biso   1.000  H
  C146     1.0000 0.28910  0.72220  0.09120  Biso   1.000  C
  H117     1.0000 0.32310  0.74730  0.07150  Biso   1.000  H
  C147     1.0000 0.28910  0.72110  0.15200  Biso   1.000  C
  H118     1.0000 0.32320  0.74540  0.17280  Biso   1.000  H
  C148     1.0000 0.23830  0.68360  0.18150  Biso   1.000  C
  O105     1.0000 0.20880  0.50640  0.32540  Biso   1.000  O
  O106     1.0000 0.24150  0.68850  0.23710  Biso   1.000  O
  N17      1.0000 0.25420  0.68010  0.36960  Biso   1.000  N
  N18      1.0000 0.14960  0.79340  0.33310  Biso   1.000  N
  H119     1.0000 0.15340  0.83040  0.30080  Biso   1.000  H
  N19      1.0000 0.07780  0.61980  0.33560  Biso   1.000  N
  H120     1.0000 0.07760  0.56790  0.35910  Biso   1.000  H
  N20      1.0000 0.12300  0.59650  0.22940  Biso   1.000  N
  C149     1.0000 0.23380  0.44630  0.34890  Biso   1.000  C
  C150     1.0000 0.22940  0.34860  0.34340  Biso   1.000  C
  C151     1.0000 0.26640  0.29020  0.37840  Biso   1.000  C
  C152     1.0000 0.30790  0.32960  0.41900  Biso   1.000  C
  C153     1.0000 0.31230  0.42730  0.42460  Biso   1.000  C
  C154     1.0000 0.27520  0.48570  0.38950  Biso   1.000  C
  C155     1.0000 0.27400  0.58420  0.41130  Biso   1.000  C
  C156     1.0000 0.22100  0.73150  0.42420  Biso   1.000  C
  C157     1.0000 0.21520  0.82030  0.38700  Biso   1.000  C
  C158     1.0000 0.10830  0.80780  0.36650  Biso   1.000  C
  C159     1.0000 0.08420  0.71970  0.39700  Biso   1.000  C
  C160     1.0000 0.04140  0.64590  0.30820  Biso   1.000  C
  C161     1.0000 0.05980  0.59610  0.25200  Biso   1.000  C
  C162     1.0000 0.13840  0.64120  0.17860  Biso   1.000  C
  C163     1.0000 0.20180  0.66960  0.15980  Biso   1.000  C
  C164     1.0000 0.20690  0.67530  0.09940  Biso   1.000  C
  C165     1.0000 0.26250  0.70640  0.07480  Biso   1.000  C
  C166     1.0000 0.31290  0.73180  0.11050  Biso   1.000  C
  C167     1.0000 0.30790  0.72610  0.17090  Biso   1.000  C
  C168     1.0000 0.25230  0.69500  0.19560  Biso   1.000  C
  H121     1.0000 0.20170  0.32230  0.31620  Biso   1.000  H
  H122     1.0000 0.26350  0.22490  0.37470  Biso   1.000  H
  H123     1.0000 0.33270  0.29050  0.44240  Biso   1.000  H
  H124     1.0000 0.34000  0.45360  0.45170  Biso   1.000  H
  H125     1.0000 0.29660  0.59650  0.44560  Biso   1.000  H
  H126     1.0000 0.18010  0.71440  0.43930  Biso   1.000  H
  H127     1.0000 0.24890  0.74320  0.45710  Biso   1.000  H
  H128     1.0000 0.25580  0.83720  0.37160  Biso   1.000  H
  H129     1.0000 0.20030  0.87250  0.41070  Biso   1.000  H
  H130     1.0000 0.11000  0.85860  0.39500  Biso   1.000  H
  H131     1.0000 0.07770  0.82570  0.33680  Biso   1.000  H
  H132     1.0000 0.04050  0.72700  0.40740  Biso   1.000  H
  H133     1.0000 0.10870  0.70640  0.43210  Biso   1.000  H
  H134     1.0000 0.00410  0.61610  0.32350  Biso   1.000  H
  H135     1.0000 0.03120  0.71130  0.29940  Biso   1.000  H
  H136     1.0000 0.02750  0.60630  0.22240  Biso   1.000  H
  H137     1.0000 0.06300  0.52860  0.25910  Biso   1.000  H
  H138     1.0000 0.10890  0.62900  0.14930  Biso   1.000  H
  H139     1.0000 0.17320  0.65830  0.07550  Biso   1.000  H
  H140     1.0000 0.26590  0.71030  0.03430  Biso   1.000  H
  H141     1.0000 0.35010  0.75260  0.09400  Biso   1.000  H
  H142     1.0000 0.34160  0.74310  0.19480  Biso   1.000  H
  H143     1.0000 0.17440  0.84410  0.30870  Biso   1.000  H
  H144     1.0000 0.08870  0.58720  0.37250  Biso   1.000  H
  N21      1.0000 0.24600  0.65320  0.38830  Biso   1.000  N
  N22      1.0000 0.17040  0.80200  0.33850  Biso   1.000  N
  N23      1.0000 0.09170  0.64340  0.35330  Biso   1.000  N
  N24      1.0000 0.12050  0.63210  0.23060  Biso   1.000  N
  O107     1.0000 0.19530  0.48990  0.30790  Biso   1.000  O
  O108     1.0000 0.24750  0.69130  0.25200  Biso   1.000  O
  In4      1.0000 0.68127  0.14362  0.30647  Biso   1.000  In
  C169     1.0000 0.75100  0.97250  0.36520  Biso   1.000  C
  C170     1.0000 0.75650  0.87450  0.36750  Biso   1.000  C
  H145     1.0000 0.72890  0.83670  0.34610  Biso   1.000  H
  C171     1.0000 0.80320  0.83320  0.40180  Biso   1.000  C
  H146     1.0000 0.80690  0.76760  0.40330  Biso   1.000  H
  C172     1.0000 0.84450  0.88970  0.43380  Biso   1.000  C
  H147     1.0000 0.87580  0.86200  0.45680  Biso   1.000  H
  C173     1.0000 0.83900  0.98760  0.43150  Biso   1.000  C
  H148     1.0000 0.86650  0.02550  0.45300  Biso   1.000  H
  C174     1.0000 0.79220  0.02900  0.39720  Biso   1.000  C
  C175     1.0000 0.79270  0.12740  0.39720  Biso   1.000  C
  H149     1.0000 0.82390  0.15720  0.41920  Biso   1.000  H
  C176     1.0000 0.76080  0.27700  0.37650  Biso   1.000  C
  H150     1.0000 0.78060  0.29060  0.41390  Biso   1.000  H
  H151     1.0000 0.78720  0.30200  0.34590  Biso   1.000  H
  C177     1.0000 0.69470  0.32510  0.37320  Biso   1.000  C
  H152     1.0000 0.70130  0.39190  0.36570  Biso   1.000  H
  H153     1.0000 0.67650  0.32040  0.41170  Biso   1.000  H
  C178     1.0000 0.57960  0.29070  0.34720  Biso   1.000  C
  H154     1.0000 0.55530  0.29330  0.31110  Biso   1.000  H
  H155     1.0000 0.56890  0.34560  0.37040  Biso   1.000  H
  C179     1.0000 0.56500  0.21140  0.37670  Biso   1.000  C
  H156     1.0000 0.59040  0.20730  0.41210  Biso   1.000  H
  H157     1.0000 0.52120  0.21310  0.38770  Biso   1.000  H
  C180     1.0000 0.54170  0.10030  0.28930  Biso   1.000  C
  H158     1.0000 0.53100  0.15990  0.27060  Biso   1.000  H
  H159     1.0000 0.50290  0.07330  0.30350  Biso   1.000  H
  C181     1.0000 0.56280  0.04420  0.24920  Biso   1.000  C
  H160     1.0000 0.57270  0.98220  0.26510  Biso   1.000  H
  H161     1.0000 0.53300  0.03730  0.21720  Biso   1.000  H
  C182     1.0000 0.63490  0.10700  0.17490  Biso   1.000  C
  H162     1.0000 0.60450  0.08480  0.14890  Biso   1.000  H
  C183     1.0000 0.68740  0.14720  0.15030  Biso   1.000  C
  C184     1.0000 0.68730  0.14840  0.08960  Biso   1.000  C
  H163     1.0000 0.65330  0.12400  0.06870  Biso   1.000  H
  C185     1.0000 0.73820  0.18580  0.06000  Biso   1.000  C
  H164     1.0000 0.73820  0.18660  0.01940  Biso   1.000  H
  C186     1.0000 0.78910  0.22220  0.09120  Biso   1.000  C
  H165     1.0000 0.82310  0.24730  0.07150  Biso   1.000  H
  C187     1.0000 0.78910  0.22110  0.15200  Biso   1.000  C
  H166     1.0000 0.82320  0.24540  0.17280  Biso   1.000  H
  C188     1.0000 0.73830  0.18360  0.18150  Biso   1.000  C
  O109     1.0000 0.70880  0.00640  0.32540  Biso   1.000  O
  O110     1.0000 0.74150  0.18850  0.23710  Biso   1.000  O
  N25      1.0000 0.75420  0.18010  0.36960  Biso   1.000  N
  N26      1.0000 0.64960  0.29340  0.33310  Biso   1.000  N
  H167     1.0000 0.65340  0.33040  0.30080  Biso   1.000  H
  N27      1.0000 0.57780  0.11980  0.33560  Biso   1.000  N
  H168     1.0000 0.57760  0.06790  0.35910  Biso   1.000  H
  N28      1.0000 0.62300  0.09650  0.22940  Biso   1.000  N
  C189     1.0000 0.73380  0.94630  0.34890  Biso   1.000  C
  C190     1.0000 0.72940  0.84860  0.34340  Biso   1.000  C
  C191     1.0000 0.76640  0.79020  0.37840  Biso   1.000  C
  C192     1.0000 0.80790  0.82960  0.41900  Biso   1.000  C
  C193     1.0000 0.81230  0.92730  0.42460  Biso   1.000  C
  C194     1.0000 0.77520  0.98570  0.38950  Biso   1.000  C
  C195     1.0000 0.77400  0.08420  0.41130  Biso   1.000  C
  C196     1.0000 0.72100  0.23150  0.42420  Biso   1.000  C
  C197     1.0000 0.71520  0.32030  0.38700  Biso   1.000  C
  C198     1.0000 0.60830  0.30780  0.36650  Biso   1.000  C
  C199     1.0000 0.58420  0.21970  0.39700  Biso   1.000  C
  C200     1.0000 0.54140  0.14590  0.30820  Biso   1.000  C
  C201     1.0000 0.55980  0.09610  0.25200  Biso   1.000  C
  C202     1.0000 0.63840  0.14120  0.17860  Biso   1.000  C
  C203     1.0000 0.70180  0.16960  0.15980  Biso   1.000  C
  C204     1.0000 0.70690  0.17530  0.09940  Biso   1.000  C
  C205     1.0000 0.76250  0.20640  0.07480  Biso   1.000  C
  C206     1.0000 0.81290  0.23180  0.11050  Biso   1.000  C
  C207     1.0000 0.80790  0.22610  0.17090  Biso   1.000  C
  C208     1.0000 0.75230  0.19500  0.19560  Biso   1.000  C
  H169     1.0000 0.70170  0.82230  0.31620  Biso   1.000  H
  H170     1.0000 0.76350  0.72490  0.37470  Biso   1.000  H
  H171     1.0000 0.83270  0.79050  0.44240  Biso   1.000  H
  H172     1.0000 0.84000  0.95360  0.45170  Biso   1.000  H
  H173     1.0000 0.79660  0.09650  0.44560  Biso   1.000  H
  H174     1.0000 0.68010  0.21440  0.43930  Biso   1.000  H
  H175     1.0000 0.74890  0.24320  0.45710  Biso   1.000  H
  H176     1.0000 0.75580  0.33720  0.37160  Biso   1.000  H
  H177     1.0000 0.70030  0.37250  0.41070  Biso   1.000  H
  H178     1.0000 0.61000  0.35860  0.39500  Biso   1.000  H
  H179     1.0000 0.57770  0.32570  0.33680  Biso   1.000  H
  H180     1.0000 0.54050  0.22700  0.40740  Biso   1.000  H
  H181     1.0000 0.60870  0.20640  0.43210  Biso   1.000  H
  H182     1.0000 0.50410  0.11610  0.32350  Biso   1.000  H
  H183     1.0000 0.53120  0.21130  0.29940  Biso   1.000  H
  H184     1.0000 0.52750  0.10630  0.22240  Biso   1.000  H
  H185     1.0000 0.56300  0.02860  0.25910  Biso   1.000  H
  H186     1.0000 0.60890  0.12900  0.14930  Biso   1.000  H
  H187     1.0000 0.67320  0.15830  0.07550  Biso   1.000  H
  H188     1.0000 0.76590  0.21030  0.03430  Biso   1.000  H
  H189     1.0000 0.85010  0.25260  0.09400  Biso   1.000  H
  H190     1.0000 0.84160  0.24310  0.19480  Biso   1.000  H
  H191     1.0000 0.67440  0.34410  0.30870  Biso   1.000  H
  H192     1.0000 0.58870  0.08720  0.37250  Biso   1.000  H
  N29      1.0000 0.74600  0.15320  0.38830  Biso   1.000  N
  N30      1.0000 0.67040  0.30200  0.33850  Biso   1.000  N
  N31      1.0000 0.59170  0.14340  0.35330  Biso   1.000  N
  N32      1.0000 0.62050  0.13210  0.23060  Biso   1.000  N
  O111     1.0000 0.69530  0.98990  0.30790  Biso   1.000  O
  O112     1.0000 0.74750  0.19130  0.25200  Biso   1.000  O
