data_image0
_cell_length_a       17.726
_cell_length_b       17.726
_cell_length_c       38.491
_cell_angle_alpha    90
_cell_angle_beta     90
_cell_angle_gamma    90

_symmetry_space_group_name_H-M    "P 1"
_symmetry_int_tables_number       1

loop_
  _symmetry_equiv_pos_as_xyz
  'x, y, z'

loop_
  _atom_site_label
  _atom_site_occupancy
  _atom_site_fract_x
  _atom_site_fract_y
  _atom_site_fract_z
  _atom_site_thermal_displace_type
  _atom_site_B_iso_or_equiv
  _atom_site_type_symbol
  C1       1.0000 0.25940  0.65250  0.01200  Biso   1.000  C
  C2       1.0000 0.27590  0.71080  0.03835  Biso   1.000  C
  C3       1.0000 0.40070  0.52990  0.13182  Biso   1.000  C
  C4       1.0000 0.46090  0.54910  0.10622  Biso   1.000  C
  Co1      1.0000 0.31579  0.56676  0.07005  Biso   1.000  Co
  F1       1.0000 0.34760  0.68670  0.13870  Biso   1.000  F
  F2       1.0000 0.29970  0.79680  0.14310  Biso   1.000  F
  F3       1.0000 0.40980  0.78150  0.12710  Biso   1.000  F
  F4       1.0000 0.56070  0.62880  0.00720  Biso   1.000  F
  F5       1.0000 0.45760  0.57170  0.99950  Biso   1.000  F
  F6       1.0000 0.45640  0.67850  0.01840  Biso   1.000  F
  N1       1.0000 0.30090  0.68620  0.06969  Biso   1.000  N
  N2       1.0000 0.43670  0.57250  0.07441  Biso   1.000  N
  O1       1.0000 0.28000  0.58603  0.01933  Biso   1.000  O
  O2       1.0000 0.22490  0.66730  0.98413  Biso   1.000  O
  O3       1.0000 0.33419  0.53620  0.12097  Biso   1.000  O
  O4       1.0000 0.41540  0.50840  0.16203  Biso   1.000  O
  C5       1.0000 0.75940  0.15250  0.51200  Biso   1.000  C
  C6       1.0000 0.77590  0.21080  0.53835  Biso   1.000  C
  C7       1.0000 0.90070  0.02990  0.63182  Biso   1.000  C
  C8       1.0000 0.96090  0.04910  0.60622  Biso   1.000  C
  Co2      1.0000 0.81579  0.06676  0.57005  Biso   1.000  Co
  F7       1.0000 0.84760  0.18670  0.63870  Biso   1.000  F
  F8       1.0000 0.79970  0.29680  0.64310  Biso   1.000  F
  F9       1.0000 0.90980  0.28150  0.62710  Biso   1.000  F
  F10      1.0000 0.06070  0.12880  0.50720  Biso   1.000  F
  F11      1.0000 0.95760  0.07170  0.49950  Biso   1.000  F
  F12      1.0000 0.95640  0.17850  0.51840  Biso   1.000  F
  N3       1.0000 0.80090  0.18620  0.56969  Biso   1.000  N
  N4       1.0000 0.93670  0.07250  0.57441  Biso   1.000  N
  O5       1.0000 0.78000  0.08603  0.51933  Biso   1.000  O
  O6       1.0000 0.72490  0.16730  0.48413  Biso   1.000  O
  O7       1.0000 0.83419  0.03620  0.62097  Biso   1.000  O
  O8       1.0000 0.91540  0.00840  0.66203  Biso   1.000  O
  C9       1.0000 0.24060  0.34750  0.51200  Biso   1.000  C
  C10      1.0000 0.22410  0.28920  0.53835  Biso   1.000  C
  C11      1.0000 0.09930  0.47010  0.63182  Biso   1.000  C
  C12      1.0000 0.03910  0.45090  0.60622  Biso   1.000  C
  Co3      1.0000 0.18421  0.43324  0.57005  Biso   1.000  Co
  F13      1.0000 0.15240  0.31330  0.63870  Biso   1.000  F
  F14      1.0000 0.20030  0.20320  0.64310  Biso   1.000  F
  F15      1.0000 0.09020  0.21850  0.62710  Biso   1.000  F
  F16      1.0000 0.93930  0.37120  0.50720  Biso   1.000  F
  F17      1.0000 0.04240  0.42830  0.49950  Biso   1.000  F
  F18      1.0000 0.04360  0.32150  0.51840  Biso   1.000  F
  N5       1.0000 0.19910  0.31380  0.56969  Biso   1.000  N
  N6       1.0000 0.06330  0.42750  0.57441  Biso   1.000  N
  O9       1.0000 0.22000  0.41397  0.51933  Biso   1.000  O
  O10      1.0000 0.27510  0.33270  0.48413  Biso   1.000  O
  O11      1.0000 0.16581  0.46380  0.62097  Biso   1.000  O
  O12      1.0000 0.08460  0.49160  0.66203  Biso   1.000  O
  C13      1.0000 0.74060  0.84750  0.01200  Biso   1.000  C
  C14      1.0000 0.72410  0.78920  0.03835  Biso   1.000  C
  C15      1.0000 0.59930  0.97010  0.13182  Biso   1.000  C
  C16      1.0000 0.53910  0.95090  0.10622  Biso   1.000  C
  Co4      1.0000 0.68421  0.93324  0.07005  Biso   1.000  Co
  F19      1.0000 0.65240  0.81330  0.13870  Biso   1.000  F
  F20      1.0000 0.70030  0.70320  0.14310  Biso   1.000  F
  F21      1.0000 0.59020  0.71850  0.12710  Biso   1.000  F
  F22      1.0000 0.43930  0.87120  0.00720  Biso   1.000  F
  F23      1.0000 0.54240  0.92830  0.99950  Biso   1.000  F
  F24      1.0000 0.54360  0.82150  0.01840  Biso   1.000  F
  N7       1.0000 0.69910  0.81380  0.06969  Biso   1.000  N
  N8       1.0000 0.56330  0.92750  0.07441  Biso   1.000  N
  O13      1.0000 0.72000  0.91397  0.01933  Biso   1.000  O
  O14      1.0000 0.77510  0.83270  0.98413  Biso   1.000  O
  O15      1.0000 0.66581  0.96380  0.12097  Biso   1.000  O
  O16      1.0000 0.58460  0.99160  0.16203  Biso   1.000  O
  C17      1.0000 0.59750  0.00940  0.26200  Biso   1.000  C
  C18      1.0000 0.53920  0.02590  0.28835  Biso   1.000  C
  C19      1.0000 0.72010  0.15070  0.38182  Biso   1.000  C
  C20      1.0000 0.70090  0.21090  0.35622  Biso   1.000  C
  Co5      1.0000 0.68324  0.06579  0.32005  Biso   1.000  Co
  F25      1.0000 0.56330  0.09760  0.38870  Biso   1.000  F
  F26      1.0000 0.45320  0.04970  0.39310  Biso   1.000  F
  F27      1.0000 0.46850  0.15980  0.37710  Biso   1.000  F
  F28      1.0000 0.62120  0.31070  0.25720  Biso   1.000  F
  F29      1.0000 0.67830  0.20760  0.24950  Biso   1.000  F
  F30      1.0000 0.57150  0.20640  0.26840  Biso   1.000  F
  N9       1.0000 0.56380  0.05090  0.31969  Biso   1.000  N
  N10      1.0000 0.67750  0.18670  0.32441  Biso   1.000  N
  O17      1.0000 0.66397  0.03000  0.26933  Biso   1.000  O
  O18      1.0000 0.58270  0.97490  0.23413  Biso   1.000  O
  O19      1.0000 0.71380  0.08419  0.37097  Biso   1.000  O
  O20      1.0000 0.74160  0.16540  0.41203  Biso   1.000  O
  C21      1.0000 0.09750  0.50940  0.76200  Biso   1.000  C
  C22      1.0000 0.03920  0.52590  0.78835  Biso   1.000  C
  C23      1.0000 0.22010  0.65070  0.88182  Biso   1.000  C
  C24      1.0000 0.20090  0.71090  0.85622  Biso   1.000  C
  Co6      1.0000 0.18324  0.56579  0.82005  Biso   1.000  Co
  F31      1.0000 0.06330  0.59760  0.88870  Biso   1.000  F
  F32      1.0000 0.95320  0.54970  0.89310  Biso   1.000  F
  F33      1.0000 0.96850  0.65980  0.87710  Biso   1.000  F
  F34      1.0000 0.12120  0.81070  0.75720  Biso   1.000  F
  F35      1.0000 0.17830  0.70760  0.74950  Biso   1.000  F
  F36      1.0000 0.07150  0.70640  0.76840  Biso   1.000  F
  N11      1.0000 0.06380  0.55090  0.81969  Biso   1.000  N
  N12      1.0000 0.17750  0.68670  0.82441  Biso   1.000  N
  O21      1.0000 0.16397  0.53000  0.76933  Biso   1.000  O
  O22      1.0000 0.08270  0.47490  0.73413  Biso   1.000  O
  O23      1.0000 0.21380  0.58419  0.87097  Biso   1.000  O
  O24      1.0000 0.24160  0.66540  0.91203  Biso   1.000  O
  C25      1.0000 0.90250  0.99060  0.76200  Biso   1.000  C
  C26      1.0000 0.96080  0.97410  0.78835  Biso   1.000  C
  C27      1.0000 0.77990  0.84930  0.88182  Biso   1.000  C
  C28      1.0000 0.79910  0.78910  0.85622  Biso   1.000  C
  Co7      1.0000 0.81676  0.93421  0.82005  Biso   1.000  Co
  F37      1.0000 0.93670  0.90240  0.88870  Biso   1.000  F
  F38      1.0000 0.04680  0.95030  0.89310  Biso   1.000  F
  F39      1.0000 0.03150  0.84020  0.87710  Biso   1.000  F
  F40      1.0000 0.87880  0.68930  0.75720  Biso   1.000  F
  F41      1.0000 0.82170  0.79240  0.74950  Biso   1.000  F
  F42      1.0000 0.92850  0.79360  0.76840  Biso   1.000  F
  N13      1.0000 0.93620  0.94910  0.81969  Biso   1.000  N
  N14      1.0000 0.82250  0.81330  0.82441  Biso   1.000  N
  O25      1.0000 0.83603  0.97000  0.76933  Biso   1.000  O
  O26      1.0000 0.91730  0.02510  0.73413  Biso   1.000  O
  O27      1.0000 0.78620  0.91581  0.87097  Biso   1.000  O
  O28      1.0000 0.75840  0.83460  0.91203  Biso   1.000  O
  C29      1.0000 0.40250  0.49060  0.26200  Biso   1.000  C
  C30      1.0000 0.46080  0.47410  0.28835  Biso   1.000  C
  C31      1.0000 0.27990  0.34930  0.38182  Biso   1.000  C
  C32      1.0000 0.29910  0.28910  0.35622  Biso   1.000  C
  Co8      1.0000 0.31676  0.43421  0.32005  Biso   1.000  Co
  F43      1.0000 0.43670  0.40240  0.38870  Biso   1.000  F
  F44      1.0000 0.54680  0.45030  0.39310  Biso   1.000  F
  F45      1.0000 0.53150  0.34020  0.37710  Biso   1.000  F
  F46      1.0000 0.37880  0.18930  0.25720  Biso   1.000  F
  F47      1.0000 0.32170  0.29240  0.24950  Biso   1.000  F
  F48      1.0000 0.42850  0.29360  0.26840  Biso   1.000  F
  N15      1.0000 0.43620  0.44910  0.31969  Biso   1.000  N
  N16      1.0000 0.32250  0.31330  0.32441  Biso   1.000  N
  O29      1.0000 0.33603  0.47000  0.26933  Biso   1.000  O
  O30      1.0000 0.41730  0.52510  0.23413  Biso   1.000  O
  O31      1.0000 0.28620  0.41581  0.37097  Biso   1.000  O
  O32      1.0000 0.25840  0.33460  0.41203  Biso   1.000  O
  C33      1.0000 0.75940  0.34750  0.51200  Biso   1.000  C
  C34      1.0000 0.77590  0.28920  0.53835  Biso   1.000  C
  C35      1.0000 0.90070  0.47010  0.63182  Biso   1.000  C
  C36      1.0000 0.96090  0.45090  0.60622  Biso   1.000  C
  Co9      1.0000 0.81579  0.43324  0.57005  Biso   1.000  Co
  F49      1.0000 0.84760  0.31330  0.63870  Biso   1.000  F
  F50      1.0000 0.79970  0.20320  0.64310  Biso   1.000  F
  F51      1.0000 0.90980  0.21850  0.62710  Biso   1.000  F
  F52      1.0000 0.06070  0.37120  0.50720  Biso   1.000  F
  F53      1.0000 0.95760  0.42830  0.49950  Biso   1.000  F
  F54      1.0000 0.95640  0.32150  0.51840  Biso   1.000  F
  N17      1.0000 0.80090  0.31380  0.56969  Biso   1.000  N
  N18      1.0000 0.93670  0.42750  0.57441  Biso   1.000  N
  O33      1.0000 0.78000  0.41397  0.51933  Biso   1.000  O
  O34      1.0000 0.72490  0.33270  0.48413  Biso   1.000  O
  O35      1.0000 0.83419  0.46380  0.62097  Biso   1.000  O
  O36      1.0000 0.91540  0.49160  0.66203  Biso   1.000  O
  C37      1.0000 0.25940  0.84750  0.01200  Biso   1.000  C
  C38      1.0000 0.27590  0.78920  0.03835  Biso   1.000  C
  C39      1.0000 0.40070  0.97010  0.13182  Biso   1.000  C
  C40      1.0000 0.46090  0.95090  0.10622  Biso   1.000  C
  Co10     1.0000 0.31579  0.93324  0.07005  Biso   1.000  Co
  F55      1.0000 0.34760  0.81330  0.13870  Biso   1.000  F
  F56      1.0000 0.29970  0.70320  0.14310  Biso   1.000  F
  F57      1.0000 0.40980  0.71850  0.12710  Biso   1.000  F
  F58      1.0000 0.56070  0.87120  0.00720  Biso   1.000  F
  F59      1.0000 0.45760  0.92830  0.99950  Biso   1.000  F
  F60      1.0000 0.45640  0.82150  0.01840  Biso   1.000  F
  N19      1.0000 0.30090  0.81380  0.06969  Biso   1.000  N
  N20      1.0000 0.43670  0.92750  0.07441  Biso   1.000  N
  O37      1.0000 0.28000  0.91397  0.01933  Biso   1.000  O
  O38      1.0000 0.22490  0.83270  0.98413  Biso   1.000  O
  O39      1.0000 0.33419  0.96380  0.12097  Biso   1.000  O
  O40      1.0000 0.41540  0.99160  0.16203  Biso   1.000  O
  C41      1.0000 0.74060  0.65250  0.01200  Biso   1.000  C
  C42      1.0000 0.72410  0.71080  0.03835  Biso   1.000  C
  C43      1.0000 0.59930  0.52990  0.13182  Biso   1.000  C
  C44      1.0000 0.53910  0.54910  0.10622  Biso   1.000  C
  Co11     1.0000 0.68421  0.56676  0.07005  Biso   1.000  Co
  F61      1.0000 0.65240  0.68670  0.13870  Biso   1.000  F
  F62      1.0000 0.70030  0.79680  0.14310  Biso   1.000  F
  F63      1.0000 0.59020  0.78150  0.12710  Biso   1.000  F
  F64      1.0000 0.43930  0.62880  0.00720  Biso   1.000  F
  F65      1.0000 0.54240  0.57170  0.99950  Biso   1.000  F
  F66      1.0000 0.54360  0.67850  0.01840  Biso   1.000  F
  N21      1.0000 0.69910  0.68620  0.06969  Biso   1.000  N
  N22      1.0000 0.56330  0.57250  0.07441  Biso   1.000  N
  O41      1.0000 0.72000  0.58603  0.01933  Biso   1.000  O
  O42      1.0000 0.77510  0.66730  0.98413  Biso   1.000  O
  O43      1.0000 0.66581  0.53620  0.12097  Biso   1.000  O
  O44      1.0000 0.58460  0.50840  0.16203  Biso   1.000  O
  C45      1.0000 0.24060  0.15250  0.51200  Biso   1.000  C
  C46      1.0000 0.22410  0.21080  0.53835  Biso   1.000  C
  C47      1.0000 0.09930  0.02990  0.63182  Biso   1.000  C
  C48      1.0000 0.03910  0.04910  0.60622  Biso   1.000  C
  Co12     1.0000 0.18421  0.06676  0.57005  Biso   1.000  Co
  F67      1.0000 0.15240  0.18670  0.63870  Biso   1.000  F
  F68      1.0000 0.20030  0.29680  0.64310  Biso   1.000  F
  F69      1.0000 0.09020  0.28150  0.62710  Biso   1.000  F
  F70      1.0000 0.93930  0.12880  0.50720  Biso   1.000  F
  F71      1.0000 0.04240  0.07170  0.49950  Biso   1.000  F
  F72      1.0000 0.04360  0.17850  0.51840  Biso   1.000  F
  N23      1.0000 0.19910  0.18620  0.56969  Biso   1.000  N
  N24      1.0000 0.06330  0.07250  0.57441  Biso   1.000  N
  O45      1.0000 0.22000  0.08603  0.51933  Biso   1.000  O
  O46      1.0000 0.27510  0.16730  0.48413  Biso   1.000  O
  O47      1.0000 0.16581  0.03620  0.62097  Biso   1.000  O
  O48      1.0000 0.08460  0.00840  0.66203  Biso   1.000  O
  C49      1.0000 0.09750  0.99060  0.76200  Biso   1.000  C
  C50      1.0000 0.03920  0.97410  0.78835  Biso   1.000  C
  C51      1.0000 0.22010  0.84930  0.88182  Biso   1.000  C
  C52      1.0000 0.20090  0.78910  0.85622  Biso   1.000  C
  Co13     1.0000 0.18324  0.93421  0.82005  Biso   1.000  Co
  F73      1.0000 0.06330  0.90240  0.88870  Biso   1.000  F
  F74      1.0000 0.95320  0.95030  0.89310  Biso   1.000  F
  F75      1.0000 0.96850  0.84020  0.87710  Biso   1.000  F
  F76      1.0000 0.12120  0.68930  0.75720  Biso   1.000  F
  F77      1.0000 0.17830  0.79240  0.74950  Biso   1.000  F
  F78      1.0000 0.07150  0.79360  0.76840  Biso   1.000  F
  N25      1.0000 0.06380  0.94910  0.81969  Biso   1.000  N
  N26      1.0000 0.17750  0.81330  0.82441  Biso   1.000  N
  O49      1.0000 0.16397  0.97000  0.76933  Biso   1.000  O
  O50      1.0000 0.08270  0.02510  0.73413  Biso   1.000  O
  O51      1.0000 0.21380  0.91581  0.87097  Biso   1.000  O
  O52      1.0000 0.24160  0.83460  0.91203  Biso   1.000  O
  C53      1.0000 0.59750  0.49060  0.26200  Biso   1.000  C
  C54      1.0000 0.53920  0.47410  0.28835  Biso   1.000  C
  C55      1.0000 0.72010  0.34930  0.38182  Biso   1.000  C
  C56      1.0000 0.70090  0.28910  0.35622  Biso   1.000  C
  Co14     1.0000 0.68324  0.43421  0.32005  Biso   1.000  Co
  F79      1.0000 0.56330  0.40240  0.38870  Biso   1.000  F
  F80      1.0000 0.45320  0.45030  0.39310  Biso   1.000  F
  F81      1.0000 0.46850  0.34020  0.37710  Biso   1.000  F
  F82      1.0000 0.62120  0.18930  0.25720  Biso   1.000  F
  F83      1.0000 0.67830  0.29240  0.24950  Biso   1.000  F
  F84      1.0000 0.57150  0.29360  0.26840  Biso   1.000  F
  N27      1.0000 0.56380  0.44910  0.31969  Biso   1.000  N
  N28      1.0000 0.67750  0.31330  0.32441  Biso   1.000  N
  O53      1.0000 0.66397  0.47000  0.26933  Biso   1.000  O
  O54      1.0000 0.58270  0.52510  0.23413  Biso   1.000  O
  O55      1.0000 0.71380  0.41581  0.37097  Biso   1.000  O
  O56      1.0000 0.74160  0.33460  0.41203  Biso   1.000  O
  C57      1.0000 0.40250  0.00940  0.26200  Biso   1.000  C
  C58      1.0000 0.46080  0.02590  0.28835  Biso   1.000  C
  C59      1.0000 0.27990  0.15070  0.38182  Biso   1.000  C
  C60      1.0000 0.29910  0.21090  0.35622  Biso   1.000  C
  Co15     1.0000 0.31676  0.06579  0.32005  Biso   1.000  Co
  F85      1.0000 0.43670  0.09760  0.38870  Biso   1.000  F
  F86      1.0000 0.54680  0.04970  0.39310  Biso   1.000  F
  F87      1.0000 0.53150  0.15980  0.37710  Biso   1.000  F
  F88      1.0000 0.37880  0.31070  0.25720  Biso   1.000  F
  F89      1.0000 0.32170  0.20760  0.24950  Biso   1.000  F
  F90      1.0000 0.42850  0.20640  0.26840  Biso   1.000  F
  N29      1.0000 0.43620  0.05090  0.31969  Biso   1.000  N
  N30      1.0000 0.32250  0.18670  0.32441  Biso   1.000  N
  O57      1.0000 0.33603  0.03000  0.26933  Biso   1.000  O
  O58      1.0000 0.41730  0.97490  0.23413  Biso   1.000  O
  O59      1.0000 0.28620  0.08419  0.37097  Biso   1.000  O
  O60      1.0000 0.25840  0.16540  0.41203  Biso   1.000  O
  C61      1.0000 0.90250  0.50940  0.76200  Biso   1.000  C
  C62      1.0000 0.96080  0.52590  0.78835  Biso   1.000  C
  C63      1.0000 0.77990  0.65070  0.88182  Biso   1.000  C
  C64      1.0000 0.79910  0.71090  0.85622  Biso   1.000  C
  Co16     1.0000 0.81676  0.56579  0.82005  Biso   1.000  Co
  F91      1.0000 0.93670  0.59760  0.88870  Biso   1.000  F
  F92      1.0000 0.04680  0.54970  0.89310  Biso   1.000  F
  F93      1.0000 0.03150  0.65980  0.87710  Biso   1.000  F
  F94      1.0000 0.87880  0.81070  0.75720  Biso   1.000  F
  F95      1.0000 0.82170  0.70760  0.74950  Biso   1.000  F
  F96      1.0000 0.92850  0.70640  0.76840  Biso   1.000  F
  N31      1.0000 0.93620  0.55090  0.81969  Biso   1.000  N
  N32      1.0000 0.82250  0.68670  0.82441  Biso   1.000  N
  O61      1.0000 0.83603  0.53000  0.76933  Biso   1.000  O
  O62      1.0000 0.91730  0.47490  0.73413  Biso   1.000  O
  O63      1.0000 0.78620  0.58419  0.87097  Biso   1.000  O
  O64      1.0000 0.75840  0.66540  0.91203  Biso   1.000  O
  C65      1.0000 0.31460  0.75000  0.08741  Biso   1.000  C
  C66      1.0000 0.34230  0.75000  0.12410  Biso   1.000  C
  C67      1.0000 0.18540  0.25000  0.58741  Biso   1.000  C
  C68      1.0000 0.15770  0.25000  0.62410  Biso   1.000  C
  C69      1.0000 0.50000  0.06460  0.33741  Biso   1.000  C
  C70      1.0000 0.50000  0.09230  0.37410  Biso   1.000  C
  C71      1.0000 0.00000  0.56460  0.83741  Biso   1.000  C
  C72      1.0000 0.00000  0.59230  0.87410  Biso   1.000  C
  C73      1.0000 0.00000  0.93540  0.83741  Biso   1.000  C
  C74      1.0000 0.00000  0.90770  0.87410  Biso   1.000  C
  C75      1.0000 0.50000  0.43540  0.33741  Biso   1.000  C
  C76      1.0000 0.50000  0.40770  0.37410  Biso   1.000  C
  C77      1.0000 0.81460  0.25000  0.58741  Biso   1.000  C
  C78      1.0000 0.84230  0.25000  0.62410  Biso   1.000  C
  C79      1.0000 0.68540  0.75000  0.08741  Biso   1.000  C
  C80      1.0000 0.65770  0.75000  0.12410  Biso   1.000  C
  C81      1.0000 0.50000  0.58590  0.05670  Biso   1.000  C
  C82      1.0000 0.50000  0.61550  0.02040  Biso   1.000  C
  Co17     1.0000 0.50000  0.51855  0.19757  Biso   1.000  Co
  C83      1.0000 0.00000  0.08590  0.55670  Biso   1.000  C
  C84      1.0000 0.00000  0.11550  0.52040  Biso   1.000  C
  Co18     1.0000 0.00000  0.01855  0.69757  Biso   1.000  Co
  C85      1.0000 0.00000  0.41410  0.55670  Biso   1.000  C
  C86      1.0000 0.00000  0.38450  0.52040  Biso   1.000  C
  Co19     1.0000 0.00000  0.48145  0.69757  Biso   1.000  Co
  C87      1.0000 0.50000  0.91410  0.05670  Biso   1.000  C
  C88      1.0000 0.50000  0.88450  0.02040  Biso   1.000  C
  Co20     1.0000 0.50000  0.98145  0.19757  Biso   1.000  Co
  C89      1.0000 0.66410  0.25000  0.30670  Biso   1.000  C
  C90      1.0000 0.63450  0.25000  0.27040  Biso   1.000  C
  Co21     1.0000 0.73145  0.25000  0.44757  Biso   1.000  Co
  C91      1.0000 0.83590  0.75000  0.80670  Biso   1.000  C
  C92      1.0000 0.86550  0.75000  0.77040  Biso   1.000  C
  Co22     1.0000 0.76855  0.75000  0.94757  Biso   1.000  Co
  C93      1.0000 0.16410  0.75000  0.80670  Biso   1.000  C
  C94      1.0000 0.13450  0.75000  0.77040  Biso   1.000  C
  Co23     1.0000 0.23145  0.75000  0.94757  Biso   1.000  Co
  C95      1.0000 0.33590  0.25000  0.30670  Biso   1.000  C
  C96      1.0000 0.36550  0.25000  0.27040  Biso   1.000  C
  Co24     1.0000 0.26855  0.25000  0.44757  Biso   1.000  Co
  C97      1.0000 0.24060  0.65250  0.48800  Biso   1.000  C
  C98      1.0000 0.22410  0.71080  0.46165  Biso   1.000  C
  C99      1.0000 0.09930  0.52990  0.36818  Biso   1.000  C
  C100     1.0000 0.03910  0.54910  0.39378  Biso   1.000  C
  Co25     1.0000 0.18421  0.56676  0.42995  Biso   1.000  Co
  F97      1.0000 0.15240  0.68670  0.36130  Biso   1.000  F
  F98      1.0000 0.20030  0.79680  0.35690  Biso   1.000  F
  F99      1.0000 0.09020  0.78150  0.37290  Biso   1.000  F
  F100     1.0000 0.93930  0.62880  0.49280  Biso   1.000  F
  F101     1.0000 0.04240  0.57170  0.50050  Biso   1.000  F
  F102     1.0000 0.04360  0.67850  0.48160  Biso   1.000  F
  N33      1.0000 0.19910  0.68620  0.43031  Biso   1.000  N
  N34      1.0000 0.06330  0.57250  0.42559  Biso   1.000  N
  O65      1.0000 0.22000  0.58603  0.48067  Biso   1.000  O
  O66      1.0000 0.27510  0.66730  0.51587  Biso   1.000  O
  O67      1.0000 0.16581  0.53620  0.37903  Biso   1.000  O
  O68      1.0000 0.08460  0.50840  0.33797  Biso   1.000  O
  C101     1.0000 0.74060  0.15250  0.98800  Biso   1.000  C
  C102     1.0000 0.72410  0.21080  0.96165  Biso   1.000  C
  C103     1.0000 0.59930  0.02990  0.86818  Biso   1.000  C
  C104     1.0000 0.53910  0.04910  0.89378  Biso   1.000  C
  Co26     1.0000 0.68421  0.06676  0.92995  Biso   1.000  Co
  F103     1.0000 0.65240  0.18670  0.86130  Biso   1.000  F
  F104     1.0000 0.70030  0.29680  0.85690  Biso   1.000  F
  F105     1.0000 0.59020  0.28150  0.87290  Biso   1.000  F
  F106     1.0000 0.43930  0.12880  0.99280  Biso   1.000  F
  F107     1.0000 0.54240  0.07170  0.00050  Biso   1.000  F
  F108     1.0000 0.54360  0.17850  0.98160  Biso   1.000  F
  N35      1.0000 0.69910  0.18620  0.93031  Biso   1.000  N
  N36      1.0000 0.56330  0.07250  0.92559  Biso   1.000  N
  O69      1.0000 0.72000  0.08603  0.98067  Biso   1.000  O
  O70      1.0000 0.77510  0.16730  0.01587  Biso   1.000  O
  O71      1.0000 0.66581  0.03620  0.87903  Biso   1.000  O
  O72      1.0000 0.58460  0.00840  0.83797  Biso   1.000  O
  C105     1.0000 0.25940  0.34750  0.98800  Biso   1.000  C
  C106     1.0000 0.27590  0.28920  0.96165  Biso   1.000  C
  C107     1.0000 0.40070  0.47010  0.86818  Biso   1.000  C
  C108     1.0000 0.46090  0.45090  0.89378  Biso   1.000  C
  Co27     1.0000 0.31579  0.43324  0.92995  Biso   1.000  Co
  F109     1.0000 0.34760  0.31330  0.86130  Biso   1.000  F
  F110     1.0000 0.29970  0.20320  0.85690  Biso   1.000  F
  F111     1.0000 0.40980  0.21850  0.87290  Biso   1.000  F
  F112     1.0000 0.56070  0.37120  0.99280  Biso   1.000  F
  F113     1.0000 0.45760  0.42830  0.00050  Biso   1.000  F
  F114     1.0000 0.45640  0.32150  0.98160  Biso   1.000  F
  N37      1.0000 0.30090  0.31380  0.93031  Biso   1.000  N
  N38      1.0000 0.43670  0.42750  0.92559  Biso   1.000  N
  O73      1.0000 0.28000  0.41397  0.98067  Biso   1.000  O
  O74      1.0000 0.22490  0.33270  0.01587  Biso   1.000  O
  O75      1.0000 0.33419  0.46380  0.87903  Biso   1.000  O
  O76      1.0000 0.41540  0.49160  0.83797  Biso   1.000  O
  C109     1.0000 0.75940  0.84750  0.48800  Biso   1.000  C
  C110     1.0000 0.77590  0.78920  0.46165  Biso   1.000  C
  C111     1.0000 0.90070  0.97010  0.36818  Biso   1.000  C
  C112     1.0000 0.96090  0.95090  0.39378  Biso   1.000  C
  Co28     1.0000 0.81579  0.93324  0.42995  Biso   1.000  Co
  F115     1.0000 0.84760  0.81330  0.36130  Biso   1.000  F
  F116     1.0000 0.79970  0.70320  0.35690  Biso   1.000  F
  F117     1.0000 0.90980  0.71850  0.37290  Biso   1.000  F
  F118     1.0000 0.06070  0.87120  0.49280  Biso   1.000  F
  F119     1.0000 0.95760  0.92830  0.50050  Biso   1.000  F
  F120     1.0000 0.95640  0.82150  0.48160  Biso   1.000  F
  N39      1.0000 0.80090  0.81380  0.43031  Biso   1.000  N
  N40      1.0000 0.93670  0.92750  0.42559  Biso   1.000  N
  O77      1.0000 0.78000  0.91397  0.48067  Biso   1.000  O
  O78      1.0000 0.72490  0.83270  0.51587  Biso   1.000  O
  O79      1.0000 0.83419  0.96380  0.37903  Biso   1.000  O
  O80      1.0000 0.91540  0.99160  0.33797  Biso   1.000  O
  C113     1.0000 0.90250  0.00940  0.23800  Biso   1.000  C
  C114     1.0000 0.96080  0.02590  0.21165  Biso   1.000  C
  C115     1.0000 0.77990  0.15070  0.11818  Biso   1.000  C
  C116     1.0000 0.79910  0.21090  0.14378  Biso   1.000  C
  Co29     1.0000 0.81676  0.06579  0.17995  Biso   1.000  Co
  F121     1.0000 0.93670  0.09760  0.11130  Biso   1.000  F
  F122     1.0000 0.04680  0.04970  0.10690  Biso   1.000  F
  F123     1.0000 0.03150  0.15980  0.12290  Biso   1.000  F
  F124     1.0000 0.87880  0.31070  0.24280  Biso   1.000  F
  F125     1.0000 0.82170  0.20760  0.25050  Biso   1.000  F
  F126     1.0000 0.92850  0.20640  0.23160  Biso   1.000  F
  N41      1.0000 0.93620  0.05090  0.18031  Biso   1.000  N
  N42      1.0000 0.82250  0.18670  0.17559  Biso   1.000  N
  O81      1.0000 0.83603  0.03000  0.23067  Biso   1.000  O
  O82      1.0000 0.91730  0.97490  0.26587  Biso   1.000  O
  O83      1.0000 0.78620  0.08419  0.12903  Biso   1.000  O
  O84      1.0000 0.75840  0.16540  0.08797  Biso   1.000  O
  C117     1.0000 0.40250  0.50940  0.73800  Biso   1.000  C
  C118     1.0000 0.46080  0.52590  0.71165  Biso   1.000  C
  C119     1.0000 0.27990  0.65070  0.61818  Biso   1.000  C
  C120     1.0000 0.29910  0.71090  0.64378  Biso   1.000  C
  Co30     1.0000 0.31676  0.56579  0.67995  Biso   1.000  Co
  F127     1.0000 0.43670  0.59760  0.61130  Biso   1.000  F
  F128     1.0000 0.54680  0.54970  0.60690  Biso   1.000  F
  F129     1.0000 0.53150  0.65980  0.62290  Biso   1.000  F
  F130     1.0000 0.37880  0.81070  0.74280  Biso   1.000  F
  F131     1.0000 0.32170  0.70760  0.75050  Biso   1.000  F
  F132     1.0000 0.42850  0.70640  0.73160  Biso   1.000  F
  N43      1.0000 0.43620  0.55090  0.68031  Biso   1.000  N
  N44      1.0000 0.32250  0.68670  0.67559  Biso   1.000  N
  O85      1.0000 0.33603  0.53000  0.73067  Biso   1.000  O
  O86      1.0000 0.41730  0.47490  0.76587  Biso   1.000  O
  O87      1.0000 0.28620  0.58419  0.62903  Biso   1.000  O
  O88      1.0000 0.25840  0.66540  0.58797  Biso   1.000  O
  C121     1.0000 0.59750  0.99060  0.73800  Biso   1.000  C
  C122     1.0000 0.53920  0.97410  0.71165  Biso   1.000  C
  C123     1.0000 0.72010  0.84930  0.61818  Biso   1.000  C
  C124     1.0000 0.70090  0.78910  0.64378  Biso   1.000  C
  Co31     1.0000 0.68324  0.93421  0.67995  Biso   1.000  Co
  F133     1.0000 0.56330  0.90240  0.61130  Biso   1.000  F
  F134     1.0000 0.45320  0.95030  0.60690  Biso   1.000  F
  F135     1.0000 0.46850  0.84020  0.62290  Biso   1.000  F
  F136     1.0000 0.62120  0.68930  0.74280  Biso   1.000  F
  F137     1.0000 0.67830  0.79240  0.75050  Biso   1.000  F
  F138     1.0000 0.57150  0.79360  0.73160  Biso   1.000  F
  N45      1.0000 0.56380  0.94910  0.68031  Biso   1.000  N
  N46      1.0000 0.67750  0.81330  0.67559  Biso   1.000  N
  O89      1.0000 0.66397  0.97000  0.73067  Biso   1.000  O
  O90      1.0000 0.58270  0.02510  0.76587  Biso   1.000  O
  O91      1.0000 0.71380  0.91581  0.62903  Biso   1.000  O
  O92      1.0000 0.74160  0.83460  0.58797  Biso   1.000  O
  C125     1.0000 0.09750  0.49060  0.23800  Biso   1.000  C
  C126     1.0000 0.03920  0.47410  0.21165  Biso   1.000  C
  C127     1.0000 0.22010  0.34930  0.11818  Biso   1.000  C
  C128     1.0000 0.20090  0.28910  0.14378  Biso   1.000  C
  Co32     1.0000 0.18324  0.43421  0.17995  Biso   1.000  Co
  F139     1.0000 0.06330  0.40240  0.11130  Biso   1.000  F
  F140     1.0000 0.95320  0.45030  0.10690  Biso   1.000  F
  F141     1.0000 0.96850  0.34020  0.12290  Biso   1.000  F
  F142     1.0000 0.12120  0.18930  0.24280  Biso   1.000  F
  F143     1.0000 0.17830  0.29240  0.25050  Biso   1.000  F
  F144     1.0000 0.07150  0.29360  0.23160  Biso   1.000  F
  N47      1.0000 0.06380  0.44910  0.18031  Biso   1.000  N
  N48      1.0000 0.17750  0.31330  0.17559  Biso   1.000  N
  O93      1.0000 0.16397  0.47000  0.23067  Biso   1.000  O
  O94      1.0000 0.08270  0.52510  0.26587  Biso   1.000  O
  O95      1.0000 0.21380  0.41581  0.12903  Biso   1.000  O
  O96      1.0000 0.24160  0.33460  0.08797  Biso   1.000  O
  C129     1.0000 0.74060  0.34750  0.98800  Biso   1.000  C
  C130     1.0000 0.72410  0.28920  0.96165  Biso   1.000  C
  C131     1.0000 0.59930  0.47010  0.86818  Biso   1.000  C
  C132     1.0000 0.53910  0.45090  0.89378  Biso   1.000  C
  Co33     1.0000 0.68421  0.43324  0.92995  Biso   1.000  Co
  F145     1.0000 0.65240  0.31330  0.86130  Biso   1.000  F
  F146     1.0000 0.70030  0.20320  0.85690  Biso   1.000  F
  F147     1.0000 0.59020  0.21850  0.87290  Biso   1.000  F
  F148     1.0000 0.43930  0.37120  0.99280  Biso   1.000  F
  F149     1.0000 0.54240  0.42830  0.00050  Biso   1.000  F
  F150     1.0000 0.54360  0.32150  0.98160  Biso   1.000  F
  N49      1.0000 0.69910  0.31380  0.93031  Biso   1.000  N
  N50      1.0000 0.56330  0.42750  0.92559  Biso   1.000  N
  O97      1.0000 0.72000  0.41397  0.98067  Biso   1.000  O
  O98      1.0000 0.77510  0.33270  0.01587  Biso   1.000  O
  O99      1.0000 0.66581  0.46380  0.87903  Biso   1.000  O
  O100     1.0000 0.58460  0.49160  0.83797  Biso   1.000  O
  C133     1.0000 0.24060  0.84750  0.48800  Biso   1.000  C
  C134     1.0000 0.22410  0.78920  0.46165  Biso   1.000  C
  C135     1.0000 0.09930  0.97010  0.36818  Biso   1.000  C
  C136     1.0000 0.03910  0.95090  0.39378  Biso   1.000  C
  Co34     1.0000 0.18421  0.93324  0.42995  Biso   1.000  Co
  F151     1.0000 0.15240  0.81330  0.36130  Biso   1.000  F
  F152     1.0000 0.20030  0.70320  0.35690  Biso   1.000  F
  F153     1.0000 0.09020  0.71850  0.37290  Biso   1.000  F
  F154     1.0000 0.93930  0.87120  0.49280  Biso   1.000  F
  F155     1.0000 0.04240  0.92830  0.50050  Biso   1.000  F
  F156     1.0000 0.04360  0.82150  0.48160  Biso   1.000  F
  N51      1.0000 0.19910  0.81380  0.43031  Biso   1.000  N
  N52      1.0000 0.06330  0.92750  0.42559  Biso   1.000  N
  O101     1.0000 0.22000  0.91397  0.48067  Biso   1.000  O
  O102     1.0000 0.27510  0.83270  0.51587  Biso   1.000  O
  O103     1.0000 0.16581  0.96380  0.37903  Biso   1.000  O
  O104     1.0000 0.08460  0.99160  0.33797  Biso   1.000  O
  C137     1.0000 0.75940  0.65250  0.48800  Biso   1.000  C
  C138     1.0000 0.77590  0.71080  0.46165  Biso   1.000  C
  C139     1.0000 0.90070  0.52990  0.36818  Biso   1.000  C
  C140     1.0000 0.96090  0.54910  0.39378  Biso   1.000  C
  Co35     1.0000 0.81579  0.56676  0.42995  Biso   1.000  Co
  F157     1.0000 0.84760  0.68670  0.36130  Biso   1.000  F
  F158     1.0000 0.79970  0.79680  0.35690  Biso   1.000  F
  F159     1.0000 0.90980  0.78150  0.37290  Biso   1.000  F
  F160     1.0000 0.06070  0.62880  0.49280  Biso   1.000  F
  F161     1.0000 0.95760  0.57170  0.50050  Biso   1.000  F
  F162     1.0000 0.95640  0.67850  0.48160  Biso   1.000  F
  N53      1.0000 0.80090  0.68620  0.43031  Biso   1.000  N
  N54      1.0000 0.93670  0.57250  0.42559  Biso   1.000  N
  O105     1.0000 0.78000  0.58603  0.48067  Biso   1.000  O
  O106     1.0000 0.72490  0.66730  0.51587  Biso   1.000  O
  O107     1.0000 0.83419  0.53620  0.37903  Biso   1.000  O
  O108     1.0000 0.91540  0.50840  0.33797  Biso   1.000  O
  C141     1.0000 0.25940  0.15250  0.98800  Biso   1.000  C
  C142     1.0000 0.27590  0.21080  0.96165  Biso   1.000  C
  C143     1.0000 0.40070  0.02990  0.86818  Biso   1.000  C
  C144     1.0000 0.46090  0.04910  0.89378  Biso   1.000  C
  Co36     1.0000 0.31579  0.06676  0.92995  Biso   1.000  Co
  F163     1.0000 0.34760  0.18670  0.86130  Biso   1.000  F
  F164     1.0000 0.29970  0.29680  0.85690  Biso   1.000  F
  F165     1.0000 0.40980  0.28150  0.87290  Biso   1.000  F
  F166     1.0000 0.56070  0.12880  0.99280  Biso   1.000  F
  F167     1.0000 0.45760  0.07170  0.00050  Biso   1.000  F
  F168     1.0000 0.45640  0.17850  0.98160  Biso   1.000  F
  N55      1.0000 0.30090  0.18620  0.93031  Biso   1.000  N
  N56      1.0000 0.43670  0.07250  0.92559  Biso   1.000  N
  O109     1.0000 0.28000  0.08603  0.98067  Biso   1.000  O
  O110     1.0000 0.22490  0.16730  0.01587  Biso   1.000  O
  O111     1.0000 0.33419  0.03620  0.87903  Biso   1.000  O
  O112     1.0000 0.41540  0.00840  0.83797  Biso   1.000  O
  C145     1.0000 0.40250  0.99060  0.73800  Biso   1.000  C
  C146     1.0000 0.46080  0.97410  0.71165  Biso   1.000  C
  C147     1.0000 0.27990  0.84930  0.61818  Biso   1.000  C
  C148     1.0000 0.29910  0.78910  0.64378  Biso   1.000  C
  Co37     1.0000 0.31676  0.93421  0.67995  Biso   1.000  Co
  F169     1.0000 0.43670  0.90240  0.61130  Biso   1.000  F
  F170     1.0000 0.54680  0.95030  0.60690  Biso   1.000  F
  F171     1.0000 0.53150  0.84020  0.62290  Biso   1.000  F
  F172     1.0000 0.37880  0.68930  0.74280  Biso   1.000  F
  F173     1.0000 0.32170  0.79240  0.75050  Biso   1.000  F
  F174     1.0000 0.42850  0.79360  0.73160  Biso   1.000  F
  N57      1.0000 0.43620  0.94910  0.68031  Biso   1.000  N
  N58      1.0000 0.32250  0.81330  0.67559  Biso   1.000  N
  O113     1.0000 0.33603  0.97000  0.73067  Biso   1.000  O
  O114     1.0000 0.41730  0.02510  0.76587  Biso   1.000  O
  O115     1.0000 0.28620  0.91581  0.62903  Biso   1.000  O
  O116     1.0000 0.25840  0.83460  0.58797  Biso   1.000  O
  C149     1.0000 0.90250  0.49060  0.23800  Biso   1.000  C
  C150     1.0000 0.96080  0.47410  0.21165  Biso   1.000  C
  C151     1.0000 0.77990  0.34930  0.11818  Biso   1.000  C
  C152     1.0000 0.79910  0.28910  0.14378  Biso   1.000  C
  Co38     1.0000 0.81676  0.43421  0.17995  Biso   1.000  Co
  F175     1.0000 0.93670  0.40240  0.11130  Biso   1.000  F
  F176     1.0000 0.04680  0.45030  0.10690  Biso   1.000  F
  F177     1.0000 0.03150  0.34020  0.12290  Biso   1.000  F
  F178     1.0000 0.87880  0.18930  0.24280  Biso   1.000  F
  F179     1.0000 0.82170  0.29240  0.25050  Biso   1.000  F
  F180     1.0000 0.92850  0.29360  0.23160  Biso   1.000  F
  N59      1.0000 0.93620  0.44910  0.18031  Biso   1.000  N
  N60      1.0000 0.82250  0.31330  0.17559  Biso   1.000  N
  O117     1.0000 0.83603  0.47000  0.23067  Biso   1.000  O
  O118     1.0000 0.91730  0.52510  0.26587  Biso   1.000  O
  O119     1.0000 0.78620  0.41581  0.12903  Biso   1.000  O
  O120     1.0000 0.75840  0.33460  0.08797  Biso   1.000  O
  C153     1.0000 0.09750  0.00940  0.23800  Biso   1.000  C
  C154     1.0000 0.03920  0.02590  0.21165  Biso   1.000  C
  C155     1.0000 0.22010  0.15070  0.11818  Biso   1.000  C
  C156     1.0000 0.20090  0.21090  0.14378  Biso   1.000  C
  Co39     1.0000 0.18324  0.06579  0.17995  Biso   1.000  Co
  F181     1.0000 0.06330  0.09760  0.11130  Biso   1.000  F
  F182     1.0000 0.95320  0.04970  0.10690  Biso   1.000  F
  F183     1.0000 0.96850  0.15980  0.12290  Biso   1.000  F
  F184     1.0000 0.12120  0.31070  0.24280  Biso   1.000  F
  F185     1.0000 0.17830  0.20760  0.25050  Biso   1.000  F
  F186     1.0000 0.07150  0.20640  0.23160  Biso   1.000  F
  N61      1.0000 0.06380  0.05090  0.18031  Biso   1.000  N
  N62      1.0000 0.17750  0.18670  0.17559  Biso   1.000  N
  O121     1.0000 0.16397  0.03000  0.23067  Biso   1.000  O
  O122     1.0000 0.08270  0.97490  0.26587  Biso   1.000  O
  O123     1.0000 0.21380  0.08419  0.12903  Biso   1.000  O
  O124     1.0000 0.24160  0.16540  0.08797  Biso   1.000  O
  C157     1.0000 0.59750  0.50940  0.73800  Biso   1.000  C
  C158     1.0000 0.53920  0.52590  0.71165  Biso   1.000  C
  C159     1.0000 0.72010  0.65070  0.61818  Biso   1.000  C
  C160     1.0000 0.70090  0.71090  0.64378  Biso   1.000  C
  Co40     1.0000 0.68324  0.56579  0.67995  Biso   1.000  Co
  F187     1.0000 0.56330  0.59760  0.61130  Biso   1.000  F
  F188     1.0000 0.45320  0.54970  0.60690  Biso   1.000  F
  F189     1.0000 0.46850  0.65980  0.62290  Biso   1.000  F
  F190     1.0000 0.62120  0.81070  0.74280  Biso   1.000  F
  F191     1.0000 0.67830  0.70760  0.75050  Biso   1.000  F
  F192     1.0000 0.57150  0.70640  0.73160  Biso   1.000  F
  N63      1.0000 0.56380  0.55090  0.68031  Biso   1.000  N
  N64      1.0000 0.67750  0.68670  0.67559  Biso   1.000  N
  O125     1.0000 0.66397  0.53000  0.73067  Biso   1.000  O
  O126     1.0000 0.58270  0.47490  0.76587  Biso   1.000  O
  O127     1.0000 0.71380  0.58419  0.62903  Biso   1.000  O
  O128     1.0000 0.74160  0.66540  0.58797  Biso   1.000  O
  C161     1.0000 0.18540  0.75000  0.41259  Biso   1.000  C
  C162     1.0000 0.15770  0.75000  0.37590  Biso   1.000  C
  C163     1.0000 0.31460  0.25000  0.91259  Biso   1.000  C
  C164     1.0000 0.34230  0.25000  0.87590  Biso   1.000  C
  C165     1.0000 0.00000  0.06460  0.16259  Biso   1.000  C
  C166     1.0000 0.00000  0.09230  0.12590  Biso   1.000  C
  C167     1.0000 0.50000  0.56460  0.66259  Biso   1.000  C
  C168     1.0000 0.50000  0.59230  0.62590  Biso   1.000  C
  C169     1.0000 0.50000  0.93540  0.66259  Biso   1.000  C
  C170     1.0000 0.50000  0.90770  0.62590  Biso   1.000  C
  C171     1.0000 0.00000  0.43540  0.16259  Biso   1.000  C
  C172     1.0000 0.00000  0.40770  0.12590  Biso   1.000  C
  C173     1.0000 0.68540  0.25000  0.91259  Biso   1.000  C
  C174     1.0000 0.65770  0.25000  0.87590  Biso   1.000  C
  C175     1.0000 0.81460  0.75000  0.41259  Biso   1.000  C
  C176     1.0000 0.84230  0.75000  0.37590  Biso   1.000  C
  C177     1.0000 0.00000  0.58590  0.44330  Biso   1.000  C
  C178     1.0000 0.00000  0.61550  0.47960  Biso   1.000  C
  Co41     1.0000 0.00000  0.51855  0.30243  Biso   1.000  Co
  C179     1.0000 0.50000  0.08590  0.94330  Biso   1.000  C
  C180     1.0000 0.50000  0.11550  0.97960  Biso   1.000  C
  Co42     1.0000 0.50000  0.01855  0.80243  Biso   1.000  Co
  C181     1.0000 0.50000  0.41410  0.94330  Biso   1.000  C
  C182     1.0000 0.50000  0.38450  0.97960  Biso   1.000  C
  Co43     1.0000 0.50000  0.48145  0.80243  Biso   1.000  Co
  C183     1.0000 0.00000  0.91410  0.44330  Biso   1.000  C
  C184     1.0000 0.00000  0.88450  0.47960  Biso   1.000  C
  Co44     1.0000 0.00000  0.98145  0.30243  Biso   1.000  Co
  C185     1.0000 0.83590  0.25000  0.19330  Biso   1.000  C
  C186     1.0000 0.86550  0.25000  0.22960  Biso   1.000  C
  Co45     1.0000 0.76855  0.25000  0.05243  Biso   1.000  Co
  C187     1.0000 0.66410  0.75000  0.69330  Biso   1.000  C
  C188     1.0000 0.63450  0.75000  0.72960  Biso   1.000  C
  Co46     1.0000 0.73145  0.75000  0.55243  Biso   1.000  Co
  C189     1.0000 0.33590  0.75000  0.69330  Biso   1.000  C
  C190     1.0000 0.36550  0.75000  0.72960  Biso   1.000  C
  Co47     1.0000 0.26855  0.75000  0.55243  Biso   1.000  Co
  C191     1.0000 0.16410  0.25000  0.19330  Biso   1.000  C
  C192     1.0000 0.13450  0.25000  0.22960  Biso   1.000  C
  Co48     1.0000 0.23145  0.25000  0.05243  Biso   1.000  Co
