data_image0
_cell_length_a       27.108
_cell_length_b       29.418
_cell_length_c       12.9723
_cell_angle_alpha    90
_cell_angle_beta     90
_cell_angle_gamma    90

_symmetry_space_group_name_H-M    "P 1"
_symmetry_int_tables_number       1

loop_
  _symmetry_equiv_pos_as_xyz
  'x, y, z'

loop_
  _atom_site_label
  _atom_site_occupancy
  _atom_site_fract_x
  _atom_site_fract_y
  _atom_site_fract_z
  _atom_site_thermal_displace_type
  _atom_site_B_iso_or_equiv
  _atom_site_type_symbol
  O1       1.0000 0.69540  0.48731  0.18490  Biso   1.000  O
  O2       1.0000 0.76100  0.45040  0.53380  Biso   1.000  O
  O3       1.0000 0.64360  0.44000  0.11680  Biso   1.000  O
  O4       1.0000 0.71530  0.41380  0.64080  Biso   1.000  O
  C1       1.0000 0.59030  0.33270  0.40460  Biso   1.000  C
  C2       1.0000 0.66020  0.37950  0.47370  Biso   1.000  C
  H1       1.0000 0.65850  0.36330  0.53690  Biso   1.000  H
  C3       1.0000 0.63090  0.39080  0.30070  Biso   1.000  C
  H2       1.0000 0.61040  0.38260  0.24440  Biso   1.000  H
  C4       1.0000 0.66580  0.42710  0.29230  Biso   1.000  C
  C5       1.0000 0.62820  0.36860  0.39250  Biso   1.000  C
  C6       1.0000 0.60620  0.28700  0.40310  Biso   1.000  C
  C7       1.0000 0.69810  0.43620  0.37000  Biso   1.000  C
  H3       1.0000 0.72340  0.45810  0.36090  Biso   1.000  H
  C8       1.0000 0.65650  0.27420  0.39940  Biso   1.000  C
  H4       1.0000 0.68440  0.29380  0.39730  Biso   1.000  H
  C9       1.0000 0.53980  0.34730  0.40660  Biso   1.000  C
  C10      1.0000 0.69350  0.41330  0.46150  Biso   1.000  C
  C11      1.0000 0.52260  0.39330  0.41010  Biso   1.000  C
  H5       1.0000 0.54290  0.41960  0.41210  Biso   1.000  H
  C12      1.0000 0.66860  0.45380  0.19590  Biso   1.000  C
  C13      1.0000 0.72730  0.42470  0.54600  Biso   1.000  C
  O5       1.0000 0.19540  0.98731  0.68490  Biso   1.000  O
  O6       1.0000 0.26100  0.95040  0.03380  Biso   1.000  O
  O7       1.0000 0.14360  0.94000  0.61680  Biso   1.000  O
  O8       1.0000 0.21530  0.91380  0.14080  Biso   1.000  O
  C14      1.0000 0.09030  0.83270  0.90460  Biso   1.000  C
  C15      1.0000 0.16020  0.87950  0.97370  Biso   1.000  C
  H6       1.0000 0.15850  0.86330  0.03690  Biso   1.000  H
  C16      1.0000 0.13090  0.89080  0.80070  Biso   1.000  C
  H7       1.0000 0.11040  0.88260  0.74440  Biso   1.000  H
  C17      1.0000 0.16580  0.92710  0.79230  Biso   1.000  C
  C18      1.0000 0.12820  0.86860  0.89250  Biso   1.000  C
  C19      1.0000 0.10620  0.78700  0.90310  Biso   1.000  C
  C20      1.0000 0.19810  0.93620  0.87000  Biso   1.000  C
  H8       1.0000 0.22340  0.95810  0.86090  Biso   1.000  H
  C21      1.0000 0.15650  0.77420  0.89940  Biso   1.000  C
  H9       1.0000 0.18440  0.79380  0.89730  Biso   1.000  H
  C22      1.0000 0.03980  0.84730  0.90660  Biso   1.000  C
  C23      1.0000 0.19350  0.91330  0.96150  Biso   1.000  C
  C24      1.0000 0.02260  0.89330  0.91010  Biso   1.000  C
  H10      1.0000 0.04290  0.91960  0.91210  Biso   1.000  H
  C25      1.0000 0.16860  0.95380  0.69590  Biso   1.000  C
  C26      1.0000 0.22730  0.92470  0.04600  Biso   1.000  C
  O9       1.0000 0.30460  0.01269  0.18490  Biso   1.000  O
  O10      1.0000 0.23900  0.04960  0.53380  Biso   1.000  O
  O11      1.0000 0.35640  0.06000  0.11680  Biso   1.000  O
  O12      1.0000 0.28470  0.08620  0.64080  Biso   1.000  O
  C27      1.0000 0.40970  0.16730  0.40460  Biso   1.000  C
  C28      1.0000 0.33980  0.12050  0.47370  Biso   1.000  C
  H11      1.0000 0.34150  0.13670  0.53690  Biso   1.000  H
  C29      1.0000 0.36910  0.10920  0.30070  Biso   1.000  C
  H12      1.0000 0.38960  0.11740  0.24440  Biso   1.000  H
  C30      1.0000 0.33420  0.07290  0.29230  Biso   1.000  C
  C31      1.0000 0.37180  0.13140  0.39250  Biso   1.000  C
  C32      1.0000 0.39380  0.21300  0.40310  Biso   1.000  C
  C33      1.0000 0.30190  0.06380  0.37000  Biso   1.000  C
  H13      1.0000 0.27660  0.04190  0.36090  Biso   1.000  H
  C34      1.0000 0.34350  0.22580  0.39940  Biso   1.000  C
  H14      1.0000 0.31560  0.20620  0.39730  Biso   1.000  H
  C35      1.0000 0.46020  0.15270  0.40660  Biso   1.000  C
  C36      1.0000 0.30650  0.08670  0.46150  Biso   1.000  C
  C37      1.0000 0.47740  0.10670  0.41010  Biso   1.000  C
  H15      1.0000 0.45710  0.08040  0.41210  Biso   1.000  H
  C38      1.0000 0.33140  0.04620  0.19590  Biso   1.000  C
  C39      1.0000 0.27270  0.07530  0.54600  Biso   1.000  C
  O13      1.0000 0.80460  0.51269  0.68490  Biso   1.000  O
  O14      1.0000 0.73900  0.54960  0.03380  Biso   1.000  O
  O15      1.0000 0.85640  0.56000  0.61680  Biso   1.000  O
  O16      1.0000 0.78470  0.58620  0.14080  Biso   1.000  O
  C40      1.0000 0.90970  0.66730  0.90460  Biso   1.000  C
  C41      1.0000 0.83980  0.62050  0.97370  Biso   1.000  C
  H16      1.0000 0.84150  0.63670  0.03690  Biso   1.000  H
  C42      1.0000 0.86910  0.60920  0.80070  Biso   1.000  C
  H17      1.0000 0.88960  0.61740  0.74440  Biso   1.000  H
  C43      1.0000 0.83420  0.57290  0.79230  Biso   1.000  C
  C44      1.0000 0.87180  0.63140  0.89250  Biso   1.000  C
  C45      1.0000 0.89380  0.71300  0.90310  Biso   1.000  C
  C46      1.0000 0.80190  0.56380  0.87000  Biso   1.000  C
  H18      1.0000 0.77660  0.54190  0.86090  Biso   1.000  H
  C47      1.0000 0.84350  0.72580  0.89940  Biso   1.000  C
  H19      1.0000 0.81560  0.70620  0.89730  Biso   1.000  H
  C48      1.0000 0.96020  0.65270  0.90660  Biso   1.000  C
  C49      1.0000 0.80650  0.58670  0.96150  Biso   1.000  C
  C50      1.0000 0.97740  0.60670  0.91010  Biso   1.000  C
  H20      1.0000 0.95710  0.58040  0.91210  Biso   1.000  H
  C51      1.0000 0.83140  0.54620  0.69590  Biso   1.000  C
  C52      1.0000 0.77270  0.57530  0.04600  Biso   1.000  C
  O17      1.0000 0.30460  0.98731  0.81510  Biso   1.000  O
  O18      1.0000 0.23900  0.95040  0.46620  Biso   1.000  O
  O19      1.0000 0.35640  0.94000  0.88320  Biso   1.000  O
  O20      1.0000 0.28470  0.91380  0.35920  Biso   1.000  O
  C53      1.0000 0.40970  0.83270  0.59540  Biso   1.000  C
  C54      1.0000 0.33980  0.87950  0.52630  Biso   1.000  C
  H21      1.0000 0.34150  0.86330  0.46310  Biso   1.000  H
  C55      1.0000 0.36910  0.89080  0.69930  Biso   1.000  C
  H22      1.0000 0.38960  0.88260  0.75560  Biso   1.000  H
  C56      1.0000 0.33420  0.92710  0.70770  Biso   1.000  C
  C57      1.0000 0.37180  0.86860  0.60750  Biso   1.000  C
  C58      1.0000 0.39380  0.78700  0.59690  Biso   1.000  C
  C59      1.0000 0.30190  0.93620  0.63000  Biso   1.000  C
  H23      1.0000 0.27660  0.95810  0.63910  Biso   1.000  H
  C60      1.0000 0.34350  0.77420  0.60060  Biso   1.000  C
  H24      1.0000 0.31560  0.79380  0.60270  Biso   1.000  H
  C61      1.0000 0.46020  0.84730  0.59340  Biso   1.000  C
  C62      1.0000 0.30650  0.91330  0.53850  Biso   1.000  C
  C63      1.0000 0.47740  0.89330  0.58990  Biso   1.000  C
  H25      1.0000 0.45710  0.91960  0.58790  Biso   1.000  H
  C64      1.0000 0.33140  0.95380  0.80410  Biso   1.000  C
  C65      1.0000 0.27270  0.92470  0.45400  Biso   1.000  C
  O21      1.0000 0.80460  0.48731  0.31510  Biso   1.000  O
  O22      1.0000 0.73900  0.45040  0.96620  Biso   1.000  O
  O23      1.0000 0.85640  0.44000  0.38320  Biso   1.000  O
  O24      1.0000 0.78470  0.41380  0.85920  Biso   1.000  O
  C66      1.0000 0.90970  0.33270  0.09540  Biso   1.000  C
  C67      1.0000 0.83980  0.37950  0.02630  Biso   1.000  C
  H26      1.0000 0.84150  0.36330  0.96310  Biso   1.000  H
  C68      1.0000 0.86910  0.39080  0.19930  Biso   1.000  C
  H27      1.0000 0.88960  0.38260  0.25560  Biso   1.000  H
  C69      1.0000 0.83420  0.42710  0.20770  Biso   1.000  C
  C70      1.0000 0.87180  0.36860  0.10750  Biso   1.000  C
  C71      1.0000 0.89380  0.28700  0.09690  Biso   1.000  C
  C72      1.0000 0.80190  0.43620  0.13000  Biso   1.000  C
  H28      1.0000 0.77660  0.45810  0.13910  Biso   1.000  H
  C73      1.0000 0.84350  0.27420  0.10060  Biso   1.000  C
  H29      1.0000 0.81560  0.29380  0.10270  Biso   1.000  H
  C74      1.0000 0.96020  0.34730  0.09340  Biso   1.000  C
  C75      1.0000 0.80650  0.41330  0.03850  Biso   1.000  C
  C76      1.0000 0.97740  0.39330  0.08990  Biso   1.000  C
  H30      1.0000 0.95710  0.41960  0.08790  Biso   1.000  H
  C77      1.0000 0.83140  0.45380  0.30410  Biso   1.000  C
  C78      1.0000 0.77270  0.42470  0.95400  Biso   1.000  C
  O25      1.0000 0.69540  0.51269  0.81510  Biso   1.000  O
  O26      1.0000 0.76100  0.54960  0.46620  Biso   1.000  O
  O27      1.0000 0.64360  0.56000  0.88320  Biso   1.000  O
  O28      1.0000 0.71530  0.58620  0.35920  Biso   1.000  O
  C79      1.0000 0.59030  0.66730  0.59540  Biso   1.000  C
  C80      1.0000 0.66020  0.62050  0.52630  Biso   1.000  C
  H31      1.0000 0.65850  0.63670  0.46310  Biso   1.000  H
  C81      1.0000 0.63090  0.60920  0.69930  Biso   1.000  C
  H32      1.0000 0.61040  0.61740  0.75560  Biso   1.000  H
  C82      1.0000 0.66580  0.57290  0.70770  Biso   1.000  C
  C83      1.0000 0.62820  0.63140  0.60750  Biso   1.000  C
  C84      1.0000 0.60620  0.71300  0.59690  Biso   1.000  C
  C85      1.0000 0.69810  0.56380  0.63000  Biso   1.000  C
  H33      1.0000 0.72340  0.54190  0.63910  Biso   1.000  H
  C86      1.0000 0.65650  0.72580  0.60060  Biso   1.000  C
  H34      1.0000 0.68440  0.70620  0.60270  Biso   1.000  H
  C87      1.0000 0.53980  0.65270  0.59340  Biso   1.000  C
  C88      1.0000 0.69350  0.58670  0.53850  Biso   1.000  C
  C89      1.0000 0.52260  0.60670  0.58990  Biso   1.000  C
  H35      1.0000 0.54290  0.58040  0.58790  Biso   1.000  H
  C90      1.0000 0.66860  0.54620  0.80410  Biso   1.000  C
  C91      1.0000 0.72730  0.57530  0.45400  Biso   1.000  C
  O29      1.0000 0.19540  0.01269  0.31510  Biso   1.000  O
  O30      1.0000 0.26100  0.04960  0.96620  Biso   1.000  O
  O31      1.0000 0.14360  0.06000  0.38320  Biso   1.000  O
  O32      1.0000 0.21530  0.08620  0.85920  Biso   1.000  O
  C92      1.0000 0.09030  0.16730  0.09540  Biso   1.000  C
  C93      1.0000 0.16020  0.12050  0.02630  Biso   1.000  C
  H36      1.0000 0.15850  0.13670  0.96310  Biso   1.000  H
  C94      1.0000 0.13090  0.10920  0.19930  Biso   1.000  C
  H37      1.0000 0.11040  0.11740  0.25560  Biso   1.000  H
  C95      1.0000 0.16580  0.07290  0.20770  Biso   1.000  C
  C96      1.0000 0.12820  0.13140  0.10750  Biso   1.000  C
  C97      1.0000 0.10620  0.21300  0.09690  Biso   1.000  C
  C98      1.0000 0.19810  0.06380  0.13000  Biso   1.000  C
  H38      1.0000 0.22340  0.04190  0.13910  Biso   1.000  H
  C99      1.0000 0.15650  0.22580  0.10060  Biso   1.000  C
  H39      1.0000 0.18440  0.20620  0.10270  Biso   1.000  H
  C100     1.0000 0.03980  0.15270  0.09340  Biso   1.000  C
  C101     1.0000 0.19350  0.08670  0.03850  Biso   1.000  C
  C102     1.0000 0.02260  0.10670  0.08990  Biso   1.000  C
  H40      1.0000 0.04290  0.08040  0.08790  Biso   1.000  H
  C103     1.0000 0.16860  0.04620  0.30410  Biso   1.000  C
  C104     1.0000 0.22730  0.07530  0.95400  Biso   1.000  C
  O33      1.0000 0.30460  0.51269  0.81510  Biso   1.000  O
  O34      1.0000 0.23900  0.54960  0.46620  Biso   1.000  O
  O35      1.0000 0.35640  0.56000  0.88320  Biso   1.000  O
  O36      1.0000 0.28470  0.58620  0.35920  Biso   1.000  O
  C105     1.0000 0.40970  0.66730  0.59540  Biso   1.000  C
  C106     1.0000 0.33980  0.62050  0.52630  Biso   1.000  C
  H41      1.0000 0.34150  0.63670  0.46310  Biso   1.000  H
  C107     1.0000 0.36910  0.60920  0.69930  Biso   1.000  C
  H42      1.0000 0.38960  0.61740  0.75560  Biso   1.000  H
  C108     1.0000 0.33420  0.57290  0.70770  Biso   1.000  C
  C109     1.0000 0.37180  0.63140  0.60750  Biso   1.000  C
  C110     1.0000 0.39380  0.71300  0.59690  Biso   1.000  C
  C111     1.0000 0.30190  0.56380  0.63000  Biso   1.000  C
  H43      1.0000 0.27660  0.54190  0.63910  Biso   1.000  H
  C112     1.0000 0.34350  0.72580  0.60060  Biso   1.000  C
  H44      1.0000 0.31560  0.70620  0.60270  Biso   1.000  H
  C113     1.0000 0.46020  0.65270  0.59340  Biso   1.000  C
  C114     1.0000 0.30650  0.58670  0.53850  Biso   1.000  C
  C115     1.0000 0.47740  0.60670  0.58990  Biso   1.000  C
  H45      1.0000 0.45710  0.58040  0.58790  Biso   1.000  H
  C116     1.0000 0.33140  0.54620  0.80410  Biso   1.000  C
  C117     1.0000 0.27270  0.57530  0.45400  Biso   1.000  C
  O37      1.0000 0.80460  0.01269  0.31510  Biso   1.000  O
  O38      1.0000 0.73900  0.04960  0.96620  Biso   1.000  O
  O39      1.0000 0.85640  0.06000  0.38320  Biso   1.000  O
  O40      1.0000 0.78470  0.08620  0.85920  Biso   1.000  O
  C118     1.0000 0.90970  0.16730  0.09540  Biso   1.000  C
  C119     1.0000 0.83980  0.12050  0.02630  Biso   1.000  C
  H46      1.0000 0.84150  0.13670  0.96310  Biso   1.000  H
  C120     1.0000 0.86910  0.10920  0.19930  Biso   1.000  C
  H47      1.0000 0.88960  0.11740  0.25560  Biso   1.000  H
  C121     1.0000 0.83420  0.07290  0.20770  Biso   1.000  C
  C122     1.0000 0.87180  0.13140  0.10750  Biso   1.000  C
  C123     1.0000 0.89380  0.21300  0.09690  Biso   1.000  C
  C124     1.0000 0.80190  0.06380  0.13000  Biso   1.000  C
  H48      1.0000 0.77660  0.04190  0.13910  Biso   1.000  H
  C125     1.0000 0.84350  0.22580  0.10060  Biso   1.000  C
  H49      1.0000 0.81560  0.20620  0.10270  Biso   1.000  H
  C126     1.0000 0.96020  0.15270  0.09340  Biso   1.000  C
  C127     1.0000 0.80650  0.08670  0.03850  Biso   1.000  C
  C128     1.0000 0.97740  0.10670  0.08990  Biso   1.000  C
  H50      1.0000 0.95710  0.08040  0.08790  Biso   1.000  H
  C129     1.0000 0.83140  0.04620  0.30410  Biso   1.000  C
  C130     1.0000 0.77270  0.07530  0.95400  Biso   1.000  C
  O41      1.0000 0.69540  0.98731  0.81510  Biso   1.000  O
  O42      1.0000 0.76100  0.95040  0.46620  Biso   1.000  O
  O43      1.0000 0.64360  0.94000  0.88320  Biso   1.000  O
  O44      1.0000 0.71530  0.91380  0.35920  Biso   1.000  O
  C131     1.0000 0.59030  0.83270  0.59540  Biso   1.000  C
  C132     1.0000 0.66020  0.87950  0.52630  Biso   1.000  C
  H51      1.0000 0.65850  0.86330  0.46310  Biso   1.000  H
  C133     1.0000 0.63090  0.89080  0.69930  Biso   1.000  C
  H52      1.0000 0.61040  0.88260  0.75560  Biso   1.000  H
  C134     1.0000 0.66580  0.92710  0.70770  Biso   1.000  C
  C135     1.0000 0.62820  0.86860  0.60750  Biso   1.000  C
  C136     1.0000 0.60620  0.78700  0.59690  Biso   1.000  C
  C137     1.0000 0.69810  0.93620  0.63000  Biso   1.000  C
  H53      1.0000 0.72340  0.95810  0.63910  Biso   1.000  H
  C138     1.0000 0.65650  0.77420  0.60060  Biso   1.000  C
  H54      1.0000 0.68440  0.79380  0.60270  Biso   1.000  H
  C139     1.0000 0.53980  0.84730  0.59340  Biso   1.000  C
  C140     1.0000 0.69350  0.91330  0.53850  Biso   1.000  C
  C141     1.0000 0.52260  0.89330  0.58990  Biso   1.000  C
  H55      1.0000 0.54290  0.91960  0.58790  Biso   1.000  H
  C142     1.0000 0.66860  0.95380  0.80410  Biso   1.000  C
  C143     1.0000 0.72730  0.92470  0.45400  Biso   1.000  C
  O45      1.0000 0.19540  0.48731  0.31510  Biso   1.000  O
  O46      1.0000 0.26100  0.45040  0.96620  Biso   1.000  O
  O47      1.0000 0.14360  0.44000  0.38320  Biso   1.000  O
  O48      1.0000 0.21530  0.41380  0.85920  Biso   1.000  O
  C144     1.0000 0.09030  0.33270  0.09540  Biso   1.000  C
  C145     1.0000 0.16020  0.37950  0.02630  Biso   1.000  C
  H56      1.0000 0.15850  0.36330  0.96310  Biso   1.000  H
  C146     1.0000 0.13090  0.39080  0.19930  Biso   1.000  C
  H57      1.0000 0.11040  0.38260  0.25560  Biso   1.000  H
  C147     1.0000 0.16580  0.42710  0.20770  Biso   1.000  C
  C148     1.0000 0.12820  0.36860  0.10750  Biso   1.000  C
  C149     1.0000 0.10620  0.28700  0.09690  Biso   1.000  C
  C150     1.0000 0.19810  0.43620  0.13000  Biso   1.000  C
  H58      1.0000 0.22340  0.45810  0.13910  Biso   1.000  H
  C151     1.0000 0.15650  0.27420  0.10060  Biso   1.000  C
  H59      1.0000 0.18440  0.29380  0.10270  Biso   1.000  H
  C152     1.0000 0.03980  0.34730  0.09340  Biso   1.000  C
  C153     1.0000 0.19350  0.41330  0.03850  Biso   1.000  C
  C154     1.0000 0.02260  0.39330  0.08990  Biso   1.000  C
  H60      1.0000 0.04290  0.41960  0.08790  Biso   1.000  H
  C155     1.0000 0.16860  0.45380  0.30410  Biso   1.000  C
  C156     1.0000 0.22730  0.42470  0.95400  Biso   1.000  C
  O49      1.0000 0.69540  0.01269  0.18490  Biso   1.000  O
  O50      1.0000 0.76100  0.04960  0.53380  Biso   1.000  O
  O51      1.0000 0.64360  0.06000  0.11680  Biso   1.000  O
  O52      1.0000 0.71530  0.08620  0.64080  Biso   1.000  O
  C157     1.0000 0.59030  0.16730  0.40460  Biso   1.000  C
  C158     1.0000 0.66020  0.12050  0.47370  Biso   1.000  C
  H61      1.0000 0.65850  0.13670  0.53690  Biso   1.000  H
  C159     1.0000 0.63090  0.10920  0.30070  Biso   1.000  C
  H62      1.0000 0.61040  0.11740  0.24440  Biso   1.000  H
  C160     1.0000 0.66580  0.07290  0.29230  Biso   1.000  C
  C161     1.0000 0.62820  0.13140  0.39250  Biso   1.000  C
  C162     1.0000 0.60620  0.21300  0.40310  Biso   1.000  C
  C163     1.0000 0.69810  0.06380  0.37000  Biso   1.000  C
  H63      1.0000 0.72340  0.04190  0.36090  Biso   1.000  H
  C164     1.0000 0.65650  0.22580  0.39940  Biso   1.000  C
  H64      1.0000 0.68440  0.20620  0.39730  Biso   1.000  H
  C165     1.0000 0.53980  0.15270  0.40660  Biso   1.000  C
  C166     1.0000 0.69350  0.08670  0.46150  Biso   1.000  C
  C167     1.0000 0.52260  0.10670  0.41010  Biso   1.000  C
  H65      1.0000 0.54290  0.08040  0.41210  Biso   1.000  H
  C168     1.0000 0.66860  0.04620  0.19590  Biso   1.000  C
  C169     1.0000 0.72730  0.07530  0.54600  Biso   1.000  C
  O53      1.0000 0.19540  0.51269  0.68490  Biso   1.000  O
  O54      1.0000 0.26100  0.54960  0.03380  Biso   1.000  O
  O55      1.0000 0.14360  0.56000  0.61680  Biso   1.000  O
  O56      1.0000 0.21530  0.58620  0.14080  Biso   1.000  O
  C170     1.0000 0.09030  0.66730  0.90460  Biso   1.000  C
  C171     1.0000 0.16020  0.62050  0.97370  Biso   1.000  C
  H66      1.0000 0.15850  0.63670  0.03690  Biso   1.000  H
  C172     1.0000 0.13090  0.60920  0.80070  Biso   1.000  C
  H67      1.0000 0.11040  0.61740  0.74440  Biso   1.000  H
  C173     1.0000 0.16580  0.57290  0.79230  Biso   1.000  C
  C174     1.0000 0.12820  0.63140  0.89250  Biso   1.000  C
  C175     1.0000 0.10620  0.71300  0.90310  Biso   1.000  C
  C176     1.0000 0.19810  0.56380  0.87000  Biso   1.000  C
  H68      1.0000 0.22340  0.54190  0.86090  Biso   1.000  H
  C177     1.0000 0.15650  0.72580  0.89940  Biso   1.000  C
  H69      1.0000 0.18440  0.70620  0.89730  Biso   1.000  H
  C178     1.0000 0.03980  0.65270  0.90660  Biso   1.000  C
  C179     1.0000 0.19350  0.58670  0.96150  Biso   1.000  C
  C180     1.0000 0.02260  0.60670  0.91010  Biso   1.000  C
  H70      1.0000 0.04290  0.58040  0.91210  Biso   1.000  H
  C181     1.0000 0.16860  0.54620  0.69590  Biso   1.000  C
  C182     1.0000 0.22730  0.57530  0.04600  Biso   1.000  C
  O57      1.0000 0.30460  0.48731  0.18490  Biso   1.000  O
  O58      1.0000 0.23900  0.45040  0.53380  Biso   1.000  O
  O59      1.0000 0.35640  0.44000  0.11680  Biso   1.000  O
  O60      1.0000 0.28470  0.41380  0.64080  Biso   1.000  O
  C183     1.0000 0.40970  0.33270  0.40460  Biso   1.000  C
  C184     1.0000 0.33980  0.37950  0.47370  Biso   1.000  C
  H71      1.0000 0.34150  0.36330  0.53690  Biso   1.000  H
  C185     1.0000 0.36910  0.39080  0.30070  Biso   1.000  C
  H72      1.0000 0.38960  0.38260  0.24440  Biso   1.000  H
  C186     1.0000 0.33420  0.42710  0.29230  Biso   1.000  C
  C187     1.0000 0.37180  0.36860  0.39250  Biso   1.000  C
  C188     1.0000 0.39380  0.28700  0.40310  Biso   1.000  C
  C189     1.0000 0.30190  0.43620  0.37000  Biso   1.000  C
  H73      1.0000 0.27660  0.45810  0.36090  Biso   1.000  H
  C190     1.0000 0.34350  0.27420  0.39940  Biso   1.000  C
  H74      1.0000 0.31560  0.29380  0.39730  Biso   1.000  H
  C191     1.0000 0.46020  0.34730  0.40660  Biso   1.000  C
  C192     1.0000 0.30650  0.41330  0.46150  Biso   1.000  C
  C193     1.0000 0.47740  0.39330  0.41010  Biso   1.000  C
  H75      1.0000 0.45710  0.41960  0.41210  Biso   1.000  H
  C194     1.0000 0.33140  0.45380  0.19590  Biso   1.000  C
  C195     1.0000 0.27270  0.42470  0.54600  Biso   1.000  C
  O61      1.0000 0.80460  0.98731  0.68490  Biso   1.000  O
  O62      1.0000 0.73900  0.95040  0.03380  Biso   1.000  O
  O63      1.0000 0.85640  0.94000  0.61680  Biso   1.000  O
  O64      1.0000 0.78470  0.91380  0.14080  Biso   1.000  O
  C196     1.0000 0.90970  0.83270  0.90460  Biso   1.000  C
  C197     1.0000 0.83980  0.87950  0.97370  Biso   1.000  C
  H76      1.0000 0.84150  0.86330  0.03690  Biso   1.000  H
  C198     1.0000 0.86910  0.89080  0.80070  Biso   1.000  C
  H77      1.0000 0.88960  0.88260  0.74440  Biso   1.000  H
  C199     1.0000 0.83420  0.92710  0.79230  Biso   1.000  C
  C200     1.0000 0.87180  0.86860  0.89250  Biso   1.000  C
  C201     1.0000 0.89380  0.78700  0.90310  Biso   1.000  C
  C202     1.0000 0.80190  0.93620  0.87000  Biso   1.000  C
  H78      1.0000 0.77660  0.95810  0.86090  Biso   1.000  H
  C203     1.0000 0.84350  0.77420  0.89940  Biso   1.000  C
  H79      1.0000 0.81560  0.79380  0.89730  Biso   1.000  H
  C204     1.0000 0.96020  0.84730  0.90660  Biso   1.000  C
  C205     1.0000 0.80650  0.91330  0.96150  Biso   1.000  C
  C206     1.0000 0.97740  0.89330  0.91010  Biso   1.000  C
  H80      1.0000 0.95710  0.91960  0.91210  Biso   1.000  H
  C207     1.0000 0.83140  0.95380  0.69590  Biso   1.000  C
  C208     1.0000 0.77270  0.92470  0.04600  Biso   1.000  C
  Sm1      1.0000 0.82737  0.50000  0.50000  Biso   1.000  Sm
  Sm2      1.0000 0.32737  0.00000  0.00000  Biso   1.000  Sm
  Sm3      1.0000 0.17263  0.00000  0.50000  Biso   1.000  Sm
  Sm4      1.0000 0.67263  0.50000  0.00000  Biso   1.000  Sm
  Sm5      1.0000 0.17263  0.50000  0.50000  Biso   1.000  Sm
  Sm6      1.0000 0.67263  0.00000  0.00000  Biso   1.000  Sm
  Sm7      1.0000 0.82737  0.00000  0.50000  Biso   1.000  Sm
  Sm8      1.0000 0.32737  0.50000  0.00000  Biso   1.000  Sm
  Zn1      1.0000 0.50000  0.25000  0.44040  Biso   1.000  Zn
  Zn2      1.0000 0.50000  0.25000  0.38390  Biso   1.000  Zn
  Zn3      1.0000 0.00000  0.75000  0.94040  Biso   1.000  Zn
  Zn4      1.0000 0.00000  0.75000  0.88390  Biso   1.000  Zn
  Zn5      1.0000 0.50000  0.75000  0.55960  Biso   1.000  Zn
  Zn6      1.0000 0.50000  0.75000  0.61610  Biso   1.000  Zn
  Zn7      1.0000 0.00000  0.25000  0.05960  Biso   1.000  Zn
  Zn8      1.0000 0.00000  0.25000  0.11610  Biso   1.000  Zn
  Na1      1.0000 0.75000  0.45972  0.75000  Biso   1.000  Na
  Na2      1.0000 0.25000  0.04028  0.75000  Biso   1.000  Na
  Na3      1.0000 0.25000  0.95972  0.25000  Biso   1.000  Na
  Na4      1.0000 0.75000  0.54028  0.25000  Biso   1.000  Na
  Na5      1.0000 0.25000  0.54028  0.25000  Biso   1.000  Na
  Na6      1.0000 0.75000  0.95972  0.25000  Biso   1.000  Na
  Na7      1.0000 0.75000  0.04028  0.75000  Biso   1.000  Na
  Na8      1.0000 0.25000  0.45972  0.75000  Biso   1.000  Na
  N1       1.0000 0.50000  0.31950  0.40830  Biso   1.000  N
  N2       1.0000 0.00000  0.81950  0.90830  Biso   1.000  N
  N3       1.0000 0.50000  0.18050  0.40830  Biso   1.000  N
  N4       1.0000 0.00000  0.68050  0.90830  Biso   1.000  N
  N5       1.0000 0.50000  0.81950  0.59170  Biso   1.000  N
  N6       1.0000 0.00000  0.31950  0.09170  Biso   1.000  N
  N7       1.0000 0.50000  0.68050  0.59170  Biso   1.000  N
  N8       1.0000 0.00000  0.18050  0.09170  Biso   1.000  N
  N9       1.0000 0.57560  0.25000  0.41210  Biso   1.000  N
  N10      1.0000 0.07560  0.75000  0.91210  Biso   1.000  N
  N11      1.0000 0.42440  0.25000  0.41210  Biso   1.000  N
  N12      1.0000 0.92440  0.75000  0.91210  Biso   1.000  N
  N13      1.0000 0.42440  0.75000  0.58790  Biso   1.000  N
  N14      1.0000 0.92440  0.25000  0.08790  Biso   1.000  N
  N15      1.0000 0.57560  0.75000  0.58790  Biso   1.000  N
  N16      1.0000 0.07560  0.25000  0.08790  Biso   1.000  N
