data_image0
_cell_length_a       27.631
_cell_length_b       29.08
_cell_length_c       13.136
_cell_angle_alpha    90
_cell_angle_beta     90
_cell_angle_gamma    90

_symmetry_space_group_name_H-M    "P 1"
_symmetry_int_tables_number       1

loop_
  _symmetry_equiv_pos_as_xyz
  'x, y, z'

loop_
  _atom_site_label
  _atom_site_occupancy
  _atom_site_fract_x
  _atom_site_fract_y
  _atom_site_fract_z
  _atom_site_thermal_displace_type
  _atom_site_B_iso_or_equiv
  _atom_site_type_symbol
  O1       1.0000 0.69711  0.48711  0.18320  Biso   1.000  O
  O2       1.0000 0.76780  0.44490  0.52520  Biso   1.000  O
  O3       1.0000 0.71110  0.41450  0.63510  Biso   1.000  O
  O4       1.0000 0.64030  0.44470  0.11920  Biso   1.000  O
  C1       1.0000 0.60260  0.28790  0.40300  Biso   1.000  C
  C2       1.0000 0.66480  0.42820  0.28700  Biso   1.000  C
  C3       1.0000 0.65600  0.38030  0.47080  Biso   1.000  C
  H1       1.0000 0.65220  0.36480  0.53400  Biso   1.000  H
  C4       1.0000 0.62630  0.36990  0.38650  Biso   1.000  C
  C5       1.0000 0.65300  0.27310  0.39690  Biso   1.000  C
  H2       1.0000 0.68070  0.29250  0.39350  Biso   1.000  H
  C6       1.0000 0.58740  0.33340  0.39710  Biso   1.000  C
  C7       1.0000 0.67090  0.45290  0.18980  Biso   1.000  C
  C8       1.0000 0.63120  0.39400  0.29790  Biso   1.000  C
  H3       1.0000 0.61070  0.38680  0.24220  Biso   1.000  H
  C9       1.0000 0.72300  0.42740  0.54720  Biso   1.000  C
  C10      1.0000 0.54040  0.34710  0.39530  Biso   1.000  C
  C11      1.0000 0.52360  0.39520  0.39510  Biso   1.000  C
  H4       1.0000 0.54370  0.42160  0.39490  Biso   1.000  H
  C12      1.0000 0.69610  0.43720  0.36830  Biso   1.000  C
  H5       1.0000 0.72100  0.45940  0.36060  Biso   1.000  H
  C13      1.0000 0.69150  0.41450  0.45760  Biso   1.000  C
  O5       1.0000 0.75130  0.45640  0.53820  Biso   1.000  O
  O6       1.0000 0.65590  0.43080  0.10430  Biso   1.000  O
  O7       1.0000 0.19711  0.98711  0.68320  Biso   1.000  O
  O8       1.0000 0.26780  0.94490  0.02520  Biso   1.000  O
  O9       1.0000 0.21110  0.91450  0.13510  Biso   1.000  O
  O10      1.0000 0.14030  0.94470  0.61920  Biso   1.000  O
  C14      1.0000 0.10260  0.78790  0.90300  Biso   1.000  C
  C15      1.0000 0.16480  0.92820  0.78700  Biso   1.000  C
  C16      1.0000 0.15600  0.88030  0.97080  Biso   1.000  C
  H6       1.0000 0.15220  0.86480  0.03400  Biso   1.000  H
  C17      1.0000 0.12630  0.86990  0.88650  Biso   1.000  C
  C18      1.0000 0.15300  0.77310  0.89690  Biso   1.000  C
  H7       1.0000 0.18070  0.79250  0.89350  Biso   1.000  H
  C19      1.0000 0.08740  0.83340  0.89710  Biso   1.000  C
  C20      1.0000 0.17090  0.95290  0.68980  Biso   1.000  C
  C21      1.0000 0.13120  0.89400  0.79790  Biso   1.000  C
  H8       1.0000 0.11070  0.88680  0.74220  Biso   1.000  H
  C22      1.0000 0.22300  0.92740  0.04720  Biso   1.000  C
  C23      1.0000 0.04040  0.84710  0.89530  Biso   1.000  C
  C24      1.0000 0.02360  0.89520  0.89510  Biso   1.000  C
  H9       1.0000 0.04370  0.92160  0.89490  Biso   1.000  H
  C25      1.0000 0.19610  0.93720  0.86830  Biso   1.000  C
  H10      1.0000 0.22100  0.95940  0.86060  Biso   1.000  H
  C26      1.0000 0.19150  0.91450  0.95760  Biso   1.000  C
  O11      1.0000 0.25130  0.95640  0.03820  Biso   1.000  O
  O12      1.0000 0.15590  0.93080  0.60430  Biso   1.000  O
  O13      1.0000 0.30289  0.01289  0.18320  Biso   1.000  O
  O14      1.0000 0.23220  0.05510  0.52520  Biso   1.000  O
  O15      1.0000 0.28890  0.08550  0.63510  Biso   1.000  O
  O16      1.0000 0.35970  0.05530  0.11920  Biso   1.000  O
  C27      1.0000 0.39740  0.21210  0.40300  Biso   1.000  C
  C28      1.0000 0.33520  0.07180  0.28700  Biso   1.000  C
  C29      1.0000 0.34400  0.11970  0.47080  Biso   1.000  C
  H11      1.0000 0.34780  0.13520  0.53400  Biso   1.000  H
  C30      1.0000 0.37370  0.13010  0.38650  Biso   1.000  C
  C31      1.0000 0.34700  0.22690  0.39690  Biso   1.000  C
  H12      1.0000 0.31930  0.20750  0.39350  Biso   1.000  H
  C32      1.0000 0.41260  0.16660  0.39710  Biso   1.000  C
  C33      1.0000 0.32910  0.04710  0.18980  Biso   1.000  C
  C34      1.0000 0.36880  0.10600  0.29790  Biso   1.000  C
  H13      1.0000 0.38930  0.11320  0.24220  Biso   1.000  H
  C35      1.0000 0.27700  0.07260  0.54720  Biso   1.000  C
  C36      1.0000 0.45960  0.15290  0.39530  Biso   1.000  C
  C37      1.0000 0.47640  0.10480  0.39510  Biso   1.000  C
  H14      1.0000 0.45630  0.07840  0.39490  Biso   1.000  H
  C38      1.0000 0.30390  0.06280  0.36830  Biso   1.000  C
  H15      1.0000 0.27900  0.04060  0.36060  Biso   1.000  H
  C39      1.0000 0.30850  0.08550  0.45760  Biso   1.000  C
  O17      1.0000 0.24870  0.04360  0.53820  Biso   1.000  O
  O18      1.0000 0.34410  0.06920  0.10430  Biso   1.000  O
  O19      1.0000 0.80289  0.51289  0.68320  Biso   1.000  O
  O20      1.0000 0.73220  0.55510  0.02520  Biso   1.000  O
  O21      1.0000 0.78890  0.58550  0.13510  Biso   1.000  O
  O22      1.0000 0.85970  0.55530  0.61920  Biso   1.000  O
  C40      1.0000 0.89740  0.71210  0.90300  Biso   1.000  C
  C41      1.0000 0.83520  0.57180  0.78700  Biso   1.000  C
  C42      1.0000 0.84400  0.61970  0.97080  Biso   1.000  C
  H16      1.0000 0.84780  0.63520  0.03400  Biso   1.000  H
  C43      1.0000 0.87370  0.63010  0.88650  Biso   1.000  C
  C44      1.0000 0.84700  0.72690  0.89690  Biso   1.000  C
  H17      1.0000 0.81930  0.70750  0.89350  Biso   1.000  H
  C45      1.0000 0.91260  0.66660  0.89710  Biso   1.000  C
  C46      1.0000 0.82910  0.54710  0.68980  Biso   1.000  C
  C47      1.0000 0.86880  0.60600  0.79790  Biso   1.000  C
  H18      1.0000 0.88930  0.61320  0.74220  Biso   1.000  H
  C48      1.0000 0.77700  0.57260  0.04720  Biso   1.000  C
  C49      1.0000 0.95960  0.65290  0.89530  Biso   1.000  C
  C50      1.0000 0.97640  0.60480  0.89510  Biso   1.000  C
  H19      1.0000 0.95630  0.57840  0.89490  Biso   1.000  H
  C51      1.0000 0.80390  0.56280  0.86830  Biso   1.000  C
  H20      1.0000 0.77900  0.54060  0.86060  Biso   1.000  H
  C52      1.0000 0.80850  0.58550  0.95760  Biso   1.000  C
  O23      1.0000 0.74870  0.54360  0.03820  Biso   1.000  O
  O24      1.0000 0.84410  0.56920  0.60430  Biso   1.000  O
  O25      1.0000 0.30289  0.98711  0.81680  Biso   1.000  O
  O26      1.0000 0.23220  0.94490  0.47480  Biso   1.000  O
  O27      1.0000 0.28890  0.91450  0.36490  Biso   1.000  O
  O28      1.0000 0.35970  0.94470  0.88080  Biso   1.000  O
  C53      1.0000 0.39740  0.78790  0.59700  Biso   1.000  C
  C54      1.0000 0.33520  0.92820  0.71300  Biso   1.000  C
  C55      1.0000 0.34400  0.88030  0.52920  Biso   1.000  C
  H21      1.0000 0.34780  0.86480  0.46600  Biso   1.000  H
  C56      1.0000 0.37370  0.86990  0.61350  Biso   1.000  C
  C57      1.0000 0.34700  0.77310  0.60310  Biso   1.000  C
  H22      1.0000 0.31930  0.79250  0.60650  Biso   1.000  H
  C58      1.0000 0.41260  0.83340  0.60290  Biso   1.000  C
  C59      1.0000 0.32910  0.95290  0.81020  Biso   1.000  C
  C60      1.0000 0.36880  0.89400  0.70210  Biso   1.000  C
  H23      1.0000 0.38930  0.88680  0.75780  Biso   1.000  H
  C61      1.0000 0.27700  0.92740  0.45280  Biso   1.000  C
  C62      1.0000 0.45960  0.84710  0.60470  Biso   1.000  C
  C63      1.0000 0.47640  0.89520  0.60490  Biso   1.000  C
  H24      1.0000 0.45630  0.92160  0.60510  Biso   1.000  H
  C64      1.0000 0.30390  0.93720  0.63170  Biso   1.000  C
  H25      1.0000 0.27900  0.95940  0.63940  Biso   1.000  H
  C65      1.0000 0.30850  0.91450  0.54240  Biso   1.000  C
  O29      1.0000 0.24870  0.95640  0.46180  Biso   1.000  O
  O30      1.0000 0.34410  0.93080  0.89570  Biso   1.000  O
  O31      1.0000 0.80289  0.48711  0.31680  Biso   1.000  O
  O32      1.0000 0.73220  0.44490  0.97480  Biso   1.000  O
  O33      1.0000 0.78890  0.41450  0.86490  Biso   1.000  O
  O34      1.0000 0.85970  0.44470  0.38080  Biso   1.000  O
  C66      1.0000 0.89740  0.28790  0.09700  Biso   1.000  C
  C67      1.0000 0.83520  0.42820  0.21300  Biso   1.000  C
  C68      1.0000 0.84400  0.38030  0.02920  Biso   1.000  C
  H26      1.0000 0.84780  0.36480  0.96600  Biso   1.000  H
  C69      1.0000 0.87370  0.36990  0.11350  Biso   1.000  C
  C70      1.0000 0.84700  0.27310  0.10310  Biso   1.000  C
  H27      1.0000 0.81930  0.29250  0.10650  Biso   1.000  H
  C71      1.0000 0.91260  0.33340  0.10290  Biso   1.000  C
  C72      1.0000 0.82910  0.45290  0.31020  Biso   1.000  C
  C73      1.0000 0.86880  0.39400  0.20210  Biso   1.000  C
  H28      1.0000 0.88930  0.38680  0.25780  Biso   1.000  H
  C74      1.0000 0.77700  0.42740  0.95280  Biso   1.000  C
  C75      1.0000 0.95960  0.34710  0.10470  Biso   1.000  C
  C76      1.0000 0.97640  0.39520  0.10490  Biso   1.000  C
  H29      1.0000 0.95630  0.42160  0.10510  Biso   1.000  H
  C77      1.0000 0.80390  0.43720  0.13170  Biso   1.000  C
  H30      1.0000 0.77900  0.45940  0.13940  Biso   1.000  H
  C78      1.0000 0.80850  0.41450  0.04240  Biso   1.000  C
  O35      1.0000 0.74870  0.45640  0.96180  Biso   1.000  O
  O36      1.0000 0.84410  0.43080  0.39570  Biso   1.000  O
  O37      1.0000 0.69711  0.51289  0.81680  Biso   1.000  O
  O38      1.0000 0.76780  0.55510  0.47480  Biso   1.000  O
  O39      1.0000 0.71110  0.58550  0.36490  Biso   1.000  O
  O40      1.0000 0.64030  0.55530  0.88080  Biso   1.000  O
  C79      1.0000 0.60260  0.71210  0.59700  Biso   1.000  C
  C80      1.0000 0.66480  0.57180  0.71300  Biso   1.000  C
  C81      1.0000 0.65600  0.61970  0.52920  Biso   1.000  C
  H31      1.0000 0.65220  0.63520  0.46600  Biso   1.000  H
  C82      1.0000 0.62630  0.63010  0.61350  Biso   1.000  C
  C83      1.0000 0.65300  0.72690  0.60310  Biso   1.000  C
  H32      1.0000 0.68070  0.70750  0.60650  Biso   1.000  H
  C84      1.0000 0.58740  0.66660  0.60290  Biso   1.000  C
  C85      1.0000 0.67090  0.54710  0.81020  Biso   1.000  C
  C86      1.0000 0.63120  0.60600  0.70210  Biso   1.000  C
  H33      1.0000 0.61070  0.61320  0.75780  Biso   1.000  H
  C87      1.0000 0.72300  0.57260  0.45280  Biso   1.000  C
  C88      1.0000 0.54040  0.65290  0.60470  Biso   1.000  C
  C89      1.0000 0.52360  0.60480  0.60490  Biso   1.000  C
  H34      1.0000 0.54370  0.57840  0.60510  Biso   1.000  H
  C90      1.0000 0.69610  0.56280  0.63170  Biso   1.000  C
  H35      1.0000 0.72100  0.54060  0.63940  Biso   1.000  H
  C91      1.0000 0.69150  0.58550  0.54240  Biso   1.000  C
  O41      1.0000 0.75130  0.54360  0.46180  Biso   1.000  O
  O42      1.0000 0.65590  0.56920  0.89570  Biso   1.000  O
  O43      1.0000 0.19711  0.01289  0.31680  Biso   1.000  O
  O44      1.0000 0.26780  0.05510  0.97480  Biso   1.000  O
  O45      1.0000 0.21110  0.08550  0.86490  Biso   1.000  O
  O46      1.0000 0.14030  0.05530  0.38080  Biso   1.000  O
  C92      1.0000 0.10260  0.21210  0.09700  Biso   1.000  C
  C93      1.0000 0.16480  0.07180  0.21300  Biso   1.000  C
  C94      1.0000 0.15600  0.11970  0.02920  Biso   1.000  C
  H36      1.0000 0.15220  0.13520  0.96600  Biso   1.000  H
  C95      1.0000 0.12630  0.13010  0.11350  Biso   1.000  C
  C96      1.0000 0.15300  0.22690  0.10310  Biso   1.000  C
  H37      1.0000 0.18070  0.20750  0.10650  Biso   1.000  H
  C97      1.0000 0.08740  0.16660  0.10290  Biso   1.000  C
  C98      1.0000 0.17090  0.04710  0.31020  Biso   1.000  C
  C99      1.0000 0.13120  0.10600  0.20210  Biso   1.000  C
  H38      1.0000 0.11070  0.11320  0.25780  Biso   1.000  H
  C100     1.0000 0.22300  0.07260  0.95280  Biso   1.000  C
  C101     1.0000 0.04040  0.15290  0.10470  Biso   1.000  C
  C102     1.0000 0.02360  0.10480  0.10490  Biso   1.000  C
  H39      1.0000 0.04370  0.07840  0.10510  Biso   1.000  H
  C103     1.0000 0.19610  0.06280  0.13170  Biso   1.000  C
  H40      1.0000 0.22100  0.04060  0.13940  Biso   1.000  H
  C104     1.0000 0.19150  0.08550  0.04240  Biso   1.000  C
  O47      1.0000 0.25130  0.04360  0.96180  Biso   1.000  O
  O48      1.0000 0.15590  0.06920  0.39570  Biso   1.000  O
  O49      1.0000 0.30289  0.51289  0.81680  Biso   1.000  O
  O50      1.0000 0.23220  0.55510  0.47480  Biso   1.000  O
  O51      1.0000 0.28890  0.58550  0.36490  Biso   1.000  O
  O52      1.0000 0.35970  0.55530  0.88080  Biso   1.000  O
  C105     1.0000 0.39740  0.71210  0.59700  Biso   1.000  C
  C106     1.0000 0.33520  0.57180  0.71300  Biso   1.000  C
  C107     1.0000 0.34400  0.61970  0.52920  Biso   1.000  C
  H41      1.0000 0.34780  0.63520  0.46600  Biso   1.000  H
  C108     1.0000 0.37370  0.63010  0.61350  Biso   1.000  C
  C109     1.0000 0.34700  0.72690  0.60310  Biso   1.000  C
  H42      1.0000 0.31930  0.70750  0.60650  Biso   1.000  H
  C110     1.0000 0.41260  0.66660  0.60290  Biso   1.000  C
  C111     1.0000 0.32910  0.54710  0.81020  Biso   1.000  C
  C112     1.0000 0.36880  0.60600  0.70210  Biso   1.000  C
  H43      1.0000 0.38930  0.61320  0.75780  Biso   1.000  H
  C113     1.0000 0.27700  0.57260  0.45280  Biso   1.000  C
  C114     1.0000 0.45960  0.65290  0.60470  Biso   1.000  C
  C115     1.0000 0.47640  0.60480  0.60490  Biso   1.000  C
  H44      1.0000 0.45630  0.57840  0.60510  Biso   1.000  H
  C116     1.0000 0.30390  0.56280  0.63170  Biso   1.000  C
  H45      1.0000 0.27900  0.54060  0.63940  Biso   1.000  H
  C117     1.0000 0.30850  0.58550  0.54240  Biso   1.000  C
  O53      1.0000 0.24870  0.54360  0.46180  Biso   1.000  O
  O54      1.0000 0.34410  0.56920  0.89570  Biso   1.000  O
  O55      1.0000 0.80289  0.01289  0.31680  Biso   1.000  O
  O56      1.0000 0.73220  0.05510  0.97480  Biso   1.000  O
  O57      1.0000 0.78890  0.08550  0.86490  Biso   1.000  O
  O58      1.0000 0.85970  0.05530  0.38080  Biso   1.000  O
  C118     1.0000 0.89740  0.21210  0.09700  Biso   1.000  C
  C119     1.0000 0.83520  0.07180  0.21300  Biso   1.000  C
  C120     1.0000 0.84400  0.11970  0.02920  Biso   1.000  C
  H46      1.0000 0.84780  0.13520  0.96600  Biso   1.000  H
  C121     1.0000 0.87370  0.13010  0.11350  Biso   1.000  C
  C122     1.0000 0.84700  0.22690  0.10310  Biso   1.000  C
  H47      1.0000 0.81930  0.20750  0.10650  Biso   1.000  H
  C123     1.0000 0.91260  0.16660  0.10290  Biso   1.000  C
  C124     1.0000 0.82910  0.04710  0.31020  Biso   1.000  C
  C125     1.0000 0.86880  0.10600  0.20210  Biso   1.000  C
  H48      1.0000 0.88930  0.11320  0.25780  Biso   1.000  H
  C126     1.0000 0.77700  0.07260  0.95280  Biso   1.000  C
  C127     1.0000 0.95960  0.15290  0.10470  Biso   1.000  C
  C128     1.0000 0.97640  0.10480  0.10490  Biso   1.000  C
  H49      1.0000 0.95630  0.07840  0.10510  Biso   1.000  H
  C129     1.0000 0.80390  0.06280  0.13170  Biso   1.000  C
  H50      1.0000 0.77900  0.04060  0.13940  Biso   1.000  H
  C130     1.0000 0.80850  0.08550  0.04240  Biso   1.000  C
  O59      1.0000 0.74870  0.04360  0.96180  Biso   1.000  O
  O60      1.0000 0.84410  0.06920  0.39570  Biso   1.000  O
  O61      1.0000 0.69711  0.98711  0.81680  Biso   1.000  O
  O62      1.0000 0.76780  0.94490  0.47480  Biso   1.000  O
  O63      1.0000 0.71110  0.91450  0.36490  Biso   1.000  O
  O64      1.0000 0.64030  0.94470  0.88080  Biso   1.000  O
  C131     1.0000 0.60260  0.78790  0.59700  Biso   1.000  C
  C132     1.0000 0.66480  0.92820  0.71300  Biso   1.000  C
  C133     1.0000 0.65600  0.88030  0.52920  Biso   1.000  C
  H51      1.0000 0.65220  0.86480  0.46600  Biso   1.000  H
  C134     1.0000 0.62630  0.86990  0.61350  Biso   1.000  C
  C135     1.0000 0.65300  0.77310  0.60310  Biso   1.000  C
  H52      1.0000 0.68070  0.79250  0.60650  Biso   1.000  H
  C136     1.0000 0.58740  0.83340  0.60290  Biso   1.000  C
  C137     1.0000 0.67090  0.95290  0.81020  Biso   1.000  C
  C138     1.0000 0.63120  0.89400  0.70210  Biso   1.000  C
  H53      1.0000 0.61070  0.88680  0.75780  Biso   1.000  H
  C139     1.0000 0.72300  0.92740  0.45280  Biso   1.000  C
  C140     1.0000 0.54040  0.84710  0.60470  Biso   1.000  C
  C141     1.0000 0.52360  0.89520  0.60490  Biso   1.000  C
  H54      1.0000 0.54370  0.92160  0.60510  Biso   1.000  H
  C142     1.0000 0.69610  0.93720  0.63170  Biso   1.000  C
  H55      1.0000 0.72100  0.95940  0.63940  Biso   1.000  H
  C143     1.0000 0.69150  0.91450  0.54240  Biso   1.000  C
  O65      1.0000 0.75130  0.95640  0.46180  Biso   1.000  O
  O66      1.0000 0.65590  0.93080  0.89570  Biso   1.000  O
  O67      1.0000 0.19711  0.48711  0.31680  Biso   1.000  O
  O68      1.0000 0.26780  0.44490  0.97480  Biso   1.000  O
  O69      1.0000 0.21110  0.41450  0.86490  Biso   1.000  O
  O70      1.0000 0.14030  0.44470  0.38080  Biso   1.000  O
  C144     1.0000 0.10260  0.28790  0.09700  Biso   1.000  C
  C145     1.0000 0.16480  0.42820  0.21300  Biso   1.000  C
  C146     1.0000 0.15600  0.38030  0.02920  Biso   1.000  C
  H56      1.0000 0.15220  0.36480  0.96600  Biso   1.000  H
  C147     1.0000 0.12630  0.36990  0.11350  Biso   1.000  C
  C148     1.0000 0.15300  0.27310  0.10310  Biso   1.000  C
  H57      1.0000 0.18070  0.29250  0.10650  Biso   1.000  H
  C149     1.0000 0.08740  0.33340  0.10290  Biso   1.000  C
  C150     1.0000 0.17090  0.45290  0.31020  Biso   1.000  C
  C151     1.0000 0.13120  0.39400  0.20210  Biso   1.000  C
  H58      1.0000 0.11070  0.38680  0.25780  Biso   1.000  H
  C152     1.0000 0.22300  0.42740  0.95280  Biso   1.000  C
  C153     1.0000 0.04040  0.34710  0.10470  Biso   1.000  C
  C154     1.0000 0.02360  0.39520  0.10490  Biso   1.000  C
  H59      1.0000 0.04370  0.42160  0.10510  Biso   1.000  H
  C155     1.0000 0.19610  0.43720  0.13170  Biso   1.000  C
  H60      1.0000 0.22100  0.45940  0.13940  Biso   1.000  H
  C156     1.0000 0.19150  0.41450  0.04240  Biso   1.000  C
  O71      1.0000 0.25130  0.45640  0.96180  Biso   1.000  O
  O72      1.0000 0.15590  0.43080  0.39570  Biso   1.000  O
  O73      1.0000 0.69711  0.01289  0.18320  Biso   1.000  O
  O74      1.0000 0.76780  0.05510  0.52520  Biso   1.000  O
  O75      1.0000 0.71110  0.08550  0.63510  Biso   1.000  O
  O76      1.0000 0.64030  0.05530  0.11920  Biso   1.000  O
  C157     1.0000 0.60260  0.21210  0.40300  Biso   1.000  C
  C158     1.0000 0.66480  0.07180  0.28700  Biso   1.000  C
  C159     1.0000 0.65600  0.11970  0.47080  Biso   1.000  C
  H61      1.0000 0.65220  0.13520  0.53400  Biso   1.000  H
  C160     1.0000 0.62630  0.13010  0.38650  Biso   1.000  C
  C161     1.0000 0.65300  0.22690  0.39690  Biso   1.000  C
  H62      1.0000 0.68070  0.20750  0.39350  Biso   1.000  H
  C162     1.0000 0.58740  0.16660  0.39710  Biso   1.000  C
  C163     1.0000 0.67090  0.04710  0.18980  Biso   1.000  C
  C164     1.0000 0.63120  0.10600  0.29790  Biso   1.000  C
  H63      1.0000 0.61070  0.11320  0.24220  Biso   1.000  H
  C165     1.0000 0.72300  0.07260  0.54720  Biso   1.000  C
  C166     1.0000 0.54040  0.15290  0.39530  Biso   1.000  C
  C167     1.0000 0.52360  0.10480  0.39510  Biso   1.000  C
  H64      1.0000 0.54370  0.07840  0.39490  Biso   1.000  H
  C168     1.0000 0.69610  0.06280  0.36830  Biso   1.000  C
  H65      1.0000 0.72100  0.04060  0.36060  Biso   1.000  H
  C169     1.0000 0.69150  0.08550  0.45760  Biso   1.000  C
  O77      1.0000 0.75130  0.04360  0.53820  Biso   1.000  O
  O78      1.0000 0.65590  0.06920  0.10430  Biso   1.000  O
  O79      1.0000 0.19711  0.51289  0.68320  Biso   1.000  O
  O80      1.0000 0.26780  0.55510  0.02520  Biso   1.000  O
  O81      1.0000 0.21110  0.58550  0.13510  Biso   1.000  O
  O82      1.0000 0.14030  0.55530  0.61920  Biso   1.000  O
  C170     1.0000 0.10260  0.71210  0.90300  Biso   1.000  C
  C171     1.0000 0.16480  0.57180  0.78700  Biso   1.000  C
  C172     1.0000 0.15600  0.61970  0.97080  Biso   1.000  C
  H66      1.0000 0.15220  0.63520  0.03400  Biso   1.000  H
  C173     1.0000 0.12630  0.63010  0.88650  Biso   1.000  C
  C174     1.0000 0.15300  0.72690  0.89690  Biso   1.000  C
  H67      1.0000 0.18070  0.70750  0.89350  Biso   1.000  H
  C175     1.0000 0.08740  0.66660  0.89710  Biso   1.000  C
  C176     1.0000 0.17090  0.54710  0.68980  Biso   1.000  C
  C177     1.0000 0.13120  0.60600  0.79790  Biso   1.000  C
  H68      1.0000 0.11070  0.61320  0.74220  Biso   1.000  H
  C178     1.0000 0.22300  0.57260  0.04720  Biso   1.000  C
  C179     1.0000 0.04040  0.65290  0.89530  Biso   1.000  C
  C180     1.0000 0.02360  0.60480  0.89510  Biso   1.000  C
  H69      1.0000 0.04370  0.57840  0.89490  Biso   1.000  H
  C181     1.0000 0.19610  0.56280  0.86830  Biso   1.000  C
  H70      1.0000 0.22100  0.54060  0.86060  Biso   1.000  H
  C182     1.0000 0.19150  0.58550  0.95760  Biso   1.000  C
  O83      1.0000 0.25130  0.54360  0.03820  Biso   1.000  O
  O84      1.0000 0.15590  0.56920  0.60430  Biso   1.000  O
  O85      1.0000 0.30289  0.48711  0.18320  Biso   1.000  O
  O86      1.0000 0.23220  0.44490  0.52520  Biso   1.000  O
  O87      1.0000 0.28890  0.41450  0.63510  Biso   1.000  O
  O88      1.0000 0.35970  0.44470  0.11920  Biso   1.000  O
  C183     1.0000 0.39740  0.28790  0.40300  Biso   1.000  C
  C184     1.0000 0.33520  0.42820  0.28700  Biso   1.000  C
  C185     1.0000 0.34400  0.38030  0.47080  Biso   1.000  C
  H71      1.0000 0.34780  0.36480  0.53400  Biso   1.000  H
  C186     1.0000 0.37370  0.36990  0.38650  Biso   1.000  C
  C187     1.0000 0.34700  0.27310  0.39690  Biso   1.000  C
  H72      1.0000 0.31930  0.29250  0.39350  Biso   1.000  H
  C188     1.0000 0.41260  0.33340  0.39710  Biso   1.000  C
  C189     1.0000 0.32910  0.45290  0.18980  Biso   1.000  C
  C190     1.0000 0.36880  0.39400  0.29790  Biso   1.000  C
  H73      1.0000 0.38930  0.38680  0.24220  Biso   1.000  H
  C191     1.0000 0.27700  0.42740  0.54720  Biso   1.000  C
  C192     1.0000 0.45960  0.34710  0.39530  Biso   1.000  C
  C193     1.0000 0.47640  0.39520  0.39510  Biso   1.000  C
  H74      1.0000 0.45630  0.42160  0.39490  Biso   1.000  H
  C194     1.0000 0.30390  0.43720  0.36830  Biso   1.000  C
  H75      1.0000 0.27900  0.45940  0.36060  Biso   1.000  H
  C195     1.0000 0.30850  0.41450  0.45760  Biso   1.000  C
  O89      1.0000 0.24870  0.45640  0.53820  Biso   1.000  O
  O90      1.0000 0.34410  0.43080  0.10430  Biso   1.000  O
  O91      1.0000 0.80289  0.98711  0.68320  Biso   1.000  O
  O92      1.0000 0.73220  0.94490  0.02520  Biso   1.000  O
  O93      1.0000 0.78890  0.91450  0.13510  Biso   1.000  O
  O94      1.0000 0.85970  0.94470  0.61920  Biso   1.000  O
  C196     1.0000 0.89740  0.78790  0.90300  Biso   1.000  C
  C197     1.0000 0.83520  0.92820  0.78700  Biso   1.000  C
  C198     1.0000 0.84400  0.88030  0.97080  Biso   1.000  C
  H76      1.0000 0.84780  0.86480  0.03400  Biso   1.000  H
  C199     1.0000 0.87370  0.86990  0.88650  Biso   1.000  C
  C200     1.0000 0.84700  0.77310  0.89690  Biso   1.000  C
  H77      1.0000 0.81930  0.79250  0.89350  Biso   1.000  H
  C201     1.0000 0.91260  0.83340  0.89710  Biso   1.000  C
  C202     1.0000 0.82910  0.95290  0.68980  Biso   1.000  C
  C203     1.0000 0.86880  0.89400  0.79790  Biso   1.000  C
  H78      1.0000 0.88930  0.88680  0.74220  Biso   1.000  H
  C204     1.0000 0.77700  0.92740  0.04720  Biso   1.000  C
  C205     1.0000 0.95960  0.84710  0.89530  Biso   1.000  C
  C206     1.0000 0.97640  0.89520  0.89510  Biso   1.000  C
  H79      1.0000 0.95630  0.92160  0.89490  Biso   1.000  H
  C207     1.0000 0.80390  0.93720  0.86830  Biso   1.000  C
  H80      1.0000 0.77900  0.95940  0.86060  Biso   1.000  H
  C208     1.0000 0.80850  0.91450  0.95760  Biso   1.000  C
  O95      1.0000 0.74870  0.95640  0.03820  Biso   1.000  O
  O96      1.0000 0.84410  0.93080  0.60430  Biso   1.000  O
  Gd1      1.0000 0.82260  0.50000  0.50000  Biso   1.000  Gd
  Gd2      1.0000 0.32260  0.00000  0.00000  Biso   1.000  Gd
  Gd3      1.0000 0.17740  0.00000  0.50000  Biso   1.000  Gd
  Gd4      1.0000 0.67740  0.50000  0.00000  Biso   1.000  Gd
  Gd5      1.0000 0.17740  0.50000  0.50000  Biso   1.000  Gd
  Gd6      1.0000 0.67740  0.00000  0.00000  Biso   1.000  Gd
  Gd7      1.0000 0.82260  0.00000  0.50000  Biso   1.000  Gd
  Gd8      1.0000 0.32260  0.50000  0.00000  Biso   1.000  Gd
  Zn1      1.0000 0.50000  0.25000  0.42900  Biso   1.000  Zn
  Zn2      1.0000 0.50000  0.25000  0.36590  Biso   1.000  Zn
  Zn3      1.0000 0.00000  0.75000  0.92900  Biso   1.000  Zn
  Zn4      1.0000 0.00000  0.75000  0.86590  Biso   1.000  Zn
  Zn5      1.0000 0.50000  0.75000  0.57100  Biso   1.000  Zn
  Zn6      1.0000 0.50000  0.75000  0.63410  Biso   1.000  Zn
  Zn7      1.0000 0.00000  0.25000  0.07100  Biso   1.000  Zn
  Zn8      1.0000 0.00000  0.25000  0.13410  Biso   1.000  Zn
  Na1      1.0000 0.75000  0.45819  0.75000  Biso   1.000  Na
  Na2      1.0000 0.25000  0.04181  0.75000  Biso   1.000  Na
  Na3      1.0000 0.25000  0.95819  0.25000  Biso   1.000  Na
  Na4      1.0000 0.75000  0.54181  0.25000  Biso   1.000  Na
  Na5      1.0000 0.25000  0.54181  0.25000  Biso   1.000  Na
  Na6      1.0000 0.75000  0.95819  0.25000  Biso   1.000  Na
  Na7      1.0000 0.75000  0.04181  0.75000  Biso   1.000  Na
  Na8      1.0000 0.25000  0.45819  0.75000  Biso   1.000  Na
  N1       1.0000 0.50000  0.31910  0.40080  Biso   1.000  N
  N2       1.0000 0.00000  0.81910  0.90080  Biso   1.000  N
  N3       1.0000 0.50000  0.18090  0.40080  Biso   1.000  N
  N4       1.0000 0.00000  0.68090  0.90080  Biso   1.000  N
  N5       1.0000 0.50000  0.81910  0.59920  Biso   1.000  N
  N6       1.0000 0.00000  0.31910  0.09920  Biso   1.000  N
  N7       1.0000 0.50000  0.68090  0.59920  Biso   1.000  N
  N8       1.0000 0.00000  0.18090  0.09920  Biso   1.000  N
  N9       1.0000 0.57380  0.25000  0.40600  Biso   1.000  N
  N10      1.0000 0.07380  0.75000  0.90600  Biso   1.000  N
  N11      1.0000 0.42620  0.25000  0.40600  Biso   1.000  N
  N12      1.0000 0.92620  0.75000  0.90600  Biso   1.000  N
  N13      1.0000 0.42620  0.75000  0.59400  Biso   1.000  N
  N14      1.0000 0.92620  0.25000  0.09400  Biso   1.000  N
  N15      1.0000 0.57380  0.75000  0.59400  Biso   1.000  N
  N16      1.0000 0.07380  0.25000  0.09400  Biso   1.000  N
