data_image0
_cell_length_a       27.1337
_cell_length_b       29.2422
_cell_length_c       13.0757
_cell_angle_alpha    90
_cell_angle_beta     90
_cell_angle_gamma    90

_symmetry_space_group_name_H-M    "P 1"
_symmetry_int_tables_number       1

loop_
  _symmetry_equiv_pos_as_xyz
  'x, y, z'

loop_
  _atom_site_label
  _atom_site_occupancy
  _atom_site_fract_x
  _atom_site_fract_y
  _atom_site_fract_z
  _atom_site_thermal_displace_type
  _atom_site_B_iso_or_equiv
  _atom_site_type_symbol
  O1       1.0000 0.69530  0.48960  0.18140  Biso   1.000  O
  O2       1.0000 0.76590  0.44780  0.52480  Biso   1.000  O
  O3       1.0000 0.64860  0.43630  0.10880  Biso   1.000  O
  O4       1.0000 0.71380  0.41430  0.63010  Biso   1.000  O
  C1       1.0000 0.58940  0.33210  0.39670  Biso   1.000  C
  C2       1.0000 0.65880  0.38010  0.46650  Biso   1.000  C
  H1       1.0000 0.65580  0.36350  0.52860  Biso   1.000  H
  C3       1.0000 0.63130  0.39390  0.29880  Biso   1.000  C
  H2       1.0000 0.60890  0.38770  0.24460  Biso   1.000  H
  C4       1.0000 0.66780  0.42850  0.28680  Biso   1.000  C
  C5       1.0000 0.62830  0.36980  0.38730  Biso   1.000  C
  C6       1.0000 0.60460  0.28740  0.39890  Biso   1.000  C
  C7       1.0000 0.69710  0.43620  0.36580  Biso   1.000  C
  H3       1.0000 0.72200  0.45860  0.35630  Biso   1.000  H
  C8       1.0000 0.65660  0.27280  0.39420  Biso   1.000  C
  H4       1.0000 0.68470  0.29220  0.39170  Biso   1.000  H
  C9       1.0000 0.54000  0.34720  0.39800  Biso   1.000  C
  C10      1.0000 0.69570  0.41570  0.45860  Biso   1.000  C
  C11      1.0000 0.52480  0.39290  0.40450  Biso   1.000  C
  H5       1.0000 0.54560  0.41900  0.40820  Biso   1.000  H
  C12      1.0000 0.66950  0.45470  0.18810  Biso   1.000  C
  C13      1.0000 0.72730  0.42710  0.54240  Biso   1.000  C
  O5       1.0000 0.19530  0.98960  0.68140  Biso   1.000  O
  O6       1.0000 0.26590  0.94780  0.02480  Biso   1.000  O
  O7       1.0000 0.14860  0.93630  0.60880  Biso   1.000  O
  O8       1.0000 0.21380  0.91430  0.13010  Biso   1.000  O
  C14      1.0000 0.08940  0.83210  0.89670  Biso   1.000  C
  C15      1.0000 0.15880  0.88010  0.96650  Biso   1.000  C
  H6       1.0000 0.15580  0.86350  0.02860  Biso   1.000  H
  C16      1.0000 0.13130  0.89390  0.79880  Biso   1.000  C
  H7       1.0000 0.10890  0.88770  0.74460  Biso   1.000  H
  C17      1.0000 0.16780  0.92850  0.78680  Biso   1.000  C
  C18      1.0000 0.12830  0.86980  0.88730  Biso   1.000  C
  C19      1.0000 0.10460  0.78740  0.89890  Biso   1.000  C
  C20      1.0000 0.19710  0.93620  0.86580  Biso   1.000  C
  H8       1.0000 0.22200  0.95860  0.85630  Biso   1.000  H
  C21      1.0000 0.15660  0.77280  0.89420  Biso   1.000  C
  H9       1.0000 0.18470  0.79220  0.89170  Biso   1.000  H
  C22      1.0000 0.04000  0.84720  0.89800  Biso   1.000  C
  C23      1.0000 0.19570  0.91570  0.95860  Biso   1.000  C
  C24      1.0000 0.02480  0.89290  0.90450  Biso   1.000  C
  H10      1.0000 0.04560  0.91900  0.90820  Biso   1.000  H
  C25      1.0000 0.16950  0.95470  0.68810  Biso   1.000  C
  C26      1.0000 0.22730  0.92710  0.04240  Biso   1.000  C
  O9       1.0000 0.30470  0.01040  0.18140  Biso   1.000  O
  O10      1.0000 0.23410  0.05220  0.52480  Biso   1.000  O
  O11      1.0000 0.35140  0.06370  0.10880  Biso   1.000  O
  O12      1.0000 0.28620  0.08570  0.63010  Biso   1.000  O
  C27      1.0000 0.41060  0.16790  0.39670  Biso   1.000  C
  C28      1.0000 0.34120  0.11990  0.46650  Biso   1.000  C
  H11      1.0000 0.34420  0.13650  0.52860  Biso   1.000  H
  C29      1.0000 0.36870  0.10610  0.29880  Biso   1.000  C
  H12      1.0000 0.39110  0.11230  0.24460  Biso   1.000  H
  C30      1.0000 0.33220  0.07150  0.28680  Biso   1.000  C
  C31      1.0000 0.37170  0.13020  0.38730  Biso   1.000  C
  C32      1.0000 0.39540  0.21260  0.39890  Biso   1.000  C
  C33      1.0000 0.30290  0.06380  0.36580  Biso   1.000  C
  H13      1.0000 0.27800  0.04140  0.35630  Biso   1.000  H
  C34      1.0000 0.34340  0.22720  0.39420  Biso   1.000  C
  H14      1.0000 0.31530  0.20780  0.39170  Biso   1.000  H
  C35      1.0000 0.46000  0.15280  0.39800  Biso   1.000  C
  C36      1.0000 0.30430  0.08430  0.45860  Biso   1.000  C
  C37      1.0000 0.47520  0.10710  0.40450  Biso   1.000  C
  H15      1.0000 0.45440  0.08100  0.40820  Biso   1.000  H
  C38      1.0000 0.33050  0.04530  0.18810  Biso   1.000  C
  C39      1.0000 0.27270  0.07290  0.54240  Biso   1.000  C
  O13      1.0000 0.80470  0.51040  0.68140  Biso   1.000  O
  O14      1.0000 0.73410  0.55220  0.02480  Biso   1.000  O
  O15      1.0000 0.85140  0.56370  0.60880  Biso   1.000  O
  O16      1.0000 0.78620  0.58570  0.13010  Biso   1.000  O
  C40      1.0000 0.91060  0.66790  0.89670  Biso   1.000  C
  C41      1.0000 0.84120  0.61990  0.96650  Biso   1.000  C
  H16      1.0000 0.84420  0.63650  0.02860  Biso   1.000  H
  C42      1.0000 0.86870  0.60610  0.79880  Biso   1.000  C
  H17      1.0000 0.89110  0.61230  0.74460  Biso   1.000  H
  C43      1.0000 0.83220  0.57150  0.78680  Biso   1.000  C
  C44      1.0000 0.87170  0.63020  0.88730  Biso   1.000  C
  C45      1.0000 0.89540  0.71260  0.89890  Biso   1.000  C
  C46      1.0000 0.80290  0.56380  0.86580  Biso   1.000  C
  H18      1.0000 0.77800  0.54140  0.85630  Biso   1.000  H
  C47      1.0000 0.84340  0.72720  0.89420  Biso   1.000  C
  H19      1.0000 0.81530  0.70780  0.89170  Biso   1.000  H
  C48      1.0000 0.96000  0.65280  0.89800  Biso   1.000  C
  C49      1.0000 0.80430  0.58430  0.95860  Biso   1.000  C
  C50      1.0000 0.97520  0.60710  0.90450  Biso   1.000  C
  H20      1.0000 0.95440  0.58100  0.90820  Biso   1.000  H
  C51      1.0000 0.83050  0.54530  0.68810  Biso   1.000  C
  C52      1.0000 0.77270  0.57290  0.04240  Biso   1.000  C
  O17      1.0000 0.30470  0.98960  0.81860  Biso   1.000  O
  O18      1.0000 0.23410  0.94780  0.47520  Biso   1.000  O
  O19      1.0000 0.35140  0.93630  0.89120  Biso   1.000  O
  O20      1.0000 0.28620  0.91430  0.36990  Biso   1.000  O
  C53      1.0000 0.41060  0.83210  0.60330  Biso   1.000  C
  C54      1.0000 0.34120  0.88010  0.53350  Biso   1.000  C
  H21      1.0000 0.34420  0.86350  0.47140  Biso   1.000  H
  C55      1.0000 0.36870  0.89390  0.70120  Biso   1.000  C
  H22      1.0000 0.39110  0.88770  0.75540  Biso   1.000  H
  C56      1.0000 0.33220  0.92850  0.71320  Biso   1.000  C
  C57      1.0000 0.37170  0.86980  0.61270  Biso   1.000  C
  C58      1.0000 0.39540  0.78740  0.60110  Biso   1.000  C
  C59      1.0000 0.30290  0.93620  0.63420  Biso   1.000  C
  H23      1.0000 0.27800  0.95860  0.64370  Biso   1.000  H
  C60      1.0000 0.34340  0.77280  0.60580  Biso   1.000  C
  H24      1.0000 0.31530  0.79220  0.60830  Biso   1.000  H
  C61      1.0000 0.46000  0.84720  0.60200  Biso   1.000  C
  C62      1.0000 0.30430  0.91570  0.54140  Biso   1.000  C
  C63      1.0000 0.47520  0.89290  0.59550  Biso   1.000  C
  H25      1.0000 0.45440  0.91900  0.59180  Biso   1.000  H
  C64      1.0000 0.33050  0.95470  0.81190  Biso   1.000  C
  C65      1.0000 0.27270  0.92710  0.45760  Biso   1.000  C
  O21      1.0000 0.80470  0.48960  0.31860  Biso   1.000  O
  O22      1.0000 0.73410  0.44780  0.97520  Biso   1.000  O
  O23      1.0000 0.85140  0.43630  0.39120  Biso   1.000  O
  O24      1.0000 0.78620  0.41430  0.86990  Biso   1.000  O
  C66      1.0000 0.91060  0.33210  0.10330  Biso   1.000  C
  C67      1.0000 0.84120  0.38010  0.03350  Biso   1.000  C
  H26      1.0000 0.84420  0.36350  0.97140  Biso   1.000  H
  C68      1.0000 0.86870  0.39390  0.20120  Biso   1.000  C
  H27      1.0000 0.89110  0.38770  0.25540  Biso   1.000  H
  C69      1.0000 0.83220  0.42850  0.21320  Biso   1.000  C
  C70      1.0000 0.87170  0.36980  0.11270  Biso   1.000  C
  C71      1.0000 0.89540  0.28740  0.10110  Biso   1.000  C
  C72      1.0000 0.80290  0.43620  0.13420  Biso   1.000  C
  H28      1.0000 0.77800  0.45860  0.14370  Biso   1.000  H
  C73      1.0000 0.84340  0.27280  0.10580  Biso   1.000  C
  H29      1.0000 0.81530  0.29220  0.10830  Biso   1.000  H
  C74      1.0000 0.96000  0.34720  0.10200  Biso   1.000  C
  C75      1.0000 0.80430  0.41570  0.04140  Biso   1.000  C
  C76      1.0000 0.97520  0.39290  0.09550  Biso   1.000  C
  H30      1.0000 0.95440  0.41900  0.09180  Biso   1.000  H
  C77      1.0000 0.83050  0.45470  0.31190  Biso   1.000  C
  C78      1.0000 0.77270  0.42710  0.95760  Biso   1.000  C
  O25      1.0000 0.69530  0.51040  0.81860  Biso   1.000  O
  O26      1.0000 0.76590  0.55220  0.47520  Biso   1.000  O
  O27      1.0000 0.64860  0.56370  0.89120  Biso   1.000  O
  O28      1.0000 0.71380  0.58570  0.36990  Biso   1.000  O
  C79      1.0000 0.58940  0.66790  0.60330  Biso   1.000  C
  C80      1.0000 0.65880  0.61990  0.53350  Biso   1.000  C
  H31      1.0000 0.65580  0.63650  0.47140  Biso   1.000  H
  C81      1.0000 0.63130  0.60610  0.70120  Biso   1.000  C
  H32      1.0000 0.60890  0.61230  0.75540  Biso   1.000  H
  C82      1.0000 0.66780  0.57150  0.71320  Biso   1.000  C
  C83      1.0000 0.62830  0.63020  0.61270  Biso   1.000  C
  C84      1.0000 0.60460  0.71260  0.60110  Biso   1.000  C
  C85      1.0000 0.69710  0.56380  0.63420  Biso   1.000  C
  H33      1.0000 0.72200  0.54140  0.64370  Biso   1.000  H
  C86      1.0000 0.65660  0.72720  0.60580  Biso   1.000  C
  H34      1.0000 0.68470  0.70780  0.60830  Biso   1.000  H
  C87      1.0000 0.54000  0.65280  0.60200  Biso   1.000  C
  C88      1.0000 0.69570  0.58430  0.54140  Biso   1.000  C
  C89      1.0000 0.52480  0.60710  0.59550  Biso   1.000  C
  H35      1.0000 0.54560  0.58100  0.59180  Biso   1.000  H
  C90      1.0000 0.66950  0.54530  0.81190  Biso   1.000  C
  C91      1.0000 0.72730  0.57290  0.45760  Biso   1.000  C
  O29      1.0000 0.19530  0.01040  0.31860  Biso   1.000  O
  O30      1.0000 0.26590  0.05220  0.97520  Biso   1.000  O
  O31      1.0000 0.14860  0.06370  0.39120  Biso   1.000  O
  O32      1.0000 0.21380  0.08570  0.86990  Biso   1.000  O
  C92      1.0000 0.08940  0.16790  0.10330  Biso   1.000  C
  C93      1.0000 0.15880  0.11990  0.03350  Biso   1.000  C
  H36      1.0000 0.15580  0.13650  0.97140  Biso   1.000  H
  C94      1.0000 0.13130  0.10610  0.20120  Biso   1.000  C
  H37      1.0000 0.10890  0.11230  0.25540  Biso   1.000  H
  C95      1.0000 0.16780  0.07150  0.21320  Biso   1.000  C
  C96      1.0000 0.12830  0.13020  0.11270  Biso   1.000  C
  C97      1.0000 0.10460  0.21260  0.10110  Biso   1.000  C
  C98      1.0000 0.19710  0.06380  0.13420  Biso   1.000  C
  H38      1.0000 0.22200  0.04140  0.14370  Biso   1.000  H
  C99      1.0000 0.15660  0.22720  0.10580  Biso   1.000  C
  H39      1.0000 0.18470  0.20780  0.10830  Biso   1.000  H
  C100     1.0000 0.04000  0.15280  0.10200  Biso   1.000  C
  C101     1.0000 0.19570  0.08430  0.04140  Biso   1.000  C
  C102     1.0000 0.02480  0.10710  0.09550  Biso   1.000  C
  H40      1.0000 0.04560  0.08100  0.09180  Biso   1.000  H
  C103     1.0000 0.16950  0.04530  0.31190  Biso   1.000  C
  C104     1.0000 0.22730  0.07290  0.95760  Biso   1.000  C
  O33      1.0000 0.30470  0.51040  0.81860  Biso   1.000  O
  O34      1.0000 0.23410  0.55220  0.47520  Biso   1.000  O
  O35      1.0000 0.35140  0.56370  0.89120  Biso   1.000  O
  O36      1.0000 0.28620  0.58570  0.36990  Biso   1.000  O
  C105     1.0000 0.41060  0.66790  0.60330  Biso   1.000  C
  C106     1.0000 0.34120  0.61990  0.53350  Biso   1.000  C
  H41      1.0000 0.34420  0.63650  0.47140  Biso   1.000  H
  C107     1.0000 0.36870  0.60610  0.70120  Biso   1.000  C
  H42      1.0000 0.39110  0.61230  0.75540  Biso   1.000  H
  C108     1.0000 0.33220  0.57150  0.71320  Biso   1.000  C
  C109     1.0000 0.37170  0.63020  0.61270  Biso   1.000  C
  C110     1.0000 0.39540  0.71260  0.60110  Biso   1.000  C
  C111     1.0000 0.30290  0.56380  0.63420  Biso   1.000  C
  H43      1.0000 0.27800  0.54140  0.64370  Biso   1.000  H
  C112     1.0000 0.34340  0.72720  0.60580  Biso   1.000  C
  H44      1.0000 0.31530  0.70780  0.60830  Biso   1.000  H
  C113     1.0000 0.46000  0.65280  0.60200  Biso   1.000  C
  C114     1.0000 0.30430  0.58430  0.54140  Biso   1.000  C
  C115     1.0000 0.47520  0.60710  0.59550  Biso   1.000  C
  H45      1.0000 0.45440  0.58100  0.59180  Biso   1.000  H
  C116     1.0000 0.33050  0.54530  0.81190  Biso   1.000  C
  C117     1.0000 0.27270  0.57290  0.45760  Biso   1.000  C
  O37      1.0000 0.80470  0.01040  0.31860  Biso   1.000  O
  O38      1.0000 0.73410  0.05220  0.97520  Biso   1.000  O
  O39      1.0000 0.85140  0.06370  0.39120  Biso   1.000  O
  O40      1.0000 0.78620  0.08570  0.86990  Biso   1.000  O
  C118     1.0000 0.91060  0.16790  0.10330  Biso   1.000  C
  C119     1.0000 0.84120  0.11990  0.03350  Biso   1.000  C
  H46      1.0000 0.84420  0.13650  0.97140  Biso   1.000  H
  C120     1.0000 0.86870  0.10610  0.20120  Biso   1.000  C
  H47      1.0000 0.89110  0.11230  0.25540  Biso   1.000  H
  C121     1.0000 0.83220  0.07150  0.21320  Biso   1.000  C
  C122     1.0000 0.87170  0.13020  0.11270  Biso   1.000  C
  C123     1.0000 0.89540  0.21260  0.10110  Biso   1.000  C
  C124     1.0000 0.80290  0.06380  0.13420  Biso   1.000  C
  H48      1.0000 0.77800  0.04140  0.14370  Biso   1.000  H
  C125     1.0000 0.84340  0.22720  0.10580  Biso   1.000  C
  H49      1.0000 0.81530  0.20780  0.10830  Biso   1.000  H
  C126     1.0000 0.96000  0.15280  0.10200  Biso   1.000  C
  C127     1.0000 0.80430  0.08430  0.04140  Biso   1.000  C
  C128     1.0000 0.97520  0.10710  0.09550  Biso   1.000  C
  H50      1.0000 0.95440  0.08100  0.09180  Biso   1.000  H
  C129     1.0000 0.83050  0.04530  0.31190  Biso   1.000  C
  C130     1.0000 0.77270  0.07290  0.95760  Biso   1.000  C
  O41      1.0000 0.69530  0.98960  0.81860  Biso   1.000  O
  O42      1.0000 0.76590  0.94780  0.47520  Biso   1.000  O
  O43      1.0000 0.64860  0.93630  0.89120  Biso   1.000  O
  O44      1.0000 0.71380  0.91430  0.36990  Biso   1.000  O
  C131     1.0000 0.58940  0.83210  0.60330  Biso   1.000  C
  C132     1.0000 0.65880  0.88010  0.53350  Biso   1.000  C
  H51      1.0000 0.65580  0.86350  0.47140  Biso   1.000  H
  C133     1.0000 0.63130  0.89390  0.70120  Biso   1.000  C
  H52      1.0000 0.60890  0.88770  0.75540  Biso   1.000  H
  C134     1.0000 0.66780  0.92850  0.71320  Biso   1.000  C
  C135     1.0000 0.62830  0.86980  0.61270  Biso   1.000  C
  C136     1.0000 0.60460  0.78740  0.60110  Biso   1.000  C
  C137     1.0000 0.69710  0.93620  0.63420  Biso   1.000  C
  H53      1.0000 0.72200  0.95860  0.64370  Biso   1.000  H
  C138     1.0000 0.65660  0.77280  0.60580  Biso   1.000  C
  H54      1.0000 0.68470  0.79220  0.60830  Biso   1.000  H
  C139     1.0000 0.54000  0.84720  0.60200  Biso   1.000  C
  C140     1.0000 0.69570  0.91570  0.54140  Biso   1.000  C
  C141     1.0000 0.52480  0.89290  0.59550  Biso   1.000  C
  H55      1.0000 0.54560  0.91900  0.59180  Biso   1.000  H
  C142     1.0000 0.66950  0.95470  0.81190  Biso   1.000  C
  C143     1.0000 0.72730  0.92710  0.45760  Biso   1.000  C
  O45      1.0000 0.19530  0.48960  0.31860  Biso   1.000  O
  O46      1.0000 0.26590  0.44780  0.97520  Biso   1.000  O
  O47      1.0000 0.14860  0.43630  0.39120  Biso   1.000  O
  O48      1.0000 0.21380  0.41430  0.86990  Biso   1.000  O
  C144     1.0000 0.08940  0.33210  0.10330  Biso   1.000  C
  C145     1.0000 0.15880  0.38010  0.03350  Biso   1.000  C
  H56      1.0000 0.15580  0.36350  0.97140  Biso   1.000  H
  C146     1.0000 0.13130  0.39390  0.20120  Biso   1.000  C
  H57      1.0000 0.10890  0.38770  0.25540  Biso   1.000  H
  C147     1.0000 0.16780  0.42850  0.21320  Biso   1.000  C
  C148     1.0000 0.12830  0.36980  0.11270  Biso   1.000  C
  C149     1.0000 0.10460  0.28740  0.10110  Biso   1.000  C
  C150     1.0000 0.19710  0.43620  0.13420  Biso   1.000  C
  H58      1.0000 0.22200  0.45860  0.14370  Biso   1.000  H
  C151     1.0000 0.15660  0.27280  0.10580  Biso   1.000  C
  H59      1.0000 0.18470  0.29220  0.10830  Biso   1.000  H
  C152     1.0000 0.04000  0.34720  0.10200  Biso   1.000  C
  C153     1.0000 0.19570  0.41570  0.04140  Biso   1.000  C
  C154     1.0000 0.02480  0.39290  0.09550  Biso   1.000  C
  H60      1.0000 0.04560  0.41900  0.09180  Biso   1.000  H
  C155     1.0000 0.16950  0.45470  0.31190  Biso   1.000  C
  C156     1.0000 0.22730  0.42710  0.95760  Biso   1.000  C
  O49      1.0000 0.69530  0.01040  0.18140  Biso   1.000  O
  O50      1.0000 0.76590  0.05220  0.52480  Biso   1.000  O
  O51      1.0000 0.64860  0.06370  0.10880  Biso   1.000  O
  O52      1.0000 0.71380  0.08570  0.63010  Biso   1.000  O
  C157     1.0000 0.58940  0.16790  0.39670  Biso   1.000  C
  C158     1.0000 0.65880  0.11990  0.46650  Biso   1.000  C
  H61      1.0000 0.65580  0.13650  0.52860  Biso   1.000  H
  C159     1.0000 0.63130  0.10610  0.29880  Biso   1.000  C
  H62      1.0000 0.60890  0.11230  0.24460  Biso   1.000  H
  C160     1.0000 0.66780  0.07150  0.28680  Biso   1.000  C
  C161     1.0000 0.62830  0.13020  0.38730  Biso   1.000  C
  C162     1.0000 0.60460  0.21260  0.39890  Biso   1.000  C
  C163     1.0000 0.69710  0.06380  0.36580  Biso   1.000  C
  H63      1.0000 0.72200  0.04140  0.35630  Biso   1.000  H
  C164     1.0000 0.65660  0.22720  0.39420  Biso   1.000  C
  H64      1.0000 0.68470  0.20780  0.39170  Biso   1.000  H
  C165     1.0000 0.54000  0.15280  0.39800  Biso   1.000  C
  C166     1.0000 0.69570  0.08430  0.45860  Biso   1.000  C
  C167     1.0000 0.52480  0.10710  0.40450  Biso   1.000  C
  H65      1.0000 0.54560  0.08100  0.40820  Biso   1.000  H
  C168     1.0000 0.66950  0.04530  0.18810  Biso   1.000  C
  C169     1.0000 0.72730  0.07290  0.54240  Biso   1.000  C
  O53      1.0000 0.19530  0.51040  0.68140  Biso   1.000  O
  O54      1.0000 0.26590  0.55220  0.02480  Biso   1.000  O
  O55      1.0000 0.14860  0.56370  0.60880  Biso   1.000  O
  O56      1.0000 0.21380  0.58570  0.13010  Biso   1.000  O
  C170     1.0000 0.08940  0.66790  0.89670  Biso   1.000  C
  C171     1.0000 0.15880  0.61990  0.96650  Biso   1.000  C
  H66      1.0000 0.15580  0.63650  0.02860  Biso   1.000  H
  C172     1.0000 0.13130  0.60610  0.79880  Biso   1.000  C
  H67      1.0000 0.10890  0.61230  0.74460  Biso   1.000  H
  C173     1.0000 0.16780  0.57150  0.78680  Biso   1.000  C
  C174     1.0000 0.12830  0.63020  0.88730  Biso   1.000  C
  C175     1.0000 0.10460  0.71260  0.89890  Biso   1.000  C
  C176     1.0000 0.19710  0.56380  0.86580  Biso   1.000  C
  H68      1.0000 0.22200  0.54140  0.85630  Biso   1.000  H
  C177     1.0000 0.15660  0.72720  0.89420  Biso   1.000  C
  H69      1.0000 0.18470  0.70780  0.89170  Biso   1.000  H
  C178     1.0000 0.04000  0.65280  0.89800  Biso   1.000  C
  C179     1.0000 0.19570  0.58430  0.95860  Biso   1.000  C
  C180     1.0000 0.02480  0.60710  0.90450  Biso   1.000  C
  H70      1.0000 0.04560  0.58100  0.90820  Biso   1.000  H
  C181     1.0000 0.16950  0.54530  0.68810  Biso   1.000  C
  C182     1.0000 0.22730  0.57290  0.04240  Biso   1.000  C
  O57      1.0000 0.30470  0.48960  0.18140  Biso   1.000  O
  O58      1.0000 0.23410  0.44780  0.52480  Biso   1.000  O
  O59      1.0000 0.35140  0.43630  0.10880  Biso   1.000  O
  O60      1.0000 0.28620  0.41430  0.63010  Biso   1.000  O
  C183     1.0000 0.41060  0.33210  0.39670  Biso   1.000  C
  C184     1.0000 0.34120  0.38010  0.46650  Biso   1.000  C
  H71      1.0000 0.34420  0.36350  0.52860  Biso   1.000  H
  C185     1.0000 0.36870  0.39390  0.29880  Biso   1.000  C
  H72      1.0000 0.39110  0.38770  0.24460  Biso   1.000  H
  C186     1.0000 0.33220  0.42850  0.28680  Biso   1.000  C
  C187     1.0000 0.37170  0.36980  0.38730  Biso   1.000  C
  C188     1.0000 0.39540  0.28740  0.39890  Biso   1.000  C
  C189     1.0000 0.30290  0.43620  0.36580  Biso   1.000  C
  H73      1.0000 0.27800  0.45860  0.35630  Biso   1.000  H
  C190     1.0000 0.34340  0.27280  0.39420  Biso   1.000  C
  H74      1.0000 0.31530  0.29220  0.39170  Biso   1.000  H
  C191     1.0000 0.46000  0.34720  0.39800  Biso   1.000  C
  C192     1.0000 0.30430  0.41570  0.45860  Biso   1.000  C
  C193     1.0000 0.47520  0.39290  0.40450  Biso   1.000  C
  H75      1.0000 0.45440  0.41900  0.40820  Biso   1.000  H
  C194     1.0000 0.33050  0.45470  0.18810  Biso   1.000  C
  C195     1.0000 0.27270  0.42710  0.54240  Biso   1.000  C
  O61      1.0000 0.80470  0.98960  0.68140  Biso   1.000  O
  O62      1.0000 0.73410  0.94780  0.02480  Biso   1.000  O
  O63      1.0000 0.85140  0.93630  0.60880  Biso   1.000  O
  O64      1.0000 0.78620  0.91430  0.13010  Biso   1.000  O
  C196     1.0000 0.91060  0.83210  0.89670  Biso   1.000  C
  C197     1.0000 0.84120  0.88010  0.96650  Biso   1.000  C
  H76      1.0000 0.84420  0.86350  0.02860  Biso   1.000  H
  C198     1.0000 0.86870  0.89390  0.79880  Biso   1.000  C
  H77      1.0000 0.89110  0.88770  0.74460  Biso   1.000  H
  C199     1.0000 0.83220  0.92850  0.78680  Biso   1.000  C
  C200     1.0000 0.87170  0.86980  0.88730  Biso   1.000  C
  C201     1.0000 0.89540  0.78740  0.89890  Biso   1.000  C
  C202     1.0000 0.80290  0.93620  0.86580  Biso   1.000  C
  H78      1.0000 0.77800  0.95860  0.85630  Biso   1.000  H
  C203     1.0000 0.84340  0.77280  0.89420  Biso   1.000  C
  H79      1.0000 0.81530  0.79220  0.89170  Biso   1.000  H
  C204     1.0000 0.96000  0.84720  0.89800  Biso   1.000  C
  C205     1.0000 0.80430  0.91570  0.95860  Biso   1.000  C
  C206     1.0000 0.97520  0.89290  0.90450  Biso   1.000  C
  H80      1.0000 0.95440  0.91900  0.90820  Biso   1.000  H
  C207     1.0000 0.83050  0.95470  0.68810  Biso   1.000  C
  C208     1.0000 0.77270  0.92710  0.04240  Biso   1.000  C
  Dy1      1.0000 0.82547  0.50000  0.50000  Biso   1.000  Dy
  Dy2      1.0000 0.32547  0.00000  0.00000  Biso   1.000  Dy
  Dy3      1.0000 0.17453  0.00000  0.50000  Biso   1.000  Dy
  Dy4      1.0000 0.67453  0.50000  0.00000  Biso   1.000  Dy
  Dy5      1.0000 0.17453  0.50000  0.50000  Biso   1.000  Dy
  Dy6      1.0000 0.67453  0.00000  0.00000  Biso   1.000  Dy
  Dy7      1.0000 0.82547  0.00000  0.50000  Biso   1.000  Dy
  Dy8      1.0000 0.32547  0.50000  0.00000  Biso   1.000  Dy
  Zn1      1.0000 0.50000  0.25000  0.36860  Biso   1.000  Zn
  Zn2      1.0000 0.50000  0.25000  0.42250  Biso   1.000  Zn
  Zn3      1.0000 0.00000  0.75000  0.86860  Biso   1.000  Zn
  Zn4      1.0000 0.00000  0.75000  0.92250  Biso   1.000  Zn
  Zn5      1.0000 0.50000  0.75000  0.63140  Biso   1.000  Zn
  Zn6      1.0000 0.50000  0.75000  0.57750  Biso   1.000  Zn
  Zn7      1.0000 0.00000  0.25000  0.13140  Biso   1.000  Zn
  Zn8      1.0000 0.00000  0.25000  0.07750  Biso   1.000  Zn
  Na1      1.0000 0.75000  0.45799  0.75000  Biso   1.000  Na
  Na2      1.0000 0.25000  0.04201  0.75000  Biso   1.000  Na
  Na3      1.0000 0.25000  0.95799  0.25000  Biso   1.000  Na
  Na4      1.0000 0.75000  0.54201  0.25000  Biso   1.000  Na
  Na5      1.0000 0.25000  0.54201  0.25000  Biso   1.000  Na
  Na6      1.0000 0.75000  0.95799  0.25000  Biso   1.000  Na
  Na7      1.0000 0.75000  0.04201  0.75000  Biso   1.000  Na
  Na8      1.0000 0.25000  0.45799  0.75000  Biso   1.000  Na
  N1       1.0000 0.50000  0.31970  0.39880  Biso   1.000  N
  N2       1.0000 0.00000  0.81970  0.89880  Biso   1.000  N
  N3       1.0000 0.50000  0.18030  0.39880  Biso   1.000  N
  N4       1.0000 0.00000  0.68030  0.89880  Biso   1.000  N
  N5       1.0000 0.50000  0.81970  0.60120  Biso   1.000  N
  N6       1.0000 0.00000  0.31970  0.10120  Biso   1.000  N
  N7       1.0000 0.50000  0.68030  0.60120  Biso   1.000  N
  N8       1.0000 0.00000  0.18030  0.10120  Biso   1.000  N
  N9       1.0000 0.57630  0.25000  0.40180  Biso   1.000  N
  N10      1.0000 0.07630  0.75000  0.90180  Biso   1.000  N
  N11      1.0000 0.42370  0.25000  0.40180  Biso   1.000  N
  N12      1.0000 0.92370  0.75000  0.90180  Biso   1.000  N
  N13      1.0000 0.42370  0.75000  0.59820  Biso   1.000  N
  N14      1.0000 0.92370  0.25000  0.09820  Biso   1.000  N
  N15      1.0000 0.57630  0.75000  0.59820  Biso   1.000  N
  N16      1.0000 0.07630  0.25000  0.09820  Biso   1.000  N
