data_image0
_cell_length_a       27.4347
_cell_length_b       28.9058
_cell_length_c       13.1157
_cell_angle_alpha    90
_cell_angle_beta     90
_cell_angle_gamma    90

_symmetry_space_group_name_H-M    "P 1"
_symmetry_int_tables_number       1

loop_
  _symmetry_equiv_pos_as_xyz
  'x, y, z'

loop_
  _atom_site_label
  _atom_site_occupancy
  _atom_site_fract_x
  _atom_site_fract_y
  _atom_site_fract_z
  _atom_site_thermal_displace_type
  _atom_site_B_iso_or_equiv
  _atom_site_type_symbol
  O1       1.0000 0.69410  0.48910  0.18420  Biso   1.000  O
  O2       1.0000 0.76460  0.44950  0.52530  Biso   1.000  O
  O3       1.0000 0.64440  0.43980  0.11970  Biso   1.000  O
  O4       1.0000 0.71880  0.41490  0.63190  Biso   1.000  O
  C1       1.0000 0.58870  0.33340  0.40780  Biso   1.000  C
  C2       1.0000 0.65860  0.38170  0.47500  Biso   1.000  C
  H1       1.0000 0.65580  0.36620  0.53850  Biso   1.000  H
  C3       1.0000 0.62990  0.39310  0.30630  Biso   1.000  C
  H2       1.0000 0.60770  0.38590  0.25310  Biso   1.000  H
  C4       1.0000 0.66600  0.42800  0.29070  Biso   1.000  C
  C5       1.0000 0.62710  0.37010  0.39540  Biso   1.000  C
  C6       1.0000 0.60460  0.28870  0.41150  Biso   1.000  C
  C7       1.0000 0.69770  0.43940  0.37080  Biso   1.000  C
  H3       1.0000 0.72140  0.46300  0.36250  Biso   1.000  H
  C8       1.0000 0.65550  0.27410  0.40690  Biso   1.000  C
  H4       1.0000 0.68320  0.29370  0.40430  Biso   1.000  H
  C9       1.0000 0.54070  0.34810  0.40970  Biso   1.000  C
  C10      1.0000 0.69380  0.41560  0.46270  Biso   1.000  C
  C11      1.0000 0.52450  0.39550  0.40990  Biso   1.000  C
  H5       1.0000 0.54480  0.42210  0.41000  Biso   1.000  H
  C12      1.0000 0.66910  0.45430  0.19440  Biso   1.000  C
  C13      1.0000 0.72870  0.42820  0.54360  Biso   1.000  C
  O5       1.0000 0.19410  0.98910  0.68420  Biso   1.000  O
  O6       1.0000 0.26460  0.94950  0.02530  Biso   1.000  O
  O7       1.0000 0.14440  0.93980  0.61970  Biso   1.000  O
  O8       1.0000 0.21880  0.91490  0.13190  Biso   1.000  O
  C14      1.0000 0.08870  0.83340  0.90780  Biso   1.000  C
  C15      1.0000 0.15860  0.88170  0.97500  Biso   1.000  C
  H6       1.0000 0.15580  0.86620  0.03850  Biso   1.000  H
  C16      1.0000 0.12990  0.89310  0.80630  Biso   1.000  C
  H7       1.0000 0.10770  0.88590  0.75310  Biso   1.000  H
  C17      1.0000 0.16600  0.92800  0.79070  Biso   1.000  C
  C18      1.0000 0.12710  0.87010  0.89540  Biso   1.000  C
  C19      1.0000 0.10460  0.78870  0.91150  Biso   1.000  C
  C20      1.0000 0.19770  0.93940  0.87080  Biso   1.000  C
  H8       1.0000 0.22140  0.96300  0.86250  Biso   1.000  H
  C21      1.0000 0.15550  0.77410  0.90690  Biso   1.000  C
  H9       1.0000 0.18320  0.79370  0.90430  Biso   1.000  H
  C22      1.0000 0.04070  0.84810  0.90970  Biso   1.000  C
  C23      1.0000 0.19380  0.91560  0.96270  Biso   1.000  C
  C24      1.0000 0.02450  0.89550  0.90990  Biso   1.000  C
  H10      1.0000 0.04480  0.92210  0.91000  Biso   1.000  H
  C25      1.0000 0.16910  0.95430  0.69440  Biso   1.000  C
  C26      1.0000 0.22870  0.92820  0.04360  Biso   1.000  C
  O9       1.0000 0.30590  0.01090  0.18420  Biso   1.000  O
  O10      1.0000 0.23540  0.05050  0.52530  Biso   1.000  O
  O11      1.0000 0.35560  0.06020  0.11970  Biso   1.000  O
  O12      1.0000 0.28120  0.08510  0.63190  Biso   1.000  O
  C27      1.0000 0.41130  0.16660  0.40780  Biso   1.000  C
  C28      1.0000 0.34140  0.11830  0.47500  Biso   1.000  C
  H11      1.0000 0.34420  0.13380  0.53850  Biso   1.000  H
  C29      1.0000 0.37010  0.10690  0.30630  Biso   1.000  C
  H12      1.0000 0.39230  0.11410  0.25310  Biso   1.000  H
  C30      1.0000 0.33400  0.07200  0.29070  Biso   1.000  C
  C31      1.0000 0.37290  0.12990  0.39540  Biso   1.000  C
  C32      1.0000 0.39540  0.21130  0.41150  Biso   1.000  C
  C33      1.0000 0.30230  0.06060  0.37080  Biso   1.000  C
  H13      1.0000 0.27860  0.03700  0.36250  Biso   1.000  H
  C34      1.0000 0.34450  0.22590  0.40690  Biso   1.000  C
  H14      1.0000 0.31680  0.20630  0.40430  Biso   1.000  H
  C35      1.0000 0.45930  0.15190  0.40970  Biso   1.000  C
  C36      1.0000 0.30620  0.08440  0.46270  Biso   1.000  C
  C37      1.0000 0.47550  0.10450  0.40990  Biso   1.000  C
  H15      1.0000 0.45520  0.07790  0.41000  Biso   1.000  H
  C38      1.0000 0.33090  0.04570  0.19440  Biso   1.000  C
  C39      1.0000 0.27130  0.07180  0.54360  Biso   1.000  C
  O13      1.0000 0.80590  0.51090  0.68420  Biso   1.000  O
  O14      1.0000 0.73540  0.55050  0.02530  Biso   1.000  O
  O15      1.0000 0.85560  0.56020  0.61970  Biso   1.000  O
  O16      1.0000 0.78120  0.58510  0.13190  Biso   1.000  O
  C40      1.0000 0.91130  0.66660  0.90780  Biso   1.000  C
  C41      1.0000 0.84140  0.61830  0.97500  Biso   1.000  C
  H16      1.0000 0.84420  0.63380  0.03850  Biso   1.000  H
  C42      1.0000 0.87010  0.60690  0.80630  Biso   1.000  C
  H17      1.0000 0.89230  0.61410  0.75310  Biso   1.000  H
  C43      1.0000 0.83400  0.57200  0.79070  Biso   1.000  C
  C44      1.0000 0.87290  0.62990  0.89540  Biso   1.000  C
  C45      1.0000 0.89540  0.71130  0.91150  Biso   1.000  C
  C46      1.0000 0.80230  0.56060  0.87080  Biso   1.000  C
  H18      1.0000 0.77860  0.53700  0.86250  Biso   1.000  H
  C47      1.0000 0.84450  0.72590  0.90690  Biso   1.000  C
  H19      1.0000 0.81680  0.70630  0.90430  Biso   1.000  H
  C48      1.0000 0.95930  0.65190  0.90970  Biso   1.000  C
  C49      1.0000 0.80620  0.58440  0.96270  Biso   1.000  C
  C50      1.0000 0.97550  0.60450  0.90990  Biso   1.000  C
  H20      1.0000 0.95520  0.57790  0.91000  Biso   1.000  H
  C51      1.0000 0.83090  0.54570  0.69440  Biso   1.000  C
  C52      1.0000 0.77130  0.57180  0.04360  Biso   1.000  C
  O17      1.0000 0.30590  0.98910  0.81580  Biso   1.000  O
  O18      1.0000 0.23540  0.94950  0.47470  Biso   1.000  O
  O19      1.0000 0.35560  0.93980  0.88030  Biso   1.000  O
  O20      1.0000 0.28120  0.91490  0.36810  Biso   1.000  O
  C53      1.0000 0.41130  0.83340  0.59220  Biso   1.000  C
  C54      1.0000 0.34140  0.88170  0.52500  Biso   1.000  C
  H21      1.0000 0.34420  0.86620  0.46150  Biso   1.000  H
  C55      1.0000 0.37010  0.89310  0.69370  Biso   1.000  C
  H22      1.0000 0.39230  0.88590  0.74690  Biso   1.000  H
  C56      1.0000 0.33400  0.92800  0.70930  Biso   1.000  C
  C57      1.0000 0.37290  0.87010  0.60460  Biso   1.000  C
  C58      1.0000 0.39540  0.78870  0.58850  Biso   1.000  C
  C59      1.0000 0.30230  0.93940  0.62920  Biso   1.000  C
  H23      1.0000 0.27860  0.96300  0.63750  Biso   1.000  H
  C60      1.0000 0.34450  0.77410  0.59310  Biso   1.000  C
  H24      1.0000 0.31680  0.79370  0.59570  Biso   1.000  H
  C61      1.0000 0.45930  0.84810  0.59030  Biso   1.000  C
  C62      1.0000 0.30620  0.91560  0.53730  Biso   1.000  C
  C63      1.0000 0.47550  0.89550  0.59010  Biso   1.000  C
  H25      1.0000 0.45520  0.92210  0.59000  Biso   1.000  H
  C64      1.0000 0.33090  0.95430  0.80560  Biso   1.000  C
  C65      1.0000 0.27130  0.92820  0.45640  Biso   1.000  C
  O21      1.0000 0.80590  0.48910  0.31580  Biso   1.000  O
  O22      1.0000 0.73540  0.44950  0.97470  Biso   1.000  O
  O23      1.0000 0.85560  0.43980  0.38030  Biso   1.000  O
  O24      1.0000 0.78120  0.41490  0.86810  Biso   1.000  O
  C66      1.0000 0.91130  0.33340  0.09220  Biso   1.000  C
  C67      1.0000 0.84140  0.38170  0.02500  Biso   1.000  C
  H26      1.0000 0.84420  0.36620  0.96150  Biso   1.000  H
  C68      1.0000 0.87010  0.39310  0.19370  Biso   1.000  C
  H27      1.0000 0.89230  0.38590  0.24690  Biso   1.000  H
  C69      1.0000 0.83400  0.42800  0.20930  Biso   1.000  C
  C70      1.0000 0.87290  0.37010  0.10460  Biso   1.000  C
  C71      1.0000 0.89540  0.28870  0.08850  Biso   1.000  C
  C72      1.0000 0.80230  0.43940  0.12920  Biso   1.000  C
  H28      1.0000 0.77860  0.46300  0.13750  Biso   1.000  H
  C73      1.0000 0.84450  0.27410  0.09310  Biso   1.000  C
  H29      1.0000 0.81680  0.29370  0.09570  Biso   1.000  H
  C74      1.0000 0.95930  0.34810  0.09030  Biso   1.000  C
  C75      1.0000 0.80620  0.41560  0.03730  Biso   1.000  C
  C76      1.0000 0.97550  0.39550  0.09010  Biso   1.000  C
  H30      1.0000 0.95520  0.42210  0.09000  Biso   1.000  H
  C77      1.0000 0.83090  0.45430  0.30560  Biso   1.000  C
  C78      1.0000 0.77130  0.42820  0.95640  Biso   1.000  C
  O25      1.0000 0.69410  0.51090  0.81580  Biso   1.000  O
  O26      1.0000 0.76460  0.55050  0.47470  Biso   1.000  O
  O27      1.0000 0.64440  0.56020  0.88030  Biso   1.000  O
  O28      1.0000 0.71880  0.58510  0.36810  Biso   1.000  O
  C79      1.0000 0.58870  0.66660  0.59220  Biso   1.000  C
  C80      1.0000 0.65860  0.61830  0.52500  Biso   1.000  C
  H31      1.0000 0.65580  0.63380  0.46150  Biso   1.000  H
  C81      1.0000 0.62990  0.60690  0.69370  Biso   1.000  C
  H32      1.0000 0.60770  0.61410  0.74690  Biso   1.000  H
  C82      1.0000 0.66600  0.57200  0.70930  Biso   1.000  C
  C83      1.0000 0.62710  0.62990  0.60460  Biso   1.000  C
  C84      1.0000 0.60460  0.71130  0.58850  Biso   1.000  C
  C85      1.0000 0.69770  0.56060  0.62920  Biso   1.000  C
  H33      1.0000 0.72140  0.53700  0.63750  Biso   1.000  H
  C86      1.0000 0.65550  0.72590  0.59310  Biso   1.000  C
  H34      1.0000 0.68320  0.70630  0.59570  Biso   1.000  H
  C87      1.0000 0.54070  0.65190  0.59030  Biso   1.000  C
  C88      1.0000 0.69380  0.58440  0.53730  Biso   1.000  C
  C89      1.0000 0.52450  0.60450  0.59010  Biso   1.000  C
  H35      1.0000 0.54480  0.57790  0.59000  Biso   1.000  H
  C90      1.0000 0.66910  0.54570  0.80560  Biso   1.000  C
  C91      1.0000 0.72870  0.57180  0.45640  Biso   1.000  C
  O29      1.0000 0.19410  0.01090  0.31580  Biso   1.000  O
  O30      1.0000 0.26460  0.05050  0.97470  Biso   1.000  O
  O31      1.0000 0.14440  0.06020  0.38030  Biso   1.000  O
  O32      1.0000 0.21880  0.08510  0.86810  Biso   1.000  O
  C92      1.0000 0.08870  0.16660  0.09220  Biso   1.000  C
  C93      1.0000 0.15860  0.11830  0.02500  Biso   1.000  C
  H36      1.0000 0.15580  0.13380  0.96150  Biso   1.000  H
  C94      1.0000 0.12990  0.10690  0.19370  Biso   1.000  C
  H37      1.0000 0.10770  0.11410  0.24690  Biso   1.000  H
  C95      1.0000 0.16600  0.07200  0.20930  Biso   1.000  C
  C96      1.0000 0.12710  0.12990  0.10460  Biso   1.000  C
  C97      1.0000 0.10460  0.21130  0.08850  Biso   1.000  C
  C98      1.0000 0.19770  0.06060  0.12920  Biso   1.000  C
  H38      1.0000 0.22140  0.03700  0.13750  Biso   1.000  H
  C99      1.0000 0.15550  0.22590  0.09310  Biso   1.000  C
  H39      1.0000 0.18320  0.20630  0.09570  Biso   1.000  H
  C100     1.0000 0.04070  0.15190  0.09030  Biso   1.000  C
  C101     1.0000 0.19380  0.08440  0.03730  Biso   1.000  C
  C102     1.0000 0.02450  0.10450  0.09010  Biso   1.000  C
  H40      1.0000 0.04480  0.07790  0.09000  Biso   1.000  H
  C103     1.0000 0.16910  0.04570  0.30560  Biso   1.000  C
  C104     1.0000 0.22870  0.07180  0.95640  Biso   1.000  C
  O33      1.0000 0.30590  0.51090  0.81580  Biso   1.000  O
  O34      1.0000 0.23540  0.55050  0.47470  Biso   1.000  O
  O35      1.0000 0.35560  0.56020  0.88030  Biso   1.000  O
  O36      1.0000 0.28120  0.58510  0.36810  Biso   1.000  O
  C105     1.0000 0.41130  0.66660  0.59220  Biso   1.000  C
  C106     1.0000 0.34140  0.61830  0.52500  Biso   1.000  C
  H41      1.0000 0.34420  0.63380  0.46150  Biso   1.000  H
  C107     1.0000 0.37010  0.60690  0.69370  Biso   1.000  C
  H42      1.0000 0.39230  0.61410  0.74690  Biso   1.000  H
  C108     1.0000 0.33400  0.57200  0.70930  Biso   1.000  C
  C109     1.0000 0.37290  0.62990  0.60460  Biso   1.000  C
  C110     1.0000 0.39540  0.71130  0.58850  Biso   1.000  C
  C111     1.0000 0.30230  0.56060  0.62920  Biso   1.000  C
  H43      1.0000 0.27860  0.53700  0.63750  Biso   1.000  H
  C112     1.0000 0.34450  0.72590  0.59310  Biso   1.000  C
  H44      1.0000 0.31680  0.70630  0.59570  Biso   1.000  H
  C113     1.0000 0.45930  0.65190  0.59030  Biso   1.000  C
  C114     1.0000 0.30620  0.58440  0.53730  Biso   1.000  C
  C115     1.0000 0.47550  0.60450  0.59010  Biso   1.000  C
  H45      1.0000 0.45520  0.57790  0.59000  Biso   1.000  H
  C116     1.0000 0.33090  0.54570  0.80560  Biso   1.000  C
  C117     1.0000 0.27130  0.57180  0.45640  Biso   1.000  C
  O37      1.0000 0.80590  0.01090  0.31580  Biso   1.000  O
  O38      1.0000 0.73540  0.05050  0.97470  Biso   1.000  O
  O39      1.0000 0.85560  0.06020  0.38030  Biso   1.000  O
  O40      1.0000 0.78120  0.08510  0.86810  Biso   1.000  O
  C118     1.0000 0.91130  0.16660  0.09220  Biso   1.000  C
  C119     1.0000 0.84140  0.11830  0.02500  Biso   1.000  C
  H46      1.0000 0.84420  0.13380  0.96150  Biso   1.000  H
  C120     1.0000 0.87010  0.10690  0.19370  Biso   1.000  C
  H47      1.0000 0.89230  0.11410  0.24690  Biso   1.000  H
  C121     1.0000 0.83400  0.07200  0.20930  Biso   1.000  C
  C122     1.0000 0.87290  0.12990  0.10460  Biso   1.000  C
  C123     1.0000 0.89540  0.21130  0.08850  Biso   1.000  C
  C124     1.0000 0.80230  0.06060  0.12920  Biso   1.000  C
  H48      1.0000 0.77860  0.03700  0.13750  Biso   1.000  H
  C125     1.0000 0.84450  0.22590  0.09310  Biso   1.000  C
  H49      1.0000 0.81680  0.20630  0.09570  Biso   1.000  H
  C126     1.0000 0.95930  0.15190  0.09030  Biso   1.000  C
  C127     1.0000 0.80620  0.08440  0.03730  Biso   1.000  C
  C128     1.0000 0.97550  0.10450  0.09010  Biso   1.000  C
  H50      1.0000 0.95520  0.07790  0.09000  Biso   1.000  H
  C129     1.0000 0.83090  0.04570  0.30560  Biso   1.000  C
  C130     1.0000 0.77130  0.07180  0.95640  Biso   1.000  C
  O41      1.0000 0.69410  0.98910  0.81580  Biso   1.000  O
  O42      1.0000 0.76460  0.94950  0.47470  Biso   1.000  O
  O43      1.0000 0.64440  0.93980  0.88030  Biso   1.000  O
  O44      1.0000 0.71880  0.91490  0.36810  Biso   1.000  O
  C131     1.0000 0.58870  0.83340  0.59220  Biso   1.000  C
  C132     1.0000 0.65860  0.88170  0.52500  Biso   1.000  C
  H51      1.0000 0.65580  0.86620  0.46150  Biso   1.000  H
  C133     1.0000 0.62990  0.89310  0.69370  Biso   1.000  C
  H52      1.0000 0.60770  0.88590  0.74690  Biso   1.000  H
  C134     1.0000 0.66600  0.92800  0.70930  Biso   1.000  C
  C135     1.0000 0.62710  0.87010  0.60460  Biso   1.000  C
  C136     1.0000 0.60460  0.78870  0.58850  Biso   1.000  C
  C137     1.0000 0.69770  0.93940  0.62920  Biso   1.000  C
  H53      1.0000 0.72140  0.96300  0.63750  Biso   1.000  H
  C138     1.0000 0.65550  0.77410  0.59310  Biso   1.000  C
  H54      1.0000 0.68320  0.79370  0.59570  Biso   1.000  H
  C139     1.0000 0.54070  0.84810  0.59030  Biso   1.000  C
  C140     1.0000 0.69380  0.91560  0.53730  Biso   1.000  C
  C141     1.0000 0.52450  0.89550  0.59010  Biso   1.000  C
  H55      1.0000 0.54480  0.92210  0.59000  Biso   1.000  H
  C142     1.0000 0.66910  0.95430  0.80560  Biso   1.000  C
  C143     1.0000 0.72870  0.92820  0.45640  Biso   1.000  C
  O45      1.0000 0.19410  0.48910  0.31580  Biso   1.000  O
  O46      1.0000 0.26460  0.44950  0.97470  Biso   1.000  O
  O47      1.0000 0.14440  0.43980  0.38030  Biso   1.000  O
  O48      1.0000 0.21880  0.41490  0.86810  Biso   1.000  O
  C144     1.0000 0.08870  0.33340  0.09220  Biso   1.000  C
  C145     1.0000 0.15860  0.38170  0.02500  Biso   1.000  C
  H56      1.0000 0.15580  0.36620  0.96150  Biso   1.000  H
  C146     1.0000 0.12990  0.39310  0.19370  Biso   1.000  C
  H57      1.0000 0.10770  0.38590  0.24690  Biso   1.000  H
  C147     1.0000 0.16600  0.42800  0.20930  Biso   1.000  C
  C148     1.0000 0.12710  0.37010  0.10460  Biso   1.000  C
  C149     1.0000 0.10460  0.28870  0.08850  Biso   1.000  C
  C150     1.0000 0.19770  0.43940  0.12920  Biso   1.000  C
  H58      1.0000 0.22140  0.46300  0.13750  Biso   1.000  H
  C151     1.0000 0.15550  0.27410  0.09310  Biso   1.000  C
  H59      1.0000 0.18320  0.29370  0.09570  Biso   1.000  H
  C152     1.0000 0.04070  0.34810  0.09030  Biso   1.000  C
  C153     1.0000 0.19380  0.41560  0.03730  Biso   1.000  C
  C154     1.0000 0.02450  0.39550  0.09010  Biso   1.000  C
  H60      1.0000 0.04480  0.42210  0.09000  Biso   1.000  H
  C155     1.0000 0.16910  0.45430  0.30560  Biso   1.000  C
  C156     1.0000 0.22870  0.42820  0.95640  Biso   1.000  C
  O49      1.0000 0.69410  0.01090  0.18420  Biso   1.000  O
  O50      1.0000 0.76460  0.05050  0.52530  Biso   1.000  O
  O51      1.0000 0.64440  0.06020  0.11970  Biso   1.000  O
  O52      1.0000 0.71880  0.08510  0.63190  Biso   1.000  O
  C157     1.0000 0.58870  0.16660  0.40780  Biso   1.000  C
  C158     1.0000 0.65860  0.11830  0.47500  Biso   1.000  C
  H61      1.0000 0.65580  0.13380  0.53850  Biso   1.000  H
  C159     1.0000 0.62990  0.10690  0.30630  Biso   1.000  C
  H62      1.0000 0.60770  0.11410  0.25310  Biso   1.000  H
  C160     1.0000 0.66600  0.07200  0.29070  Biso   1.000  C
  C161     1.0000 0.62710  0.12990  0.39540  Biso   1.000  C
  C162     1.0000 0.60460  0.21130  0.41150  Biso   1.000  C
  C163     1.0000 0.69770  0.06060  0.37080  Biso   1.000  C
  H63      1.0000 0.72140  0.03700  0.36250  Biso   1.000  H
  C164     1.0000 0.65550  0.22590  0.40690  Biso   1.000  C
  H64      1.0000 0.68320  0.20630  0.40430  Biso   1.000  H
  C165     1.0000 0.54070  0.15190  0.40970  Biso   1.000  C
  C166     1.0000 0.69380  0.08440  0.46270  Biso   1.000  C
  C167     1.0000 0.52450  0.10450  0.40990  Biso   1.000  C
  H65      1.0000 0.54480  0.07790  0.41000  Biso   1.000  H
  C168     1.0000 0.66910  0.04570  0.19440  Biso   1.000  C
  C169     1.0000 0.72870  0.07180  0.54360  Biso   1.000  C
  O53      1.0000 0.19410  0.51090  0.68420  Biso   1.000  O
  O54      1.0000 0.26460  0.55050  0.02530  Biso   1.000  O
  O55      1.0000 0.14440  0.56020  0.61970  Biso   1.000  O
  O56      1.0000 0.21880  0.58510  0.13190  Biso   1.000  O
  C170     1.0000 0.08870  0.66660  0.90780  Biso   1.000  C
  C171     1.0000 0.15860  0.61830  0.97500  Biso   1.000  C
  H66      1.0000 0.15580  0.63380  0.03850  Biso   1.000  H
  C172     1.0000 0.12990  0.60690  0.80630  Biso   1.000  C
  H67      1.0000 0.10770  0.61410  0.75310  Biso   1.000  H
  C173     1.0000 0.16600  0.57200  0.79070  Biso   1.000  C
  C174     1.0000 0.12710  0.62990  0.89540  Biso   1.000  C
  C175     1.0000 0.10460  0.71130  0.91150  Biso   1.000  C
  C176     1.0000 0.19770  0.56060  0.87080  Biso   1.000  C
  H68      1.0000 0.22140  0.53700  0.86250  Biso   1.000  H
  C177     1.0000 0.15550  0.72590  0.90690  Biso   1.000  C
  H69      1.0000 0.18320  0.70630  0.90430  Biso   1.000  H
  C178     1.0000 0.04070  0.65190  0.90970  Biso   1.000  C
  C179     1.0000 0.19380  0.58440  0.96270  Biso   1.000  C
  C180     1.0000 0.02450  0.60450  0.90990  Biso   1.000  C
  H70      1.0000 0.04480  0.57790  0.91000  Biso   1.000  H
  C181     1.0000 0.16910  0.54570  0.69440  Biso   1.000  C
  C182     1.0000 0.22870  0.57180  0.04360  Biso   1.000  C
  O57      1.0000 0.30590  0.48910  0.18420  Biso   1.000  O
  O58      1.0000 0.23540  0.44950  0.52530  Biso   1.000  O
  O59      1.0000 0.35560  0.43980  0.11970  Biso   1.000  O
  O60      1.0000 0.28120  0.41490  0.63190  Biso   1.000  O
  C183     1.0000 0.41130  0.33340  0.40780  Biso   1.000  C
  C184     1.0000 0.34140  0.38170  0.47500  Biso   1.000  C
  H71      1.0000 0.34420  0.36620  0.53850  Biso   1.000  H
  C185     1.0000 0.37010  0.39310  0.30630  Biso   1.000  C
  H72      1.0000 0.39230  0.38590  0.25310  Biso   1.000  H
  C186     1.0000 0.33400  0.42800  0.29070  Biso   1.000  C
  C187     1.0000 0.37290  0.37010  0.39540  Biso   1.000  C
  C188     1.0000 0.39540  0.28870  0.41150  Biso   1.000  C
  C189     1.0000 0.30230  0.43940  0.37080  Biso   1.000  C
  H73      1.0000 0.27860  0.46300  0.36250  Biso   1.000  H
  C190     1.0000 0.34450  0.27410  0.40690  Biso   1.000  C
  H74      1.0000 0.31680  0.29370  0.40430  Biso   1.000  H
  C191     1.0000 0.45930  0.34810  0.40970  Biso   1.000  C
  C192     1.0000 0.30620  0.41560  0.46270  Biso   1.000  C
  C193     1.0000 0.47550  0.39550  0.40990  Biso   1.000  C
  H75      1.0000 0.45520  0.42210  0.41000  Biso   1.000  H
  C194     1.0000 0.33090  0.45430  0.19440  Biso   1.000  C
  C195     1.0000 0.27130  0.42820  0.54360  Biso   1.000  C
  O61      1.0000 0.80590  0.98910  0.68420  Biso   1.000  O
  O62      1.0000 0.73540  0.94950  0.02530  Biso   1.000  O
  O63      1.0000 0.85560  0.93980  0.61970  Biso   1.000  O
  O64      1.0000 0.78120  0.91490  0.13190  Biso   1.000  O
  C196     1.0000 0.91130  0.83340  0.90780  Biso   1.000  C
  C197     1.0000 0.84140  0.88170  0.97500  Biso   1.000  C
  H76      1.0000 0.84420  0.86620  0.03850  Biso   1.000  H
  C198     1.0000 0.87010  0.89310  0.80630  Biso   1.000  C
  H77      1.0000 0.89230  0.88590  0.75310  Biso   1.000  H
  C199     1.0000 0.83400  0.92800  0.79070  Biso   1.000  C
  C200     1.0000 0.87290  0.87010  0.89540  Biso   1.000  C
  C201     1.0000 0.89540  0.78870  0.91150  Biso   1.000  C
  C202     1.0000 0.80230  0.93940  0.87080  Biso   1.000  C
  H78      1.0000 0.77860  0.96300  0.86250  Biso   1.000  H
  C203     1.0000 0.84450  0.77410  0.90690  Biso   1.000  C
  H79      1.0000 0.81680  0.79370  0.90430  Biso   1.000  H
  C204     1.0000 0.95930  0.84810  0.90970  Biso   1.000  C
  C205     1.0000 0.80620  0.91560  0.96270  Biso   1.000  C
  C206     1.0000 0.97550  0.89550  0.90990  Biso   1.000  C
  H80      1.0000 0.95520  0.92210  0.91000  Biso   1.000  H
  C207     1.0000 0.83090  0.95430  0.69440  Biso   1.000  C
  C208     1.0000 0.77130  0.92820  0.04360  Biso   1.000  C
  Eu1      1.0000 0.82764  0.50000  0.50000  Biso   1.000  Eu
  Eu2      1.0000 0.32764  0.00000  0.00000  Biso   1.000  Eu
  Eu3      1.0000 0.17236  0.00000  0.50000  Biso   1.000  Eu
  Eu4      1.0000 0.67236  0.50000  0.00000  Biso   1.000  Eu
  Eu5      1.0000 0.17236  0.50000  0.50000  Biso   1.000  Eu
  Eu6      1.0000 0.67236  0.00000  0.00000  Biso   1.000  Eu
  Eu7      1.0000 0.82764  0.00000  0.50000  Biso   1.000  Eu
  Eu8      1.0000 0.32764  0.50000  0.00000  Biso   1.000  Eu
  Zn1      1.0000 0.50000  0.25000  0.38930  Biso   1.000  Zn
  Zn2      1.0000 0.50000  0.25000  0.44490  Biso   1.000  Zn
  Zn3      1.0000 0.00000  0.75000  0.88930  Biso   1.000  Zn
  Zn4      1.0000 0.00000  0.75000  0.94490  Biso   1.000  Zn
  Zn5      1.0000 0.50000  0.75000  0.61070  Biso   1.000  Zn
  Zn6      1.0000 0.50000  0.75000  0.55510  Biso   1.000  Zn
  Zn7      1.0000 0.00000  0.25000  0.11070  Biso   1.000  Zn
  Zn8      1.0000 0.00000  0.25000  0.05510  Biso   1.000  Zn
  Na1      1.0000 0.75000  0.45860  0.75000  Biso   1.000  Na
  Na2      1.0000 0.25000  0.04140  0.75000  Biso   1.000  Na
  Na3      1.0000 0.25000  0.95860  0.25000  Biso   1.000  Na
  Na4      1.0000 0.75000  0.54140  0.25000  Biso   1.000  Na
  Na5      1.0000 0.25000  0.54140  0.25000  Biso   1.000  Na
  Na6      1.0000 0.75000  0.95860  0.25000  Biso   1.000  Na
  Na7      1.0000 0.75000  0.04140  0.75000  Biso   1.000  Na
  Na8      1.0000 0.25000  0.45860  0.75000  Biso   1.000  Na
  N1       1.0000 0.50000  0.31970  0.41070  Biso   1.000  N
  N2       1.0000 0.00000  0.81970  0.91070  Biso   1.000  N
  N3       1.0000 0.50000  0.18030  0.41070  Biso   1.000  N
  N4       1.0000 0.00000  0.68030  0.91070  Biso   1.000  N
  N5       1.0000 0.50000  0.81970  0.58930  Biso   1.000  N
  N6       1.0000 0.00000  0.31970  0.08930  Biso   1.000  N
  N7       1.0000 0.50000  0.68030  0.58930  Biso   1.000  N
  N8       1.0000 0.00000  0.18030  0.08930  Biso   1.000  N
  N9       1.0000 0.57460  0.25000  0.41730  Biso   1.000  N
  N10      1.0000 0.07460  0.75000  0.91730  Biso   1.000  N
  N11      1.0000 0.42540  0.25000  0.41730  Biso   1.000  N
  N12      1.0000 0.92540  0.75000  0.91730  Biso   1.000  N
  N13      1.0000 0.42540  0.75000  0.58270  Biso   1.000  N
  N14      1.0000 0.92540  0.25000  0.08270  Biso   1.000  N
  N15      1.0000 0.57460  0.75000  0.58270  Biso   1.000  N
  N16      1.0000 0.07460  0.25000  0.08270  Biso   1.000  N
