data_image0
_cell_length_a       9.3195
_cell_length_b       14.2603
_cell_length_c       18.4982
_cell_angle_alpha    105.307
_cell_angle_beta     99.077
_cell_angle_gamma    95.406

_symmetry_space_group_name_H-M    "P 1"
_symmetry_int_tables_number       1

loop_
  _symmetry_equiv_pos_as_xyz
  'x, y, z'

loop_
  _atom_site_label
  _atom_site_occupancy
  _atom_site_fract_x
  _atom_site_fract_y
  _atom_site_fract_z
  _atom_site_thermal_displace_type
  _atom_site_B_iso_or_equiv
  _atom_site_type_symbol
  Cd1      1.0000 0.95105  0.70657  0.31653  Biso   1.000  Cd
  Cd2      1.0000 0.82297  0.82311  0.73906  Biso   1.000  Cd
  B1       1.0000 0.30850  0.93820  0.60550  Biso   1.000  B
  O1       1.0000 0.92170  0.89960  0.87780  Biso   1.000  O
  O2       1.0000 0.70290  0.80450  0.84110  Biso   1.000  O
  O3       1.0000 0.00730  0.81160  0.23809  Biso   1.000  O
  O4       1.0000 0.80770  0.70160  0.19646  Biso   1.000  O
  O5       1.0000 0.69180  0.68080  0.67495  Biso   1.000  O
  O6       1.0000 0.77500  0.72210  0.58240  Biso   1.000  O
  N1       1.0000 0.22690  0.91030  0.66503  Biso   1.000  N
  N2       1.0000 0.04400  0.86950  0.71924  Biso   1.000  N
  N3       1.0000 0.68440  0.92680  0.69889  Biso   1.000  N
  N4       1.0000 0.47460  0.95460  0.63906  Biso   1.000  N
  N5       1.0000 0.27440  0.85730  0.52853  Biso   1.000  N
  N6       1.0000 0.14760  0.76330  0.41640  Biso   1.000  N
  N7       1.0000 0.99880  0.43060  0.15810  Biso   1.000  N
  N8       1.0000 0.03310  0.56940  0.24830  Biso   1.000  N
  N9       1.0000 0.17390  0.17660  0.61875  Biso   1.000  N
  N10      1.0000 0.26000  0.03380  0.59344  Biso   1.000  N
  C1       1.0000 0.08840  0.86520  0.65430  Biso   1.000  C
  C2       1.0000 0.27050  0.94670  0.74360  Biso   1.000  C
  C3       1.0000 0.15910  0.92120  0.77580  Biso   1.000  C
  C4       1.0000 0.54470  0.89490  0.67290  Biso   1.000  C
  C5       1.0000 0.70790  0.01360  0.68170  Biso   1.000  C
  C6       1.0000 0.58020  0.03200  0.64530  Biso   1.000  C
  C7       1.0000 0.15350  0.84070  0.47410  Biso   1.000  C
  C8       1.0000 0.27660  0.72860  0.43440  Biso   1.000  C
  H1       1.0000 0.30620  0.67340  0.40420  Biso   1.000  H
  C9       1.0000 0.35450  0.78510  0.50180  Biso   1.000  C
  C10      1.0000 0.95000  0.51530  0.18390  Biso   1.000  C
  C11      1.0000 0.11810  0.42840  0.20700  Biso   1.000  C
  C12      1.0000 0.13930  0.51370  0.26230  Biso   1.000  C
  C13      1.0000 0.19160  0.09650  0.64030  Biso   1.000  C
  C14      1.0000 0.23240  0.16570  0.55430  Biso   1.000  C
  C15      1.0000 0.28390  0.07950  0.53770  Biso   1.000  C
  C16      1.0000 0.83180  0.83240  0.88900  Biso   1.000  C
  C17      1.0000 0.84380  0.82020  0.96760  Biso   1.000  C
  C18      1.0000 0.95290  0.87500  0.02630  Biso   1.000  C
  C19      1.0000 0.96940  0.85970  0.09750  Biso   1.000  C
  C20      1.0000 0.87760  0.78820  0.11110  Biso   1.000  C
  C21      1.0000 0.76760  0.73390  0.05240  Biso   1.000  C
  C22      1.0000 0.74940  0.74990  0.98110  Biso   1.000  C
  C23      1.0000 0.89870  0.76630  0.18670  Biso   1.000  C
  C24      1.0000 0.69610  0.66770  0.60590  Biso   1.000  C
  C25      1.0000 0.59570  0.57990  0.55100  Biso   1.000  C
  C26      1.0000 0.51580  0.51370  0.57700  Biso   1.000  C
  C27      1.0000 0.57860  0.56590  0.47300  Biso   1.000  C
  H2       1.0000 0.36300  0.98100  0.76800  Biso   1.000  H
  H3       1.0000 0.16300  0.08700  0.68300  Biso   1.000  H
  H4       1.0000 0.50500  0.83600  0.67500  Biso   1.000  H
  H5       1.0000 0.52800  0.51700  0.62600  Biso   1.000  H
  H6       1.0000 0.55500  0.08500  0.62600  Biso   1.000  H
  H7       1.0000 0.02900  0.83400  0.60800  Biso   1.000  H
  H8       1.0000 0.22400  0.20900  0.53000  Biso   1.000  H
  H9       1.0000 0.70900  0.68700  0.06200  Biso   1.000  H
  H10      1.0000 0.08600  0.88000  0.47700  Biso   1.000  H
  H11      1.0000 0.15300  0.93100  0.82200  Biso   1.000  H
  H12      1.0000 0.95100  0.38700  0.11400  Biso   1.000  H
  H13      1.0000 0.32400  0.04800  0.49800  Biso   1.000  H
  H14      1.0000 0.17500  0.38300  0.20300  Biso   1.000  H
  H15      1.0000 0.79500  0.04800  0.69400  Biso   1.000  H
  H16      1.0000 0.04000  0.90000  0.13900  Biso   1.000  H
  H17      1.0000 0.66700  0.70900  0.94200  Biso   1.000  H
  H18      1.0000 0.01400  0.92500  0.01700  Biso   1.000  H
  H19      1.0000 0.44800  0.78500  0.53500  Biso   1.000  H
  H20      1.0000 0.84100  0.53500  0.15800  Biso   1.000  H
  H21      1.0000 0.18500  0.53300  0.31000  Biso   1.000  H
  H22      1.0000 0.63400  0.61100  0.45500  Biso   1.000  H
  O7       1.0000 0.93850  0.85210  0.86420  Biso   1.000  O
  O8       1.0000 0.74800  0.77540  0.83950  Biso   1.000  O
  Cd3      1.0000 0.04895  0.29343  0.68348  Biso   1.000  Cd
  Cd4      1.0000 0.17703  0.17689  0.26094  Biso   1.000  Cd
  B2       1.0000 0.69150  0.06180  0.39450  Biso   1.000  B
  O9       1.0000 0.07830  0.10040  0.12220  Biso   1.000  O
  O10      1.0000 0.29710  0.19550  0.15890  Biso   1.000  O
  O11      1.0000 0.99270  0.18840  0.76191  Biso   1.000  O
  O12      1.0000 0.19230  0.29840  0.80354  Biso   1.000  O
  O13      1.0000 0.30820  0.31920  0.32505  Biso   1.000  O
  O14      1.0000 0.22500  0.27790  0.41760  Biso   1.000  O
  N11      1.0000 0.77310  0.08970  0.33497  Biso   1.000  N
  N12      1.0000 0.95600  0.13050  0.28076  Biso   1.000  N
  N13      1.0000 0.31560  0.07320  0.30111  Biso   1.000  N
  N14      1.0000 0.52540  0.04540  0.36094  Biso   1.000  N
  N15      1.0000 0.72560  0.14270  0.47147  Biso   1.000  N
  N16      1.0000 0.85240  0.23670  0.58360  Biso   1.000  N
  N17      1.0000 0.00120  0.56940  0.84190  Biso   1.000  N
  N18      1.0000 0.96690  0.43060  0.75170  Biso   1.000  N
  N19      1.0000 0.82610  0.82340  0.38125  Biso   1.000  N
  N20      1.0000 0.74000  0.96620  0.40656  Biso   1.000  N
  C28      1.0000 0.91160  0.13480  0.34570  Biso   1.000  C
  C29      1.0000 0.72950  0.05330  0.25640  Biso   1.000  C
  C30      1.0000 0.84090  0.07880  0.22420  Biso   1.000  C
  C31      1.0000 0.45530  0.10510  0.32710  Biso   1.000  C
  C32      1.0000 0.29210  0.98640  0.31830  Biso   1.000  C
  C33      1.0000 0.41980  0.96800  0.35470  Biso   1.000  C
  C34      1.0000 0.84650  0.15930  0.52590  Biso   1.000  C
  C35      1.0000 0.72340  0.27140  0.56560  Biso   1.000  C
  H23      1.0000 0.69380  0.32660  0.59580  Biso   1.000  H
  C36      1.0000 0.64550  0.21490  0.49820  Biso   1.000  C
  C37      1.0000 0.05000  0.48470  0.81610  Biso   1.000  C
  C38      1.0000 0.88190  0.57160  0.79300  Biso   1.000  C
  C39      1.0000 0.86070  0.48630  0.73770  Biso   1.000  C
  C40      1.0000 0.80840  0.90350  0.35970  Biso   1.000  C
  C41      1.0000 0.76760  0.83430  0.44570  Biso   1.000  C
  C42      1.0000 0.71610  0.92050  0.46230  Biso   1.000  C
  C43      1.0000 0.16820  0.16760  0.11100  Biso   1.000  C
  C44      1.0000 0.15620  0.17980  0.03240  Biso   1.000  C
  C45      1.0000 0.04710  0.12500  0.97370  Biso   1.000  C
  C46      1.0000 0.03060  0.14030  0.90250  Biso   1.000  C
  C47      1.0000 0.12240  0.21180  0.88890  Biso   1.000  C
  C48      1.0000 0.23240  0.26610  0.94760  Biso   1.000  C
  C49      1.0000 0.25060  0.25010  0.01890  Biso   1.000  C
  C50      1.0000 0.10130  0.23370  0.81330  Biso   1.000  C
  C51      1.0000 0.30390  0.33230  0.39410  Biso   1.000  C
  C52      1.0000 0.40430  0.42010  0.44900  Biso   1.000  C
  C53      1.0000 0.48420  0.48630  0.42300  Biso   1.000  C
  C54      1.0000 0.42140  0.43410  0.52700  Biso   1.000  C
  H24      1.0000 0.63700  0.01900  0.23200  Biso   1.000  H
  H25      1.0000 0.83700  0.91300  0.31700  Biso   1.000  H
  H26      1.0000 0.49500  0.16400  0.32500  Biso   1.000  H
  H27      1.0000 0.47200  0.48300  0.37400  Biso   1.000  H
  H28      1.0000 0.44500  0.91500  0.37400  Biso   1.000  H
  H29      1.0000 0.97100  0.16600  0.39200  Biso   1.000  H
  H30      1.0000 0.77600  0.79100  0.47000  Biso   1.000  H
  H31      1.0000 0.29100  0.31300  0.93800  Biso   1.000  H
  H32      1.0000 0.91400  0.12000  0.52300  Biso   1.000  H
  H33      1.0000 0.84700  0.06900  0.17800  Biso   1.000  H
  H34      1.0000 0.04900  0.61300  0.88600  Biso   1.000  H
  H35      1.0000 0.67600  0.95200  0.50200  Biso   1.000  H
  H36      1.0000 0.82500  0.61700  0.79700  Biso   1.000  H
  H37      1.0000 0.20500  0.95200  0.30600  Biso   1.000  H
  H38      1.0000 0.96000  0.10000  0.86100  Biso   1.000  H
  H39      1.0000 0.33300  0.29100  0.05800  Biso   1.000  H
  H40      1.0000 0.98600  0.07500  0.98300  Biso   1.000  H
  H41      1.0000 0.55200  0.21500  0.46500  Biso   1.000  H
  H42      1.0000 0.15900  0.46500  0.84200  Biso   1.000  H
  H43      1.0000 0.81500  0.46700  0.69000  Biso   1.000  H
  H44      1.0000 0.36600  0.38900  0.54500  Biso   1.000  H
  O15      1.0000 0.06150  0.14790  0.13580  Biso   1.000  O
  O16      1.0000 0.25200  0.22460  0.16050  Biso   1.000  O
