data_image0
_cell_length_a       13.8392
_cell_length_b       13.8392
_cell_length_c       23.269
_cell_angle_alpha    90
_cell_angle_beta     90
_cell_angle_gamma    120

_symmetry_space_group_name_H-M    "P 1"
_symmetry_int_tables_number       1

loop_
  _symmetry_equiv_pos_as_xyz
  'x, y, z'

loop_
  _atom_site_label
  _atom_site_occupancy
  _atom_site_fract_x
  _atom_site_fract_y
  _atom_site_fract_z
  _atom_site_thermal_displace_type
  _atom_site_B_iso_or_equiv
  _atom_site_type_symbol
  O1       1.0000 0.65020  0.13730  0.31750  Biso   1.000  O
  O2       1.0000 0.86250  0.34900  0.31740  Biso   1.000  O
  C1       1.0000 0.87480  0.12510  0.29460  Biso   1.000  C
  C2       1.0000 0.55940  0.11880  0.33910  Biso   1.000  C
  N1       1.0000 0.92810  0.07190  0.27930  Biso   1.000  N
  H1       1.0000 0.86290  0.13690  0.33270  Biso   1.000  H
  C3       1.0000 0.55770  0.06620  0.40040  Biso   1.000  C
  C4       1.0000 0.64090  0.04470  0.41860  Biso   1.000  C
  C5       1.0000 0.46820  0.05190  0.43340  Biso   1.000  C
  C6       1.0000 0.63040  0.00550  0.47490  Biso   1.000  C
  C7       1.0000 0.45880  0.01070  0.48960  Biso   1.000  C
  C8       1.0000 0.50970  0.06740  0.39960  Biso   1.000  C
  C9       1.0000 0.58380  0.05100  0.43270  Biso   1.000  C
  C10      1.0000 0.55120  0.01040  0.48890  Biso   1.000  C
  C11      1.0000 0.37560  0.00540  0.47560  Biso   1.000  C
  C12      1.0000 0.40590  0.04550  0.41960  Biso   1.000  C
  Cl1      1.0000 0.84700  0.92400  0.39190  Biso   1.000  Cl
  O3       1.0000 0.86270  0.51290  0.31750  Biso   1.000  O
  O4       1.0000 0.65100  0.51350  0.31740  Biso   1.000  O
  C13      1.0000 0.87490  0.74970  0.29460  Biso   1.000  C
  C14      1.0000 0.88120  0.44060  0.33910  Biso   1.000  C
  N2       1.0000 0.92810  0.85620  0.27930  Biso   1.000  N
  H2       1.0000 0.86310  0.72600  0.33270  Biso   1.000  H
  C15      1.0000 0.93380  0.49150  0.40040  Biso   1.000  C
  C16      1.0000 0.95530  0.59620  0.41860  Biso   1.000  C
  C17      1.0000 0.94810  0.41630  0.43340  Biso   1.000  C
  C18      1.0000 0.99450  0.62490  0.47490  Biso   1.000  C
  C19      1.0000 0.98930  0.44810  0.48960  Biso   1.000  C
  C20      1.0000 0.93260  0.44230  0.39960  Biso   1.000  C
  C21      1.0000 0.94900  0.53280  0.43270  Biso   1.000  C
  C22      1.0000 0.98960  0.54080  0.48890  Biso   1.000  C
  C23      1.0000 0.99460  0.37020  0.47560  Biso   1.000  C
  C24      1.0000 0.95450  0.36040  0.41960  Biso   1.000  C
  Cl2      1.0000 0.07600  0.92300  0.39190  Biso   1.000  Cl
  O5       1.0000 0.48710  0.34980  0.31750  Biso   1.000  O
  O6       1.0000 0.48650  0.13750  0.31740  Biso   1.000  O
  C25      1.0000 0.25030  0.12520  0.29460  Biso   1.000  C
  C26      1.0000 0.55940  0.44060  0.33910  Biso   1.000  C
  N3       1.0000 0.14380  0.07190  0.27930  Biso   1.000  N
  H3       1.0000 0.27400  0.13710  0.33270  Biso   1.000  H
  C27      1.0000 0.50850  0.44230  0.40040  Biso   1.000  C
  C28      1.0000 0.40380  0.35910  0.41860  Biso   1.000  C
  C29      1.0000 0.58370  0.53180  0.43340  Biso   1.000  C
  C30      1.0000 0.37510  0.36960  0.47490  Biso   1.000  C
  C31      1.0000 0.55190  0.54120  0.48960  Biso   1.000  C
  C32      1.0000 0.55770  0.49030  0.39960  Biso   1.000  C
  C33      1.0000 0.46720  0.41620  0.43270  Biso   1.000  C
  C34      1.0000 0.45920  0.44880  0.48890  Biso   1.000  C
  C35      1.0000 0.62980  0.62440  0.47560  Biso   1.000  C
  C36      1.0000 0.63960  0.59410  0.41960  Biso   1.000  C
  O7       1.0000 0.86270  0.34980  0.18250  Biso   1.000  O
  O8       1.0000 0.65100  0.13750  0.18260  Biso   1.000  O
  C37      1.0000 0.87490  0.12520  0.20540  Biso   1.000  C
  C38      1.0000 0.88120  0.44060  0.16090  Biso   1.000  C
  N4       1.0000 0.92810  0.07190  0.22070  Biso   1.000  N
  H4       1.0000 0.86310  0.13710  0.16730  Biso   1.000  H
  C39      1.0000 0.93380  0.44230  0.09960  Biso   1.000  C
  C40      1.0000 0.95530  0.35910  0.08140  Biso   1.000  C
  C41      1.0000 0.94810  0.53180  0.06660  Biso   1.000  C
  C42      1.0000 0.99450  0.36960  0.02510  Biso   1.000  C
  C43      1.0000 0.98930  0.54120  0.01040  Biso   1.000  C
  C44      1.0000 0.93260  0.49030  0.10040  Biso   1.000  C
  C45      1.0000 0.94900  0.41620  0.06730  Biso   1.000  C
  C46      1.0000 0.98960  0.44880  0.01110  Biso   1.000  C
  C47      1.0000 0.99460  0.62440  0.02440  Biso   1.000  C
  C48      1.0000 0.95450  0.59410  0.08040  Biso   1.000  C
  Cl3      1.0000 0.07600  0.15300  0.10810  Biso   1.000  Cl
  O9       1.0000 0.48710  0.13730  0.18250  Biso   1.000  O
  O10      1.0000 0.48650  0.34900  0.18260  Biso   1.000  O
  C49      1.0000 0.25030  0.12510  0.20540  Biso   1.000  C
  C50      1.0000 0.55940  0.11880  0.16090  Biso   1.000  C
  N5       1.0000 0.14380  0.07190  0.22070  Biso   1.000  N
  H5       1.0000 0.27400  0.13690  0.16730  Biso   1.000  H
  C51      1.0000 0.50850  0.06620  0.09960  Biso   1.000  C
  C52      1.0000 0.40380  0.04470  0.08140  Biso   1.000  C
  C53      1.0000 0.58370  0.05190  0.06660  Biso   1.000  C
  C54      1.0000 0.37510  0.00550  0.02510  Biso   1.000  C
  C55      1.0000 0.55190  0.01070  0.01040  Biso   1.000  C
  C56      1.0000 0.55770  0.06740  0.10040  Biso   1.000  C
  C57      1.0000 0.46720  0.05100  0.06730  Biso   1.000  C
  C58      1.0000 0.45920  0.01040  0.01110  Biso   1.000  C
  C59      1.0000 0.62980  0.00540  0.02440  Biso   1.000  C
  C60      1.0000 0.63960  0.04550  0.08040  Biso   1.000  C
  Cl4      1.0000 0.07700  0.92400  0.10810  Biso   1.000  Cl
  O11      1.0000 0.65020  0.51290  0.18250  Biso   1.000  O
  O12      1.0000 0.86250  0.51350  0.18260  Biso   1.000  O
  C61      1.0000 0.87480  0.74970  0.20540  Biso   1.000  C
  C62      1.0000 0.55940  0.44060  0.16090  Biso   1.000  C
  N6       1.0000 0.92810  0.85620  0.22070  Biso   1.000  N
  H6       1.0000 0.86290  0.72600  0.16730  Biso   1.000  H
  C63      1.0000 0.55770  0.49150  0.09960  Biso   1.000  C
  C64      1.0000 0.64090  0.59620  0.08140  Biso   1.000  C
  C65      1.0000 0.46820  0.41630  0.06660  Biso   1.000  C
  C66      1.0000 0.63040  0.62490  0.02510  Biso   1.000  C
  C67      1.0000 0.45880  0.44810  0.01040  Biso   1.000  C
  C68      1.0000 0.50970  0.44230  0.10040  Biso   1.000  C
  C69      1.0000 0.58380  0.53280  0.06730  Biso   1.000  C
  C70      1.0000 0.55120  0.54080  0.01110  Biso   1.000  C
  C71      1.0000 0.37560  0.37020  0.02440  Biso   1.000  C
  C72      1.0000 0.40590  0.36040  0.08040  Biso   1.000  C
  O13      1.0000 0.34980  0.86270  0.68250  Biso   1.000  O
  O14      1.0000 0.13750  0.65100  0.68260  Biso   1.000  O
  C73      1.0000 0.12520  0.87490  0.70540  Biso   1.000  C
  C74      1.0000 0.44060  0.88120  0.66090  Biso   1.000  C
  N7       1.0000 0.07190  0.92810  0.72070  Biso   1.000  N
  H7       1.0000 0.13710  0.86310  0.66730  Biso   1.000  H
  C75      1.0000 0.44230  0.93380  0.59960  Biso   1.000  C
  C76      1.0000 0.35910  0.95530  0.58140  Biso   1.000  C
  C77      1.0000 0.53180  0.94810  0.56660  Biso   1.000  C
  C78      1.0000 0.36960  0.99450  0.52510  Biso   1.000  C
  C79      1.0000 0.54120  0.98930  0.51040  Biso   1.000  C
  C80      1.0000 0.49030  0.93260  0.60040  Biso   1.000  C
  C81      1.0000 0.41620  0.94900  0.56730  Biso   1.000  C
  C82      1.0000 0.44880  0.98960  0.51110  Biso   1.000  C
  C83      1.0000 0.62440  0.99460  0.52440  Biso   1.000  C
  C84      1.0000 0.59410  0.95450  0.58040  Biso   1.000  C
  Cl5      1.0000 0.15300  0.07600  0.60810  Biso   1.000  Cl
  O15      1.0000 0.13730  0.48710  0.68250  Biso   1.000  O
  O16      1.0000 0.34900  0.48650  0.68260  Biso   1.000  O
  C85      1.0000 0.12510  0.25030  0.70540  Biso   1.000  C
  C86      1.0000 0.11880  0.55940  0.66090  Biso   1.000  C
  N8       1.0000 0.07190  0.14380  0.72070  Biso   1.000  N
  H8       1.0000 0.13690  0.27400  0.66730  Biso   1.000  H
  C87      1.0000 0.06620  0.50850  0.59960  Biso   1.000  C
  C88      1.0000 0.04470  0.40380  0.58140  Biso   1.000  C
  C89      1.0000 0.05190  0.58370  0.56660  Biso   1.000  C
  C90      1.0000 0.00550  0.37510  0.52510  Biso   1.000  C
  C91      1.0000 0.01070  0.55190  0.51040  Biso   1.000  C
  C92      1.0000 0.06740  0.55770  0.60040  Biso   1.000  C
  C93      1.0000 0.05100  0.46720  0.56730  Biso   1.000  C
  C94      1.0000 0.01040  0.45920  0.51110  Biso   1.000  C
  C95      1.0000 0.00540  0.62980  0.52440  Biso   1.000  C
  C96      1.0000 0.04550  0.63960  0.58040  Biso   1.000  C
  Cl6      1.0000 0.92400  0.07700  0.60810  Biso   1.000  Cl
  O17      1.0000 0.51290  0.65020  0.68250  Biso   1.000  O
  O18      1.0000 0.51350  0.86250  0.68260  Biso   1.000  O
  C97      1.0000 0.74970  0.87480  0.70540  Biso   1.000  C
  C98      1.0000 0.44060  0.55940  0.66090  Biso   1.000  C
  N9       1.0000 0.85620  0.92810  0.72070  Biso   1.000  N
  H9       1.0000 0.72600  0.86290  0.66730  Biso   1.000  H
  C99      1.0000 0.49150  0.55770  0.59960  Biso   1.000  C
  C100     1.0000 0.59620  0.64090  0.58140  Biso   1.000  C
  C101     1.0000 0.41630  0.46820  0.56660  Biso   1.000  C
  C102     1.0000 0.62490  0.63040  0.52510  Biso   1.000  C
  C103     1.0000 0.44810  0.45880  0.51040  Biso   1.000  C
  C104     1.0000 0.44230  0.50970  0.60040  Biso   1.000  C
  C105     1.0000 0.53280  0.58380  0.56730  Biso   1.000  C
  C106     1.0000 0.54080  0.55120  0.51110  Biso   1.000  C
  C107     1.0000 0.37020  0.37560  0.52440  Biso   1.000  C
  C108     1.0000 0.36040  0.40590  0.58040  Biso   1.000  C
  O19      1.0000 0.13730  0.65020  0.81750  Biso   1.000  O
  O20      1.0000 0.34900  0.86250  0.81740  Biso   1.000  O
  C109     1.0000 0.12510  0.87480  0.79460  Biso   1.000  C
  C110     1.0000 0.11880  0.55940  0.83910  Biso   1.000  C
  N10      1.0000 0.07190  0.92810  0.77930  Biso   1.000  N
  H10      1.0000 0.13690  0.86290  0.83270  Biso   1.000  H
  C111     1.0000 0.06620  0.55770  0.90040  Biso   1.000  C
  C112     1.0000 0.04470  0.64090  0.91860  Biso   1.000  C
  C113     1.0000 0.05190  0.46820  0.93340  Biso   1.000  C
  C114     1.0000 0.00550  0.63040  0.97490  Biso   1.000  C
  C115     1.0000 0.01070  0.45880  0.98960  Biso   1.000  C
  C116     1.0000 0.06740  0.50970  0.89960  Biso   1.000  C
  C117     1.0000 0.05100  0.58380  0.93270  Biso   1.000  C
  C118     1.0000 0.01040  0.55120  0.98890  Biso   1.000  C
  C119     1.0000 0.00540  0.37560  0.97560  Biso   1.000  C
  C120     1.0000 0.04550  0.40590  0.91960  Biso   1.000  C
  Cl7      1.0000 0.92400  0.84700  0.89190  Biso   1.000  Cl
  O21      1.0000 0.51290  0.86270  0.81750  Biso   1.000  O
  O22      1.0000 0.51350  0.65100  0.81740  Biso   1.000  O
  C121     1.0000 0.74970  0.87490  0.79460  Biso   1.000  C
  C122     1.0000 0.44060  0.88120  0.83910  Biso   1.000  C
  N11      1.0000 0.85620  0.92810  0.77930  Biso   1.000  N
  H11      1.0000 0.72600  0.86310  0.83270  Biso   1.000  H
  C123     1.0000 0.49150  0.93380  0.90040  Biso   1.000  C
  C124     1.0000 0.59620  0.95530  0.91860  Biso   1.000  C
  C125     1.0000 0.41630  0.94810  0.93340  Biso   1.000  C
  C126     1.0000 0.62490  0.99450  0.97490  Biso   1.000  C
  C127     1.0000 0.44810  0.98930  0.98960  Biso   1.000  C
  C128     1.0000 0.44230  0.93260  0.89960  Biso   1.000  C
  C129     1.0000 0.53280  0.94900  0.93270  Biso   1.000  C
  C130     1.0000 0.54080  0.98960  0.98890  Biso   1.000  C
  C131     1.0000 0.37020  0.99460  0.97560  Biso   1.000  C
  C132     1.0000 0.36040  0.95450  0.91960  Biso   1.000  C
  Cl8      1.0000 0.92300  0.07600  0.89190  Biso   1.000  Cl
  O23      1.0000 0.34980  0.48710  0.81750  Biso   1.000  O
  O24      1.0000 0.13750  0.48650  0.81740  Biso   1.000  O
  C133     1.0000 0.12520  0.25030  0.79460  Biso   1.000  C
  C134     1.0000 0.44060  0.55940  0.83910  Biso   1.000  C
  N12      1.0000 0.07190  0.14380  0.77930  Biso   1.000  N
  H12      1.0000 0.13710  0.27400  0.83270  Biso   1.000  H
  C135     1.0000 0.44230  0.50850  0.90040  Biso   1.000  C
  C136     1.0000 0.35910  0.40380  0.91860  Biso   1.000  C
  C137     1.0000 0.53180  0.58370  0.93340  Biso   1.000  C
  C138     1.0000 0.36960  0.37510  0.97490  Biso   1.000  C
  C139     1.0000 0.54120  0.55190  0.98960  Biso   1.000  C
  C140     1.0000 0.49030  0.55770  0.89960  Biso   1.000  C
  C141     1.0000 0.41620  0.46720  0.93270  Biso   1.000  C
  C142     1.0000 0.44880  0.45920  0.98890  Biso   1.000  C
  C143     1.0000 0.62440  0.62980  0.97560  Biso   1.000  C
  C144     1.0000 0.59410  0.63960  0.91960  Biso   1.000  C
  In1      1.0000 0.75120  0.24880  0.25000  Biso   1.000  In
  N13      1.0000 0.84020  0.15980  0.25000  Biso   1.000  N
  In2      1.0000 0.75120  0.50240  0.25000  Biso   1.000  In
  N14      1.0000 0.84020  0.68040  0.25000  Biso   1.000  N
  In3      1.0000 0.49760  0.24880  0.25000  Biso   1.000  In
  N15      1.0000 0.31960  0.15980  0.25000  Biso   1.000  N
  In4      1.0000 0.24880  0.75120  0.75000  Biso   1.000  In
  N16      1.0000 0.15980  0.84020  0.75000  Biso   1.000  N
  In5      1.0000 0.24880  0.49760  0.75000  Biso   1.000  In
  N17      1.0000 0.15980  0.31960  0.75000  Biso   1.000  N
  In6      1.0000 0.50240  0.75120  0.75000  Biso   1.000  In
  N18      1.0000 0.68040  0.84020  0.75000  Biso   1.000  N
  O25      1.0000 0.66667  0.33333  0.25000  Biso   1.000  O
  O26      1.0000 0.33333  0.66667  0.75000  Biso   1.000  O
  Co1      1.0000 0.00000  0.00000  0.33266  Biso   1.000  Co
  Co2      1.0000 0.00000  0.00000  0.16734  Biso   1.000  Co
  Co3      1.0000 0.00000  0.00000  0.66734  Biso   1.000  Co
  Co4      1.0000 0.00000  0.00000  0.83266  Biso   1.000  Co
