data_image0
_cell_length_a       20.888
_cell_length_b       22.219
_cell_length_c       7.8466
_cell_angle_alpha    90
_cell_angle_beta     90
_cell_angle_gamma    90

_symmetry_space_group_name_H-M    "P 1"
_symmetry_int_tables_number       1

loop_
  _symmetry_equiv_pos_as_xyz
  'x, y, z'

loop_
  _atom_site_label
  _atom_site_occupancy
  _atom_site_fract_x
  _atom_site_fract_y
  _atom_site_fract_z
  _atom_site_thermal_displace_type
  _atom_site_B_iso_or_equiv
  _atom_site_type_symbol
  S1       1.0000 0.35310  0.65503  0.61109  Biso   1.000  S
  C1       1.0000 0.40430  0.60640  0.73490  Biso   1.000  C
  C2       1.0000 0.33490  0.60937  0.42270  Biso   1.000  C
  H1       1.0000 0.38170  0.56880  0.76040  Biso   1.000  H
  H2       1.0000 0.41600  0.62650  0.84160  Biso   1.000  H
  H3       1.0000 0.44320  0.59740  0.66980  Biso   1.000  H
  H4       1.0000 0.30940  0.63370  0.34190  Biso   1.000  H
  H5       1.0000 0.37550  0.59840  0.36540  Biso   1.000  H
  C3       1.0000 0.29878  0.55307  0.46460  Biso   1.000  C
  C4       1.0000 0.23220  0.55286  0.46700  Biso   1.000  C
  H6       1.0000 0.20940  0.58910  0.44600  Biso   1.000  H
  F1       1.0000 0.35050  0.69170  0.03860  Biso   1.000  F
  F2       1.0000 0.29050  0.70010  0.05780  Biso   1.000  F
  F3       1.0000 0.35700  0.78040  0.19100  Biso   1.000  F
  F4       1.0000 0.31700  0.68920  0.10000  Biso   1.000  F
  F5       1.0000 0.27010  0.77730  0.00900  Biso   1.000  F
  S2       1.0000 0.85310  0.15503  0.11109  Biso   1.000  S
  C5       1.0000 0.90430  0.10640  0.23490  Biso   1.000  C
  C6       1.0000 0.83490  0.10937  0.92270  Biso   1.000  C
  H7       1.0000 0.88170  0.06880  0.26040  Biso   1.000  H
  H8       1.0000 0.91600  0.12650  0.34160  Biso   1.000  H
  H9       1.0000 0.94320  0.09740  0.16980  Biso   1.000  H
  H10      1.0000 0.80940  0.13370  0.84190  Biso   1.000  H
  H11      1.0000 0.87550  0.09840  0.86540  Biso   1.000  H
  C7       1.0000 0.79878  0.05307  0.96460  Biso   1.000  C
  C8       1.0000 0.73220  0.05286  0.96700  Biso   1.000  C
  H12      1.0000 0.70940  0.08910  0.94600  Biso   1.000  H
  F6       1.0000 0.85050  0.19170  0.53860  Biso   1.000  F
  F7       1.0000 0.79050  0.20010  0.55780  Biso   1.000  F
  F8       1.0000 0.85700  0.28040  0.69100  Biso   1.000  F
  F9       1.0000 0.81700  0.18920  0.60000  Biso   1.000  F
  F10      1.0000 0.77010  0.27730  0.50900  Biso   1.000  F
  S3       1.0000 0.64690  0.84497  0.61109  Biso   1.000  S
  C9       1.0000 0.59570  0.89360  0.73490  Biso   1.000  C
  C10      1.0000 0.66510  0.89063  0.42270  Biso   1.000  C
  H13      1.0000 0.61830  0.93120  0.76040  Biso   1.000  H
  H14      1.0000 0.58400  0.87350  0.84160  Biso   1.000  H
  H15      1.0000 0.55680  0.90260  0.66980  Biso   1.000  H
  H16      1.0000 0.69060  0.86630  0.34190  Biso   1.000  H
  H17      1.0000 0.62450  0.90160  0.36540  Biso   1.000  H
  C11      1.0000 0.70122  0.94693  0.46460  Biso   1.000  C
  C12      1.0000 0.76780  0.94714  0.46700  Biso   1.000  C
  H18      1.0000 0.79060  0.91090  0.44600  Biso   1.000  H
  F11      1.0000 0.64950  0.80830  0.03860  Biso   1.000  F
  F12      1.0000 0.70950  0.79990  0.05780  Biso   1.000  F
  F13      1.0000 0.64300  0.71960  0.19100  Biso   1.000  F
  F14      1.0000 0.68300  0.81080  0.10000  Biso   1.000  F
  F15      1.0000 0.72990  0.72270  0.00900  Biso   1.000  F
  S4       1.0000 0.14690  0.34497  0.11109  Biso   1.000  S
  C13      1.0000 0.09570  0.39360  0.23490  Biso   1.000  C
  C14      1.0000 0.16510  0.39063  0.92270  Biso   1.000  C
  H19      1.0000 0.11830  0.43120  0.26040  Biso   1.000  H
  H20      1.0000 0.08400  0.37350  0.34160  Biso   1.000  H
  H21      1.0000 0.05680  0.40260  0.16980  Biso   1.000  H
  H22      1.0000 0.19060  0.36630  0.84190  Biso   1.000  H
  H23      1.0000 0.12450  0.40160  0.86540  Biso   1.000  H
  C15      1.0000 0.20122  0.44693  0.96460  Biso   1.000  C
  C16      1.0000 0.26780  0.44714  0.96700  Biso   1.000  C
  H24      1.0000 0.29060  0.41090  0.94600  Biso   1.000  H
  F16      1.0000 0.14950  0.30830  0.53860  Biso   1.000  F
  F17      1.0000 0.20950  0.29990  0.55780  Biso   1.000  F
  F18      1.0000 0.14300  0.21960  0.69100  Biso   1.000  F
  F19      1.0000 0.18300  0.31080  0.60000  Biso   1.000  F
  F20      1.0000 0.22990  0.22270  0.50900  Biso   1.000  F
  S5       1.0000 0.64690  0.15503  0.38891  Biso   1.000  S
  C17      1.0000 0.59570  0.10640  0.26510  Biso   1.000  C
  C18      1.0000 0.66510  0.10937  0.57730  Biso   1.000  C
  H25      1.0000 0.61830  0.06880  0.23960  Biso   1.000  H
  H26      1.0000 0.58400  0.12650  0.15840  Biso   1.000  H
  H27      1.0000 0.55680  0.09740  0.33020  Biso   1.000  H
  H28      1.0000 0.69060  0.13370  0.65810  Biso   1.000  H
  H29      1.0000 0.62450  0.09840  0.63460  Biso   1.000  H
  C19      1.0000 0.70122  0.05307  0.53540  Biso   1.000  C
  C20      1.0000 0.76780  0.05286  0.53300  Biso   1.000  C
  H30      1.0000 0.79060  0.08910  0.55400  Biso   1.000  H
  F21      1.0000 0.64950  0.19170  0.96140  Biso   1.000  F
  F22      1.0000 0.70950  0.20010  0.94220  Biso   1.000  F
  F23      1.0000 0.64300  0.28040  0.80900  Biso   1.000  F
  F24      1.0000 0.68300  0.18920  0.90000  Biso   1.000  F
  F25      1.0000 0.72990  0.27730  0.99100  Biso   1.000  F
  S6       1.0000 0.14690  0.65503  0.88891  Biso   1.000  S
  C21      1.0000 0.09570  0.60640  0.76510  Biso   1.000  C
  C22      1.0000 0.16510  0.60937  0.07730  Biso   1.000  C
  H31      1.0000 0.11830  0.56880  0.73960  Biso   1.000  H
  H32      1.0000 0.08400  0.62650  0.65840  Biso   1.000  H
  H33      1.0000 0.05680  0.59740  0.83020  Biso   1.000  H
  H34      1.0000 0.19060  0.63370  0.15810  Biso   1.000  H
  H35      1.0000 0.12450  0.59840  0.13460  Biso   1.000  H
  C23      1.0000 0.20122  0.55307  0.03540  Biso   1.000  C
  C24      1.0000 0.26780  0.55286  0.03300  Biso   1.000  C
  H36      1.0000 0.29060  0.58910  0.05400  Biso   1.000  H
  F26      1.0000 0.14950  0.69170  0.46140  Biso   1.000  F
  F27      1.0000 0.20950  0.70010  0.44220  Biso   1.000  F
  F28      1.0000 0.14300  0.78040  0.30900  Biso   1.000  F
  F29      1.0000 0.18300  0.68920  0.40000  Biso   1.000  F
  F30      1.0000 0.22990  0.77730  0.49100  Biso   1.000  F
  S7       1.0000 0.35310  0.34497  0.38891  Biso   1.000  S
  C25      1.0000 0.40430  0.39360  0.26510  Biso   1.000  C
  C26      1.0000 0.33490  0.39063  0.57730  Biso   1.000  C
  H37      1.0000 0.38170  0.43120  0.23960  Biso   1.000  H
  H38      1.0000 0.41600  0.37350  0.15840  Biso   1.000  H
  H39      1.0000 0.44320  0.40260  0.33020  Biso   1.000  H
  H40      1.0000 0.30940  0.36630  0.65810  Biso   1.000  H
  H41      1.0000 0.37550  0.40160  0.63460  Biso   1.000  H
  C27      1.0000 0.29878  0.44693  0.53540  Biso   1.000  C
  C28      1.0000 0.23220  0.44714  0.53300  Biso   1.000  C
  H42      1.0000 0.20940  0.41090  0.55400  Biso   1.000  H
  F31      1.0000 0.35050  0.30830  0.96140  Biso   1.000  F
  F32      1.0000 0.29050  0.29990  0.94220  Biso   1.000  F
  F33      1.0000 0.35700  0.21960  0.80900  Biso   1.000  F
  F34      1.0000 0.31700  0.31080  0.90000  Biso   1.000  F
  F35      1.0000 0.27010  0.22270  0.99100  Biso   1.000  F
  S8       1.0000 0.85310  0.84497  0.88891  Biso   1.000  S
  C29      1.0000 0.90430  0.89360  0.76510  Biso   1.000  C
  C30      1.0000 0.83490  0.89063  0.07730  Biso   1.000  C
  H43      1.0000 0.88170  0.93120  0.73960  Biso   1.000  H
  H44      1.0000 0.91600  0.87350  0.65840  Biso   1.000  H
  H45      1.0000 0.94320  0.90260  0.83020  Biso   1.000  H
  H46      1.0000 0.80940  0.86630  0.15810  Biso   1.000  H
  H47      1.0000 0.87550  0.90160  0.13460  Biso   1.000  H
  C31      1.0000 0.79878  0.94693  0.03540  Biso   1.000  C
  C32      1.0000 0.73220  0.94714  0.03300  Biso   1.000  C
  H48      1.0000 0.70940  0.91090  0.05400  Biso   1.000  H
  F36      1.0000 0.85050  0.80830  0.46140  Biso   1.000  F
  F37      1.0000 0.79050  0.79990  0.44220  Biso   1.000  F
  F38      1.0000 0.85700  0.71960  0.30900  Biso   1.000  F
  F39      1.0000 0.81700  0.81080  0.40000  Biso   1.000  F
  F40      1.0000 0.77010  0.72270  0.49100  Biso   1.000  F
  S9       1.0000 0.64690  0.34497  0.38891  Biso   1.000  S
  C33      1.0000 0.59570  0.39360  0.26510  Biso   1.000  C
  C34      1.0000 0.66510  0.39063  0.57730  Biso   1.000  C
  H49      1.0000 0.61830  0.43120  0.23960  Biso   1.000  H
  H50      1.0000 0.58400  0.37350  0.15840  Biso   1.000  H
  H51      1.0000 0.55680  0.40260  0.33020  Biso   1.000  H
  H52      1.0000 0.69060  0.36630  0.65810  Biso   1.000  H
  H53      1.0000 0.62450  0.40160  0.63460  Biso   1.000  H
  C35      1.0000 0.70122  0.44693  0.53540  Biso   1.000  C
  C36      1.0000 0.76780  0.44714  0.53300  Biso   1.000  C
  H54      1.0000 0.79060  0.41090  0.55400  Biso   1.000  H
  F41      1.0000 0.64950  0.30830  0.96140  Biso   1.000  F
  F42      1.0000 0.70950  0.29990  0.94220  Biso   1.000  F
  F43      1.0000 0.64300  0.21960  0.80900  Biso   1.000  F
  F44      1.0000 0.68300  0.31080  0.90000  Biso   1.000  F
  F45      1.0000 0.72990  0.22270  0.99100  Biso   1.000  F
  S10      1.0000 0.14690  0.84497  0.88891  Biso   1.000  S
  C37      1.0000 0.09570  0.89360  0.76510  Biso   1.000  C
  C38      1.0000 0.16510  0.89063  0.07730  Biso   1.000  C
  H55      1.0000 0.11830  0.93120  0.73960  Biso   1.000  H
  H56      1.0000 0.08400  0.87350  0.65840  Biso   1.000  H
  H57      1.0000 0.05680  0.90260  0.83020  Biso   1.000  H
  H58      1.0000 0.19060  0.86630  0.15810  Biso   1.000  H
  H59      1.0000 0.12450  0.90160  0.13460  Biso   1.000  H
  C39      1.0000 0.20122  0.94693  0.03540  Biso   1.000  C
  C40      1.0000 0.26780  0.94714  0.03300  Biso   1.000  C
  H60      1.0000 0.29060  0.91090  0.05400  Biso   1.000  H
  F46      1.0000 0.14950  0.80830  0.46140  Biso   1.000  F
  F47      1.0000 0.20950  0.79990  0.44220  Biso   1.000  F
  F48      1.0000 0.14300  0.71960  0.30900  Biso   1.000  F
  F49      1.0000 0.18300  0.81080  0.40000  Biso   1.000  F
  F50      1.0000 0.22990  0.72270  0.49100  Biso   1.000  F
  S11      1.0000 0.35310  0.15503  0.38891  Biso   1.000  S
  C41      1.0000 0.40430  0.10640  0.26510  Biso   1.000  C
  C42      1.0000 0.33490  0.10937  0.57730  Biso   1.000  C
  H61      1.0000 0.38170  0.06880  0.23960  Biso   1.000  H
  H62      1.0000 0.41600  0.12650  0.15840  Biso   1.000  H
  H63      1.0000 0.44320  0.09740  0.33020  Biso   1.000  H
  H64      1.0000 0.30940  0.13370  0.65810  Biso   1.000  H
  H65      1.0000 0.37550  0.09840  0.63460  Biso   1.000  H
  C43      1.0000 0.29878  0.05307  0.53540  Biso   1.000  C
  C44      1.0000 0.23220  0.05286  0.53300  Biso   1.000  C
  H66      1.0000 0.20940  0.08910  0.55400  Biso   1.000  H
  F51      1.0000 0.35050  0.19170  0.96140  Biso   1.000  F
  F52      1.0000 0.29050  0.20010  0.94220  Biso   1.000  F
  F53      1.0000 0.35700  0.28040  0.80900  Biso   1.000  F
  F54      1.0000 0.31700  0.18920  0.90000  Biso   1.000  F
  F55      1.0000 0.27010  0.27730  0.99100  Biso   1.000  F
  S12      1.0000 0.85310  0.65503  0.88891  Biso   1.000  S
  C45      1.0000 0.90430  0.60640  0.76510  Biso   1.000  C
  C46      1.0000 0.83490  0.60937  0.07730  Biso   1.000  C
  H67      1.0000 0.88170  0.56880  0.73960  Biso   1.000  H
  H68      1.0000 0.91600  0.62650  0.65840  Biso   1.000  H
  H69      1.0000 0.94320  0.59740  0.83020  Biso   1.000  H
  H70      1.0000 0.80940  0.63370  0.15810  Biso   1.000  H
  H71      1.0000 0.87550  0.59840  0.13460  Biso   1.000  H
  C47      1.0000 0.79878  0.55307  0.03540  Biso   1.000  C
  C48      1.0000 0.73220  0.55286  0.03300  Biso   1.000  C
  H72      1.0000 0.70940  0.58910  0.05400  Biso   1.000  H
  F56      1.0000 0.85050  0.69170  0.46140  Biso   1.000  F
  F57      1.0000 0.79050  0.70010  0.44220  Biso   1.000  F
  F58      1.0000 0.85700  0.78040  0.30900  Biso   1.000  F
  F59      1.0000 0.81700  0.68920  0.40000  Biso   1.000  F
  F60      1.0000 0.77010  0.77730  0.49100  Biso   1.000  F
  S13      1.0000 0.35310  0.84497  0.61109  Biso   1.000  S
  C49      1.0000 0.40430  0.89360  0.73490  Biso   1.000  C
  C50      1.0000 0.33490  0.89063  0.42270  Biso   1.000  C
  H73      1.0000 0.38170  0.93120  0.76040  Biso   1.000  H
  H74      1.0000 0.41600  0.87350  0.84160  Biso   1.000  H
  H75      1.0000 0.44320  0.90260  0.66980  Biso   1.000  H
  H76      1.0000 0.30940  0.86630  0.34190  Biso   1.000  H
  H77      1.0000 0.37550  0.90160  0.36540  Biso   1.000  H
  C51      1.0000 0.29878  0.94693  0.46460  Biso   1.000  C
  C52      1.0000 0.23220  0.94714  0.46700  Biso   1.000  C
  H78      1.0000 0.20940  0.91090  0.44600  Biso   1.000  H
  F61      1.0000 0.35050  0.80830  0.03860  Biso   1.000  F
  F62      1.0000 0.29050  0.79990  0.05780  Biso   1.000  F
  F63      1.0000 0.35700  0.71960  0.19100  Biso   1.000  F
  F64      1.0000 0.31700  0.81080  0.10000  Biso   1.000  F
  F65      1.0000 0.27010  0.72270  0.00900  Biso   1.000  F
  S14      1.0000 0.85310  0.34497  0.11109  Biso   1.000  S
  C53      1.0000 0.90430  0.39360  0.23490  Biso   1.000  C
  C54      1.0000 0.83490  0.39063  0.92270  Biso   1.000  C
  H79      1.0000 0.88170  0.43120  0.26040  Biso   1.000  H
  H80      1.0000 0.91600  0.37350  0.34160  Biso   1.000  H
  H81      1.0000 0.94320  0.40260  0.16980  Biso   1.000  H
  H82      1.0000 0.80940  0.36630  0.84190  Biso   1.000  H
  H83      1.0000 0.87550  0.40160  0.86540  Biso   1.000  H
  C55      1.0000 0.79878  0.44693  0.96460  Biso   1.000  C
  C56      1.0000 0.73220  0.44714  0.96700  Biso   1.000  C
  H84      1.0000 0.70940  0.41090  0.94600  Biso   1.000  H
  F66      1.0000 0.85050  0.30830  0.53860  Biso   1.000  F
  F67      1.0000 0.79050  0.29990  0.55780  Biso   1.000  F
  F68      1.0000 0.85700  0.21960  0.69100  Biso   1.000  F
  F69      1.0000 0.81700  0.31080  0.60000  Biso   1.000  F
  F70      1.0000 0.77010  0.22270  0.50900  Biso   1.000  F
  S15      1.0000 0.64690  0.65503  0.61109  Biso   1.000  S
  C57      1.0000 0.59570  0.60640  0.73490  Biso   1.000  C
  C58      1.0000 0.66510  0.60937  0.42270  Biso   1.000  C
  H85      1.0000 0.61830  0.56880  0.76040  Biso   1.000  H
  H86      1.0000 0.58400  0.62650  0.84160  Biso   1.000  H
  H87      1.0000 0.55680  0.59740  0.66980  Biso   1.000  H
  H88      1.0000 0.69060  0.63370  0.34190  Biso   1.000  H
  H89      1.0000 0.62450  0.59840  0.36540  Biso   1.000  H
  C59      1.0000 0.70122  0.55307  0.46460  Biso   1.000  C
  C60      1.0000 0.76780  0.55286  0.46700  Biso   1.000  C
  H90      1.0000 0.79060  0.58910  0.44600  Biso   1.000  H
  F71      1.0000 0.64950  0.69170  0.03860  Biso   1.000  F
  F72      1.0000 0.70950  0.70010  0.05780  Biso   1.000  F
  F73      1.0000 0.64300  0.78040  0.19100  Biso   1.000  F
  F74      1.0000 0.68300  0.68920  0.10000  Biso   1.000  F
  F75      1.0000 0.72990  0.77730  0.00900  Biso   1.000  F
  S16      1.0000 0.14690  0.15503  0.11109  Biso   1.000  S
  C61      1.0000 0.09570  0.10640  0.23490  Biso   1.000  C
  C62      1.0000 0.16510  0.10937  0.92270  Biso   1.000  C
  H91      1.0000 0.11830  0.06880  0.26040  Biso   1.000  H
  H92      1.0000 0.08400  0.12650  0.34160  Biso   1.000  H
  H93      1.0000 0.05680  0.09740  0.16980  Biso   1.000  H
  H94      1.0000 0.19060  0.13370  0.84190  Biso   1.000  H
  H95      1.0000 0.12450  0.09840  0.86540  Biso   1.000  H
  C63      1.0000 0.20122  0.05307  0.96460  Biso   1.000  C
  C64      1.0000 0.26780  0.05286  0.96700  Biso   1.000  C
  H96      1.0000 0.29060  0.08910  0.94600  Biso   1.000  H
  F76      1.0000 0.14950  0.19170  0.53860  Biso   1.000  F
  F77      1.0000 0.20950  0.20010  0.55780  Biso   1.000  F
  F78      1.0000 0.14300  0.28040  0.69100  Biso   1.000  F
  F79      1.0000 0.18300  0.18920  0.60000  Biso   1.000  F
  F80      1.0000 0.22990  0.27730  0.50900  Biso   1.000  F
  Ag1      1.0000 0.25000  0.66253  0.75000  Biso   1.000  Ag
  Ag2      1.0000 0.75000  0.83747  0.75000  Biso   1.000  Ag
  Ag3      1.0000 0.75000  0.16253  0.25000  Biso   1.000  Ag
  Ag4      1.0000 0.25000  0.33747  0.25000  Biso   1.000  Ag
  Ag5      1.0000 0.75000  0.33747  0.25000  Biso   1.000  Ag
  Ag6      1.0000 0.25000  0.16253  0.25000  Biso   1.000  Ag
  Ag7      1.0000 0.25000  0.83747  0.75000  Biso   1.000  Ag
  Ag8      1.0000 0.75000  0.66253  0.75000  Biso   1.000  Ag
  Ag9      1.0000 0.41336  0.75000  0.53243  Biso   1.000  Ag
  B1       1.0000 0.33000  0.75000  0.07270  Biso   1.000  B
  F81      1.0000 0.26660  0.75000  0.01830  Biso   1.000  F
  F82      1.0000 0.32680  0.75000  0.25070  Biso   1.000  F
  Ag10     1.0000 0.39760  0.75000  0.46880  Biso   1.000  Ag
  B2       1.0000 0.33030  0.75000  0.06500  Biso   1.000  B
  F83      1.0000 0.37280  0.75000  0.92870  Biso   1.000  F
  F84      1.0000 0.36350  0.75000  0.21870  Biso   1.000  F
  B3       1.0000 0.32870  0.75000  0.05300  Biso   1.000  B
  F85      1.0000 0.37020  0.75000  0.91100  Biso   1.000  F
  Ag11     1.0000 0.91336  0.25000  0.03243  Biso   1.000  Ag
  B4       1.0000 0.83000  0.25000  0.57270  Biso   1.000  B
  F86      1.0000 0.76660  0.25000  0.51830  Biso   1.000  F
  F87      1.0000 0.82680  0.25000  0.75070  Biso   1.000  F
  Ag12     1.0000 0.89760  0.25000  0.96880  Biso   1.000  Ag
  B5       1.0000 0.83030  0.25000  0.56500  Biso   1.000  B
  F88      1.0000 0.87280  0.25000  0.42870  Biso   1.000  F
  F89      1.0000 0.86350  0.25000  0.71870  Biso   1.000  F
  B6       1.0000 0.82870  0.25000  0.55300  Biso   1.000  B
  F90      1.0000 0.87020  0.25000  0.41100  Biso   1.000  F
  Ag13     1.0000 0.58664  0.75000  0.53243  Biso   1.000  Ag
  B7       1.0000 0.67000  0.75000  0.07270  Biso   1.000  B
  F91      1.0000 0.73340  0.75000  0.01830  Biso   1.000  F
  F92      1.0000 0.67320  0.75000  0.25070  Biso   1.000  F
  Ag14     1.0000 0.60240  0.75000  0.46880  Biso   1.000  Ag
  B8       1.0000 0.66970  0.75000  0.06500  Biso   1.000  B
  F93      1.0000 0.62720  0.75000  0.92870  Biso   1.000  F
  F94      1.0000 0.63650  0.75000  0.21870  Biso   1.000  F
  B9       1.0000 0.67130  0.75000  0.05300  Biso   1.000  B
  F95      1.0000 0.62980  0.75000  0.91100  Biso   1.000  F
  Ag15     1.0000 0.08664  0.25000  0.03243  Biso   1.000  Ag
  B10      1.0000 0.17000  0.25000  0.57270  Biso   1.000  B
  F96      1.0000 0.23340  0.25000  0.51830  Biso   1.000  F
  F97      1.0000 0.17320  0.25000  0.75070  Biso   1.000  F
  Ag16     1.0000 0.10240  0.25000  0.96880  Biso   1.000  Ag
  B11      1.0000 0.16970  0.25000  0.56500  Biso   1.000  B
  F98      1.0000 0.12720  0.25000  0.42870  Biso   1.000  F
  F99      1.0000 0.13650  0.25000  0.71870  Biso   1.000  F
  B12      1.0000 0.17130  0.25000  0.55300  Biso   1.000  B
  F100     1.0000 0.12980  0.25000  0.41100  Biso   1.000  F
  Ag17     1.0000 0.58664  0.25000  0.46757  Biso   1.000  Ag
  B13      1.0000 0.67000  0.25000  0.92730  Biso   1.000  B
  F101     1.0000 0.73340  0.25000  0.98170  Biso   1.000  F
  F102     1.0000 0.67320  0.25000  0.74930  Biso   1.000  F
  Ag18     1.0000 0.60240  0.25000  0.53120  Biso   1.000  Ag
  B14      1.0000 0.66970  0.25000  0.93500  Biso   1.000  B
  F103     1.0000 0.62720  0.25000  0.07130  Biso   1.000  F
  F104     1.0000 0.63650  0.25000  0.78130  Biso   1.000  F
  B15      1.0000 0.67130  0.25000  0.94700  Biso   1.000  B
  F105     1.0000 0.62980  0.25000  0.08900  Biso   1.000  F
  Ag19     1.0000 0.08664  0.75000  0.96757  Biso   1.000  Ag
  B16      1.0000 0.17000  0.75000  0.42730  Biso   1.000  B
  F106     1.0000 0.23340  0.75000  0.48170  Biso   1.000  F
  F107     1.0000 0.17320  0.75000  0.24930  Biso   1.000  F
  Ag20     1.0000 0.10240  0.75000  0.03120  Biso   1.000  Ag
  B17      1.0000 0.16970  0.75000  0.43500  Biso   1.000  B
  F108     1.0000 0.12720  0.75000  0.57130  Biso   1.000  F
  F109     1.0000 0.13650  0.75000  0.28130  Biso   1.000  F
  B18      1.0000 0.17130  0.75000  0.44700  Biso   1.000  B
  F110     1.0000 0.12980  0.75000  0.58900  Biso   1.000  F
  Ag21     1.0000 0.41336  0.25000  0.46757  Biso   1.000  Ag
  B19      1.0000 0.33000  0.25000  0.92730  Biso   1.000  B
  F111     1.0000 0.26660  0.25000  0.98170  Biso   1.000  F
  F112     1.0000 0.32680  0.25000  0.74930  Biso   1.000  F
  Ag22     1.0000 0.39760  0.25000  0.53120  Biso   1.000  Ag
  B20      1.0000 0.33030  0.25000  0.93500  Biso   1.000  B
  F113     1.0000 0.37280  0.25000  0.07130  Biso   1.000  F
  F114     1.0000 0.36350  0.25000  0.78130  Biso   1.000  F
  B21      1.0000 0.32870  0.25000  0.94700  Biso   1.000  B
  F115     1.0000 0.37020  0.25000  0.08900  Biso   1.000  F
  Ag23     1.0000 0.91336  0.75000  0.96757  Biso   1.000  Ag
  B22      1.0000 0.83000  0.75000  0.42730  Biso   1.000  B
  F116     1.0000 0.76660  0.75000  0.48170  Biso   1.000  F
  F117     1.0000 0.82680  0.75000  0.24930  Biso   1.000  F
  Ag24     1.0000 0.89760  0.75000  0.03120  Biso   1.000  Ag
  B23      1.0000 0.83030  0.75000  0.43500  Biso   1.000  B
  F118     1.0000 0.87280  0.75000  0.57130  Biso   1.000  F
  F119     1.0000 0.86350  0.75000  0.28130  Biso   1.000  F
  B24      1.0000 0.82870  0.75000  0.44700  Biso   1.000  B
  F120     1.0000 0.87020  0.75000  0.58900  Biso   1.000  F
  O1       1.0000 0.50000  0.76270  0.34810  Biso   1.000  O
  O2       1.0000 0.00000  0.26270  0.84810  Biso   1.000  O
  O3       1.0000 0.50000  0.73730  0.34810  Biso   1.000  O
  O4       1.0000 0.00000  0.23730  0.84810  Biso   1.000  O
  O5       1.0000 0.50000  0.26270  0.65190  Biso   1.000  O
  O6       1.0000 0.00000  0.76270  0.15190  Biso   1.000  O
  O7       1.0000 0.50000  0.23730  0.65190  Biso   1.000  O
  O8       1.0000 0.00000  0.73730  0.15190  Biso   1.000  O
  C65      1.0000 0.33160  0.50000  0.50000  Biso   1.000  C
  C66      1.0000 0.19870  0.50000  0.50000  Biso   1.000  C
  H97      1.0000 0.37710  0.50000  0.50000  Biso   1.000  H
  H98      1.0000 0.15320  0.50000  0.50000  Biso   1.000  H
  C67      1.0000 0.83160  0.00000  0.00000  Biso   1.000  C
  C68      1.0000 0.69870  0.00000  0.00000  Biso   1.000  C
  H99      1.0000 0.87710  0.00000  0.00000  Biso   1.000  H
  H100     1.0000 0.65320  0.00000  0.00000  Biso   1.000  H
  C69      1.0000 0.66840  0.00000  0.50000  Biso   1.000  C
  C70      1.0000 0.80130  0.00000  0.50000  Biso   1.000  C
  H101     1.0000 0.62290  0.00000  0.50000  Biso   1.000  H
  H102     1.0000 0.84680  0.00000  0.50000  Biso   1.000  H
  C71      1.0000 0.16840  0.50000  0.00000  Biso   1.000  C
  C72      1.0000 0.30130  0.50000  0.00000  Biso   1.000  C
  H103     1.0000 0.12290  0.50000  0.00000  Biso   1.000  H
  H104     1.0000 0.34680  0.50000  0.00000  Biso   1.000  H
  C73      1.0000 0.66840  0.50000  0.50000  Biso   1.000  C
  C74      1.0000 0.80130  0.50000  0.50000  Biso   1.000  C
  H105     1.0000 0.62290  0.50000  0.50000  Biso   1.000  H
  H106     1.0000 0.84680  0.50000  0.50000  Biso   1.000  H
  C75      1.0000 0.16840  0.00000  0.00000  Biso   1.000  C
  C76      1.0000 0.30130  0.00000  0.00000  Biso   1.000  C
  H107     1.0000 0.12290  0.00000  0.00000  Biso   1.000  H
  H108     1.0000 0.34680  0.00000  0.00000  Biso   1.000  H
  C77      1.0000 0.33160  0.00000  0.50000  Biso   1.000  C
  C78      1.0000 0.19870  0.00000  0.50000  Biso   1.000  C
  H109     1.0000 0.37710  0.00000  0.50000  Biso   1.000  H
  H110     1.0000 0.15320  0.00000  0.50000  Biso   1.000  H
  C79      1.0000 0.83160  0.50000  0.00000  Biso   1.000  C
  C80      1.0000 0.69870  0.50000  0.00000  Biso   1.000  C
  H111     1.0000 0.87710  0.50000  0.00000  Biso   1.000  H
  H112     1.0000 0.65320  0.50000  0.00000  Biso   1.000  H
