data_image0
_cell_length_a       29.1925
_cell_length_b       10.4327
_cell_length_c       26.0659
_cell_angle_alpha    90
_cell_angle_beta     114.234
_cell_angle_gamma    90

_symmetry_space_group_name_H-M    "P 1"
_symmetry_int_tables_number       1

loop_
  _symmetry_equiv_pos_as_xyz
  'x, y, z'

loop_
  _atom_site_label
  _atom_site_occupancy
  _atom_site_fract_x
  _atom_site_fract_y
  _atom_site_fract_z
  _atom_site_thermal_displace_type
  _atom_site_B_iso_or_equiv
  _atom_site_type_symbol
  Zn1      1.0000 0.82105  0.62583  0.25321  Biso   1.000  Zn
  K1       1.0000 0.77328  0.36410  0.31356  Biso   1.000  K
  O1       1.0000 0.10660  0.78770  0.27510  Biso   1.000  O
  O2       1.0000 0.18547  0.73010  0.31273  Biso   1.000  O
  O3       1.0000 0.06676  0.03280  0.28620  Biso   1.000  O
  O4       1.0000 0.03240  0.90790  0.32930  Biso   1.000  O
  O5       1.0000 0.20350  0.38960  0.67000  Biso   1.000  O
  O6       1.0000 0.19605  0.21070  0.70860  Biso   1.000  O
  O7       1.0000 0.27870  0.02190  0.70913  Biso   1.000  O
  O8       1.0000 0.21275  0.89230  0.67946  Biso   1.000  O
  O9       1.0000 0.00487  0.19780  0.31907  Biso   1.000  O
  O10      1.0000 0.94497  0.33430  0.27007  Biso   1.000  O
  O11      1.0000 0.88815  0.56660  0.30267  Biso   1.000  O
  O12      1.0000 0.86424  0.36810  0.31123  Biso   1.000  O
  C1       1.0000 0.17630  0.99770  0.46730  Biso   1.000  C
  C2       1.0000 0.13050  0.00710  0.42110  Biso   1.000  C
  H1       1.0000 0.10580  0.06090  0.42310  Biso   1.000  H
  C3       1.0000 0.12034  0.93840  0.37190  Biso   1.000  C
  C4       1.0000 0.15782  0.85950  0.36830  Biso   1.000  C
  C5       1.0000 0.20340  0.85150  0.41420  Biso   1.000  C
  H2       1.0000 0.22830  0.79920  0.41210  Biso   1.000  H
  C6       1.0000 0.21320  0.91890  0.46350  Biso   1.000  C
  H3       1.0000 0.24420  0.91150  0.49380  Biso   1.000  H
  C7       1.0000 0.06890  0.95680  0.32510  Biso   1.000  C
  C8       1.0000 0.14790  0.77870  0.31700  Biso   1.000  C
  C9       1.0000 0.18530  0.06870  0.51970  Biso   1.000  C
  C10      1.0000 0.20495  0.00540  0.57159  Biso   1.000  C
  H4       1.0000 0.21350  0.91930  0.57280  Biso   1.000  H
  C11      1.0000 0.21204  0.06760  0.62124  Biso   1.000  C
  C12      1.0000 0.19940  0.19730  0.61960  Biso   1.000  C
  C13      1.0000 0.18140  0.26210  0.56880  Biso   1.000  C
  H5       1.0000 0.17420  0.34910  0.56800  Biso   1.000  H
  C14      1.0000 0.17380  0.19880  0.51920  Biso   1.000  C
  H6       1.0000 0.16100  0.24340  0.48530  Biso   1.000  H
  C15      1.0000 0.23448  0.98840  0.67411  Biso   1.000  C
  C16      1.0000 0.20080  0.26970  0.67010  Biso   1.000  C
  C17      1.0000 0.99640  0.47010  0.47260  Biso   1.000  C
  C18      1.0000 0.95333  0.49130  0.42410  Biso   1.000  C
  H7       1.0000 0.92870  0.54540  0.42580  Biso   1.000  H
  C19      1.0000 0.94567  0.43420  0.37280  Biso   1.000  C
  C20      1.0000 0.98200  0.35350  0.36930  Biso   1.000  C
  C21      1.0000 0.02480  0.33180  0.41760  Biso   1.000  C
  H8       1.0000 0.04930  0.27680  0.41600  Biso   1.000  H
  C22      1.0000 0.03230  0.38920  0.46820  Biso   1.000  C
  H9       1.0000 0.06190  0.37330  0.49970  Biso   1.000  H
  C23      1.0000 0.89525  0.45540  0.32420  Biso   1.000  C
  C24      1.0000 0.97600  0.29190  0.31510  Biso   1.000  C
  O13      1.0000 0.10340  0.74040  0.29010  Biso   1.000  O
  Zn2      1.0000 0.32105  0.12583  0.25321  Biso   1.000  Zn
  K2       1.0000 0.27328  0.86410  0.31356  Biso   1.000  K
  O14      1.0000 0.60660  0.28770  0.27510  Biso   1.000  O
  O15      1.0000 0.68547  0.23010  0.31273  Biso   1.000  O
  O16      1.0000 0.56676  0.53280  0.28620  Biso   1.000  O
  O17      1.0000 0.53240  0.40790  0.32930  Biso   1.000  O
  O18      1.0000 0.70350  0.88960  0.67000  Biso   1.000  O
  O19      1.0000 0.69605  0.71070  0.70860  Biso   1.000  O
  O20      1.0000 0.77870  0.52190  0.70913  Biso   1.000  O
  O21      1.0000 0.71275  0.39230  0.67946  Biso   1.000  O
  O22      1.0000 0.50487  0.69780  0.31907  Biso   1.000  O
  O23      1.0000 0.44497  0.83430  0.27007  Biso   1.000  O
  O24      1.0000 0.38815  0.06660  0.30267  Biso   1.000  O
  O25      1.0000 0.36424  0.86810  0.31123  Biso   1.000  O
  C25      1.0000 0.67630  0.49770  0.46730  Biso   1.000  C
  C26      1.0000 0.63050  0.50710  0.42110  Biso   1.000  C
  H10      1.0000 0.60580  0.56090  0.42310  Biso   1.000  H
  C27      1.0000 0.62034  0.43840  0.37190  Biso   1.000  C
  C28      1.0000 0.65782  0.35950  0.36830  Biso   1.000  C
  C29      1.0000 0.70340  0.35150  0.41420  Biso   1.000  C
  H11      1.0000 0.72830  0.29920  0.41210  Biso   1.000  H
  C30      1.0000 0.71320  0.41890  0.46350  Biso   1.000  C
  H12      1.0000 0.74420  0.41150  0.49380  Biso   1.000  H
  C31      1.0000 0.56890  0.45680  0.32510  Biso   1.000  C
  C32      1.0000 0.64790  0.27870  0.31700  Biso   1.000  C
  C33      1.0000 0.68530  0.56870  0.51970  Biso   1.000  C
  C34      1.0000 0.70495  0.50540  0.57159  Biso   1.000  C
  H13      1.0000 0.71350  0.41930  0.57280  Biso   1.000  H
  C35      1.0000 0.71204  0.56760  0.62124  Biso   1.000  C
  C36      1.0000 0.69940  0.69730  0.61960  Biso   1.000  C
  C37      1.0000 0.68140  0.76210  0.56880  Biso   1.000  C
  H14      1.0000 0.67420  0.84910  0.56800  Biso   1.000  H
  C38      1.0000 0.67380  0.69880  0.51920  Biso   1.000  C
  H15      1.0000 0.66100  0.74340  0.48530  Biso   1.000  H
  C39      1.0000 0.73448  0.48840  0.67411  Biso   1.000  C
  C40      1.0000 0.70080  0.76970  0.67010  Biso   1.000  C
  C41      1.0000 0.49640  0.97010  0.47260  Biso   1.000  C
  C42      1.0000 0.45333  0.99130  0.42410  Biso   1.000  C
  H16      1.0000 0.42870  0.04540  0.42580  Biso   1.000  H
  C43      1.0000 0.44567  0.93420  0.37280  Biso   1.000  C
  C44      1.0000 0.48200  0.85350  0.36930  Biso   1.000  C
  C45      1.0000 0.52480  0.83180  0.41760  Biso   1.000  C
  H17      1.0000 0.54930  0.77680  0.41600  Biso   1.000  H
  C46      1.0000 0.53230  0.88920  0.46820  Biso   1.000  C
  H18      1.0000 0.56190  0.87330  0.49970  Biso   1.000  H
  C47      1.0000 0.39525  0.95540  0.32420  Biso   1.000  C
  C48      1.0000 0.47600  0.79190  0.31510  Biso   1.000  C
  O26      1.0000 0.60340  0.24040  0.29010  Biso   1.000  O
  Zn3      1.0000 0.17895  0.62583  0.24679  Biso   1.000  Zn
  K3       1.0000 0.22672  0.36410  0.18644  Biso   1.000  K
  O27      1.0000 0.89340  0.78770  0.22490  Biso   1.000  O
  O28      1.0000 0.81453  0.73010  0.18727  Biso   1.000  O
  O29      1.0000 0.93324  0.03280  0.21380  Biso   1.000  O
  O30      1.0000 0.96760  0.90790  0.17070  Biso   1.000  O
  O31      1.0000 0.79650  0.38960  0.83000  Biso   1.000  O
  O32      1.0000 0.80395  0.21070  0.79140  Biso   1.000  O
  O33      1.0000 0.72130  0.02190  0.79087  Biso   1.000  O
  O34      1.0000 0.78725  0.89230  0.82054  Biso   1.000  O
  O35      1.0000 0.99513  0.19780  0.18093  Biso   1.000  O
  O36      1.0000 0.05503  0.33430  0.22993  Biso   1.000  O
  O37      1.0000 0.11185  0.56660  0.19733  Biso   1.000  O
  O38      1.0000 0.13576  0.36810  0.18877  Biso   1.000  O
  C49      1.0000 0.82370  0.99770  0.03270  Biso   1.000  C
  C50      1.0000 0.86950  0.00710  0.07890  Biso   1.000  C
  H19      1.0000 0.89420  0.06090  0.07690  Biso   1.000  H
  C51      1.0000 0.87966  0.93840  0.12810  Biso   1.000  C
  C52      1.0000 0.84218  0.85950  0.13170  Biso   1.000  C
  C53      1.0000 0.79660  0.85150  0.08580  Biso   1.000  C
  H20      1.0000 0.77170  0.79920  0.08790  Biso   1.000  H
  C54      1.0000 0.78680  0.91890  0.03650  Biso   1.000  C
  H21      1.0000 0.75580  0.91150  0.00620  Biso   1.000  H
  C55      1.0000 0.93110  0.95680  0.17490  Biso   1.000  C
  C56      1.0000 0.85210  0.77870  0.18300  Biso   1.000  C
  C57      1.0000 0.81470  0.06870  0.98030  Biso   1.000  C
  C58      1.0000 0.79505  0.00540  0.92841  Biso   1.000  C
  H22      1.0000 0.78650  0.91930  0.92720  Biso   1.000  H
  C59      1.0000 0.78796  0.06760  0.87876  Biso   1.000  C
  C60      1.0000 0.80060  0.19730  0.88040  Biso   1.000  C
  C61      1.0000 0.81860  0.26210  0.93120  Biso   1.000  C
  H23      1.0000 0.82580  0.34910  0.93200  Biso   1.000  H
  C62      1.0000 0.82620  0.19880  0.98080  Biso   1.000  C
  H24      1.0000 0.83900  0.24340  0.01470  Biso   1.000  H
  C63      1.0000 0.76552  0.98840  0.82589  Biso   1.000  C
  C64      1.0000 0.79920  0.26970  0.82990  Biso   1.000  C
  C65      1.0000 0.00360  0.47010  0.02740  Biso   1.000  C
  C66      1.0000 0.04667  0.49130  0.07590  Biso   1.000  C
  H25      1.0000 0.07130  0.54540  0.07420  Biso   1.000  H
  C67      1.0000 0.05433  0.43420  0.12720  Biso   1.000  C
  C68      1.0000 0.01800  0.35350  0.13070  Biso   1.000  C
  C69      1.0000 0.97520  0.33180  0.08240  Biso   1.000  C
  H26      1.0000 0.95070  0.27680  0.08400  Biso   1.000  H
  C70      1.0000 0.96770  0.38920  0.03180  Biso   1.000  C
  H27      1.0000 0.93810  0.37330  0.00030  Biso   1.000  H
  C71      1.0000 0.10475  0.45540  0.17580  Biso   1.000  C
  C72      1.0000 0.02400  0.29190  0.18490  Biso   1.000  C
  O39      1.0000 0.89660  0.74040  0.20990  Biso   1.000  O
  Zn4      1.0000 0.67895  0.12583  0.24679  Biso   1.000  Zn
  K4       1.0000 0.72672  0.86410  0.18644  Biso   1.000  K
  O40      1.0000 0.39340  0.28770  0.22490  Biso   1.000  O
  O41      1.0000 0.31453  0.23010  0.18727  Biso   1.000  O
  O42      1.0000 0.43324  0.53280  0.21380  Biso   1.000  O
  O43      1.0000 0.46760  0.40790  0.17070  Biso   1.000  O
  O44      1.0000 0.29650  0.88960  0.83000  Biso   1.000  O
  O45      1.0000 0.30395  0.71070  0.79140  Biso   1.000  O
  O46      1.0000 0.22130  0.52190  0.79087  Biso   1.000  O
  O47      1.0000 0.28725  0.39230  0.82054  Biso   1.000  O
  O48      1.0000 0.49513  0.69780  0.18093  Biso   1.000  O
  O49      1.0000 0.55503  0.83430  0.22993  Biso   1.000  O
  O50      1.0000 0.61185  0.06660  0.19733  Biso   1.000  O
  O51      1.0000 0.63576  0.86810  0.18877  Biso   1.000  O
  C73      1.0000 0.32370  0.49770  0.03270  Biso   1.000  C
  C74      1.0000 0.36950  0.50710  0.07890  Biso   1.000  C
  H28      1.0000 0.39420  0.56090  0.07690  Biso   1.000  H
  C75      1.0000 0.37966  0.43840  0.12810  Biso   1.000  C
  C76      1.0000 0.34218  0.35950  0.13170  Biso   1.000  C
  C77      1.0000 0.29660  0.35150  0.08580  Biso   1.000  C
  H29      1.0000 0.27170  0.29920  0.08790  Biso   1.000  H
  C78      1.0000 0.28680  0.41890  0.03650  Biso   1.000  C
  H30      1.0000 0.25580  0.41150  0.00620  Biso   1.000  H
  C79      1.0000 0.43110  0.45680  0.17490  Biso   1.000  C
  C80      1.0000 0.35210  0.27870  0.18300  Biso   1.000  C
  C81      1.0000 0.31470  0.56870  0.98030  Biso   1.000  C
  C82      1.0000 0.29505  0.50540  0.92841  Biso   1.000  C
  H31      1.0000 0.28650  0.41930  0.92720  Biso   1.000  H
  C83      1.0000 0.28796  0.56760  0.87876  Biso   1.000  C
  C84      1.0000 0.30060  0.69730  0.88040  Biso   1.000  C
  C85      1.0000 0.31860  0.76210  0.93120  Biso   1.000  C
  H32      1.0000 0.32580  0.84910  0.93200  Biso   1.000  H
  C86      1.0000 0.32620  0.69880  0.98080  Biso   1.000  C
  H33      1.0000 0.33900  0.74340  0.01470  Biso   1.000  H
  C87      1.0000 0.26552  0.48840  0.82589  Biso   1.000  C
  C88      1.0000 0.29920  0.76970  0.82990  Biso   1.000  C
  C89      1.0000 0.50360  0.97010  0.02740  Biso   1.000  C
  C90      1.0000 0.54667  0.99130  0.07590  Biso   1.000  C
  H34      1.0000 0.57130  0.04540  0.07420  Biso   1.000  H
  C91      1.0000 0.55433  0.93420  0.12720  Biso   1.000  C
  C92      1.0000 0.51800  0.85350  0.13070  Biso   1.000  C
  C93      1.0000 0.47520  0.83180  0.08240  Biso   1.000  C
  H35      1.0000 0.45070  0.77680  0.08400  Biso   1.000  H
  C94      1.0000 0.46770  0.88920  0.03180  Biso   1.000  C
  H36      1.0000 0.43810  0.87330  0.00030  Biso   1.000  H
  C95      1.0000 0.60475  0.95540  0.17580  Biso   1.000  C
  C96      1.0000 0.52400  0.79190  0.18490  Biso   1.000  C
  O52      1.0000 0.39660  0.24040  0.20990  Biso   1.000  O
  Zn5      1.0000 0.17895  0.37417  0.74679  Biso   1.000  Zn
  K5       1.0000 0.22672  0.63590  0.68644  Biso   1.000  K
  O53      1.0000 0.89340  0.21230  0.72490  Biso   1.000  O
  O54      1.0000 0.81453  0.26990  0.68727  Biso   1.000  O
  O55      1.0000 0.93324  0.96720  0.71380  Biso   1.000  O
  O56      1.0000 0.96760  0.09210  0.67070  Biso   1.000  O
  O57      1.0000 0.79650  0.61040  0.33000  Biso   1.000  O
  O58      1.0000 0.80395  0.78930  0.29140  Biso   1.000  O
  O59      1.0000 0.72130  0.97810  0.29087  Biso   1.000  O
  O60      1.0000 0.78725  0.10770  0.32054  Biso   1.000  O
  O61      1.0000 0.99513  0.80220  0.68093  Biso   1.000  O
  O62      1.0000 0.05503  0.66570  0.72993  Biso   1.000  O
  O63      1.0000 0.11185  0.43340  0.69733  Biso   1.000  O
  O64      1.0000 0.13576  0.63190  0.68877  Biso   1.000  O
  C97      1.0000 0.82370  0.00230  0.53270  Biso   1.000  C
  C98      1.0000 0.86950  0.99290  0.57890  Biso   1.000  C
  H37      1.0000 0.89420  0.93910  0.57690  Biso   1.000  H
  C99      1.0000 0.87966  0.06160  0.62810  Biso   1.000  C
  C100     1.0000 0.84218  0.14050  0.63170  Biso   1.000  C
  C101     1.0000 0.79660  0.14850  0.58580  Biso   1.000  C
  H38      1.0000 0.77170  0.20080  0.58790  Biso   1.000  H
  C102     1.0000 0.78680  0.08110  0.53650  Biso   1.000  C
  H39      1.0000 0.75580  0.08850  0.50620  Biso   1.000  H
  C103     1.0000 0.93110  0.04320  0.67490  Biso   1.000  C
  C104     1.0000 0.85210  0.22130  0.68300  Biso   1.000  C
  C105     1.0000 0.81470  0.93130  0.48030  Biso   1.000  C
  C106     1.0000 0.79505  0.99460  0.42841  Biso   1.000  C
  H40      1.0000 0.78650  0.08070  0.42720  Biso   1.000  H
  C107     1.0000 0.78796  0.93240  0.37876  Biso   1.000  C
  C108     1.0000 0.80060  0.80270  0.38040  Biso   1.000  C
  C109     1.0000 0.81860  0.73790  0.43120  Biso   1.000  C
  H41      1.0000 0.82580  0.65090  0.43200  Biso   1.000  H
  C110     1.0000 0.82620  0.80120  0.48080  Biso   1.000  C
  H42      1.0000 0.83900  0.75660  0.51470  Biso   1.000  H
  C111     1.0000 0.76552  0.01160  0.32589  Biso   1.000  C
  C112     1.0000 0.79920  0.73030  0.32990  Biso   1.000  C
  C113     1.0000 0.00360  0.52990  0.52740  Biso   1.000  C
  C114     1.0000 0.04667  0.50870  0.57590  Biso   1.000  C
  H43      1.0000 0.07130  0.45460  0.57420  Biso   1.000  H
  C115     1.0000 0.05433  0.56580  0.62720  Biso   1.000  C
  C116     1.0000 0.01800  0.64650  0.63070  Biso   1.000  C
  C117     1.0000 0.97520  0.66820  0.58240  Biso   1.000  C
  H44      1.0000 0.95070  0.72320  0.58400  Biso   1.000  H
  C118     1.0000 0.96770  0.61080  0.53180  Biso   1.000  C
  H45      1.0000 0.93810  0.62670  0.50030  Biso   1.000  H
  C119     1.0000 0.10475  0.54460  0.67580  Biso   1.000  C
  C120     1.0000 0.02400  0.70810  0.68490  Biso   1.000  C
  O65      1.0000 0.89660  0.25960  0.70990  Biso   1.000  O
  Zn6      1.0000 0.67895  0.87417  0.74679  Biso   1.000  Zn
  K6       1.0000 0.72672  0.13590  0.68644  Biso   1.000  K
  O66      1.0000 0.39340  0.71230  0.72490  Biso   1.000  O
  O67      1.0000 0.31453  0.76990  0.68727  Biso   1.000  O
  O68      1.0000 0.43324  0.46720  0.71380  Biso   1.000  O
  O69      1.0000 0.46760  0.59210  0.67070  Biso   1.000  O
  O70      1.0000 0.29650  0.11040  0.33000  Biso   1.000  O
  O71      1.0000 0.30395  0.28930  0.29140  Biso   1.000  O
  O72      1.0000 0.22130  0.47810  0.29087  Biso   1.000  O
  O73      1.0000 0.28725  0.60770  0.32054  Biso   1.000  O
  O74      1.0000 0.49513  0.30220  0.68093  Biso   1.000  O
  O75      1.0000 0.55503  0.16570  0.72993  Biso   1.000  O
  O76      1.0000 0.61185  0.93340  0.69733  Biso   1.000  O
  O77      1.0000 0.63576  0.13190  0.68877  Biso   1.000  O
  C121     1.0000 0.32370  0.50230  0.53270  Biso   1.000  C
  C122     1.0000 0.36950  0.49290  0.57890  Biso   1.000  C
  H46      1.0000 0.39420  0.43910  0.57690  Biso   1.000  H
  C123     1.0000 0.37966  0.56160  0.62810  Biso   1.000  C
  C124     1.0000 0.34218  0.64050  0.63170  Biso   1.000  C
  C125     1.0000 0.29660  0.64850  0.58580  Biso   1.000  C
  H47      1.0000 0.27170  0.70080  0.58790  Biso   1.000  H
  C126     1.0000 0.28680  0.58110  0.53650  Biso   1.000  C
  H48      1.0000 0.25580  0.58850  0.50620  Biso   1.000  H
  C127     1.0000 0.43110  0.54320  0.67490  Biso   1.000  C
  C128     1.0000 0.35210  0.72130  0.68300  Biso   1.000  C
  C129     1.0000 0.31470  0.43130  0.48030  Biso   1.000  C
  C130     1.0000 0.29505  0.49460  0.42841  Biso   1.000  C
  H49      1.0000 0.28650  0.58070  0.42720  Biso   1.000  H
  C131     1.0000 0.28796  0.43240  0.37876  Biso   1.000  C
  C132     1.0000 0.30060  0.30270  0.38040  Biso   1.000  C
  C133     1.0000 0.31860  0.23790  0.43120  Biso   1.000  C
  H50      1.0000 0.32580  0.15090  0.43200  Biso   1.000  H
  C134     1.0000 0.32620  0.30120  0.48080  Biso   1.000  C
  H51      1.0000 0.33900  0.25660  0.51470  Biso   1.000  H
  C135     1.0000 0.26552  0.51160  0.32589  Biso   1.000  C
  C136     1.0000 0.29920  0.23030  0.32990  Biso   1.000  C
  C137     1.0000 0.50360  0.02990  0.52740  Biso   1.000  C
  C138     1.0000 0.54667  0.00870  0.57590  Biso   1.000  C
  H52      1.0000 0.57130  0.95460  0.57420  Biso   1.000  H
  C139     1.0000 0.55433  0.06580  0.62720  Biso   1.000  C
  C140     1.0000 0.51800  0.14650  0.63070  Biso   1.000  C
  C141     1.0000 0.47520  0.16820  0.58240  Biso   1.000  C
  H53      1.0000 0.45070  0.22320  0.58400  Biso   1.000  H
  C142     1.0000 0.46770  0.11080  0.53180  Biso   1.000  C
  H54      1.0000 0.43810  0.12670  0.50030  Biso   1.000  H
  C143     1.0000 0.60475  0.04460  0.67580  Biso   1.000  C
  C144     1.0000 0.52400  0.20810  0.68490  Biso   1.000  C
  O78      1.0000 0.39660  0.75960  0.70990  Biso   1.000  O
  Zn7      1.0000 0.82105  0.37417  0.75321  Biso   1.000  Zn
  K7       1.0000 0.77328  0.63590  0.81356  Biso   1.000  K
  O79      1.0000 0.10660  0.21230  0.77510  Biso   1.000  O
  O80      1.0000 0.18547  0.26990  0.81273  Biso   1.000  O
  O81      1.0000 0.06676  0.96720  0.78620  Biso   1.000  O
  O82      1.0000 0.03240  0.09210  0.82930  Biso   1.000  O
  O83      1.0000 0.20350  0.61040  0.17000  Biso   1.000  O
  O84      1.0000 0.19605  0.78930  0.20860  Biso   1.000  O
  O85      1.0000 0.27870  0.97810  0.20913  Biso   1.000  O
  O86      1.0000 0.21275  0.10770  0.17946  Biso   1.000  O
  O87      1.0000 0.00487  0.80220  0.81907  Biso   1.000  O
  O88      1.0000 0.94497  0.66570  0.77007  Biso   1.000  O
  O89      1.0000 0.88815  0.43340  0.80267  Biso   1.000  O
  O90      1.0000 0.86424  0.63190  0.81123  Biso   1.000  O
  C145     1.0000 0.17630  0.00230  0.96730  Biso   1.000  C
  C146     1.0000 0.13050  0.99290  0.92110  Biso   1.000  C
  H55      1.0000 0.10580  0.93910  0.92310  Biso   1.000  H
  C147     1.0000 0.12034  0.06160  0.87190  Biso   1.000  C
  C148     1.0000 0.15782  0.14050  0.86830  Biso   1.000  C
  C149     1.0000 0.20340  0.14850  0.91420  Biso   1.000  C
  H56      1.0000 0.22830  0.20080  0.91210  Biso   1.000  H
  C150     1.0000 0.21320  0.08110  0.96350  Biso   1.000  C
  H57      1.0000 0.24420  0.08850  0.99380  Biso   1.000  H
  C151     1.0000 0.06890  0.04320  0.82510  Biso   1.000  C
  C152     1.0000 0.14790  0.22130  0.81700  Biso   1.000  C
  C153     1.0000 0.18530  0.93130  0.01970  Biso   1.000  C
  C154     1.0000 0.20495  0.99460  0.07159  Biso   1.000  C
  H58      1.0000 0.21350  0.08070  0.07280  Biso   1.000  H
  C155     1.0000 0.21204  0.93240  0.12124  Biso   1.000  C
  C156     1.0000 0.19940  0.80270  0.11960  Biso   1.000  C
  C157     1.0000 0.18140  0.73790  0.06880  Biso   1.000  C
  H59      1.0000 0.17420  0.65090  0.06800  Biso   1.000  H
  C158     1.0000 0.17380  0.80120  0.01920  Biso   1.000  C
  H60      1.0000 0.16100  0.75660  0.98530  Biso   1.000  H
  C159     1.0000 0.23448  0.01160  0.17411  Biso   1.000  C
  C160     1.0000 0.20080  0.73030  0.17010  Biso   1.000  C
  C161     1.0000 0.99640  0.52990  0.97260  Biso   1.000  C
  C162     1.0000 0.95333  0.50870  0.92410  Biso   1.000  C
  H61      1.0000 0.92870  0.45460  0.92580  Biso   1.000  H
  C163     1.0000 0.94567  0.56580  0.87280  Biso   1.000  C
  C164     1.0000 0.98200  0.64650  0.86930  Biso   1.000  C
  C165     1.0000 0.02480  0.66820  0.91760  Biso   1.000  C
  H62      1.0000 0.04930  0.72320  0.91600  Biso   1.000  H
  C166     1.0000 0.03230  0.61080  0.96820  Biso   1.000  C
  H63      1.0000 0.06190  0.62670  0.99970  Biso   1.000  H
  C167     1.0000 0.89525  0.54460  0.82420  Biso   1.000  C
  C168     1.0000 0.97600  0.70810  0.81510  Biso   1.000  C
  O91      1.0000 0.10340  0.25960  0.79010  Biso   1.000  O
  Zn8      1.0000 0.32105  0.87417  0.75321  Biso   1.000  Zn
  K8       1.0000 0.27328  0.13590  0.81356  Biso   1.000  K
  O92      1.0000 0.60660  0.71230  0.77510  Biso   1.000  O
  O93      1.0000 0.68547  0.76990  0.81273  Biso   1.000  O
  O94      1.0000 0.56676  0.46720  0.78620  Biso   1.000  O
  O95      1.0000 0.53240  0.59210  0.82930  Biso   1.000  O
  O96      1.0000 0.70350  0.11040  0.17000  Biso   1.000  O
  O97      1.0000 0.69605  0.28930  0.20860  Biso   1.000  O
  O98      1.0000 0.77870  0.47810  0.20913  Biso   1.000  O
  O99      1.0000 0.71275  0.60770  0.17946  Biso   1.000  O
  O100     1.0000 0.50487  0.30220  0.81907  Biso   1.000  O
  O101     1.0000 0.44497  0.16570  0.77007  Biso   1.000  O
  O102     1.0000 0.38815  0.93340  0.80267  Biso   1.000  O
  O103     1.0000 0.36424  0.13190  0.81123  Biso   1.000  O
  C169     1.0000 0.67630  0.50230  0.96730  Biso   1.000  C
  C170     1.0000 0.63050  0.49290  0.92110  Biso   1.000  C
  H64      1.0000 0.60580  0.43910  0.92310  Biso   1.000  H
  C171     1.0000 0.62034  0.56160  0.87190  Biso   1.000  C
  C172     1.0000 0.65782  0.64050  0.86830  Biso   1.000  C
  C173     1.0000 0.70340  0.64850  0.91420  Biso   1.000  C
  H65      1.0000 0.72830  0.70080  0.91210  Biso   1.000  H
  C174     1.0000 0.71320  0.58110  0.96350  Biso   1.000  C
  H66      1.0000 0.74420  0.58850  0.99380  Biso   1.000  H
  C175     1.0000 0.56890  0.54320  0.82510  Biso   1.000  C
  C176     1.0000 0.64790  0.72130  0.81700  Biso   1.000  C
  C177     1.0000 0.68530  0.43130  0.01970  Biso   1.000  C
  C178     1.0000 0.70495  0.49460  0.07159  Biso   1.000  C
  H67      1.0000 0.71350  0.58070  0.07280  Biso   1.000  H
  C179     1.0000 0.71204  0.43240  0.12124  Biso   1.000  C
  C180     1.0000 0.69940  0.30270  0.11960  Biso   1.000  C
  C181     1.0000 0.68140  0.23790  0.06880  Biso   1.000  C
  H68      1.0000 0.67420  0.15090  0.06800  Biso   1.000  H
  C182     1.0000 0.67380  0.30120  0.01920  Biso   1.000  C
  H69      1.0000 0.66100  0.25660  0.98530  Biso   1.000  H
  C183     1.0000 0.73448  0.51160  0.17411  Biso   1.000  C
  C184     1.0000 0.70080  0.23030  0.17010  Biso   1.000  C
  C185     1.0000 0.49640  0.02990  0.97260  Biso   1.000  C
  C186     1.0000 0.45333  0.00870  0.92410  Biso   1.000  C
  H70      1.0000 0.42870  0.95460  0.92580  Biso   1.000  H
  C187     1.0000 0.44567  0.06580  0.87280  Biso   1.000  C
  C188     1.0000 0.48200  0.14650  0.86930  Biso   1.000  C
  C189     1.0000 0.52480  0.16820  0.91760  Biso   1.000  C
  H71      1.0000 0.54930  0.22320  0.91600  Biso   1.000  H
  C190     1.0000 0.53230  0.11080  0.96820  Biso   1.000  C
  H72      1.0000 0.56190  0.12670  0.99970  Biso   1.000  H
  C191     1.0000 0.39525  0.04460  0.82420  Biso   1.000  C
  C192     1.0000 0.47600  0.20810  0.81510  Biso   1.000  C
  O104     1.0000 0.60340  0.75960  0.79010  Biso   1.000  O
  Zn9      1.0000 0.00000  0.11405  0.25000  Biso   1.000  Zn
  Zn10     1.0000 0.50000  0.61405  0.25000  Biso   1.000  Zn
  Zn11     1.0000 0.00000  0.88595  0.75000  Biso   1.000  Zn
  Zn12     1.0000 0.50000  0.38595  0.75000  Biso   1.000  Zn
