data_image0
_cell_length_a       11.665
_cell_length_b       13.915
_cell_length_c       17.343
_cell_angle_alpha    95.514
_cell_angle_beta     99.792
_cell_angle_gamma    101.313

_symmetry_space_group_name_H-M    "P 1"
_symmetry_int_tables_number       1

loop_
  _symmetry_equiv_pos_as_xyz
  'x, y, z'

loop_
  _atom_site_label
  _atom_site_occupancy
  _atom_site_fract_x
  _atom_site_fract_y
  _atom_site_fract_z
  _atom_site_thermal_displace_type
  _atom_site_B_iso_or_equiv
  _atom_site_type_symbol
  Ce1      1.0000 0.84883  0.06065  0.00409  Biso   1.000  Ce
  O1       1.0000 0.70350  0.07890  0.08640  Biso   1.000  O
  O2       1.0000 0.33160  0.93820  0.09120  Biso   1.000  O
  O3       1.0000 0.97570  0.13320  0.92010  Biso   1.000  O
  O4       1.0000 0.66530  0.90150  0.99360  Biso   1.000  O
  O5       1.0000 0.89220  0.92850  0.92500  Biso   1.000  O
  O6       1.0000 0.10840  0.04620  0.89830  Biso   1.000  O
  O7       1.0000 0.99820  0.82330  0.89140  Biso   1.000  O
  N1       1.0000 0.12340  0.39110  0.52160  Biso   1.000  N
  N2       1.0000 0.17580  0.51810  0.40450  Biso   1.000  N
  N3       1.0000 0.34020  0.49910  0.62430  Biso   1.000  N
  N4       1.0000 0.39030  0.63000  0.50800  Biso   1.000  N
  C1       1.0000 0.09790  0.18110  0.82910  Biso   1.000  C
  C2       1.0000 0.61310  0.70070  0.70010  Biso   1.000  C
  C3       1.0000 0.90190  0.85600  0.88180  Biso   1.000  C
  C4       1.0000 0.38230  0.83920  0.19130  Biso   1.000  C
  C5       1.0000 0.21790  0.58080  0.35420  Biso   1.000  C
  C6       1.0000 0.80490  0.80340  0.81570  Biso   1.000  C
  C7       1.0000 0.16590  0.29920  0.71940  Biso   1.000  C
  C8       1.0000 0.07960  0.45380  0.36100  Biso   1.000  C
  C9       1.0000 0.28160  0.83550  0.22200  Biso   1.000  C
  H1       1.0000 0.22490  0.87210  0.20230  Biso   1.000  H
  C10      1.0000 0.05560  0.11520  0.88650  Biso   1.000  C
  C11      1.0000 0.60890  0.79140  0.73990  Biso   1.000  C
  H2       1.0000 0.54040  0.81840  0.72710  Biso   1.000  H
  C12      1.0000 0.04540  0.25800  0.81360  Biso   1.000  C
  H3       1.0000 0.98410  0.27060  0.84030  Biso   1.000  H
  C13      1.0000 0.29960  0.43550  0.67340  Biso   1.000  C
  C14      1.0000 0.92820  0.21750  0.29730  Biso   1.000  C
  H4       1.0000 0.99690  0.19540  0.31980  Biso   1.000  H
  C15      1.0000 0.70380  0.84250  0.79790  Biso   1.000  C
  H5       1.0000 0.70000  0.90390  0.82540  Biso   1.000  H
  C16      1.0000 0.37850  0.45930  0.75120  Biso   1.000  C
  H6       1.0000 0.37050  0.42620  0.79610  Biso   1.000  H
  C17      1.0000 0.34190  0.72220  0.31000  Biso   1.000  C
  C18      1.0000 0.05910  0.47410  0.27980  Biso   1.000  C
  H7       1.0000 0.99690  0.43920  0.23800  Biso   1.000  H
  C19      1.0000 0.50690  0.64140  0.64150  Biso   1.000  C
  C20      1.0000 0.40760  0.90020  0.12850  Biso   1.000  C
  C21      1.0000 0.00950  0.37460  0.38630  Biso   1.000  C
  C22      1.0000 0.26160  0.77820  0.28200  Biso   1.000  C
  H8       1.0000 0.19220  0.77750  0.30390  Biso   1.000  H
  C23      1.0000 0.46340  0.53640  0.74670  Biso   1.000  C
  H9       1.0000 0.52770  0.56920  0.78790  Biso   1.000  H
  C24      1.0000 0.11500  0.34050  0.58520  Biso   1.000  C
  C25      1.0000 0.14560  0.55220  0.27540  Biso   1.000  C
  H10      1.0000 0.15710  0.58250  0.22970  Biso   1.000  H
  C26      1.0000 0.19720  0.36260  0.65670  Biso   1.000  C
  C27      1.0000 0.84520  0.15730  0.23460  Biso   1.000  C
  H11      1.0000 0.85850  0.09590  0.21320  Biso   1.000  H
  C28      1.0000 0.44010  0.56080  0.66810  Biso   1.000  C
  C29      1.0000 0.46180  0.78380  0.21940  Biso   1.000  C
  H12      1.0000 0.53210  0.78600  0.19830  Biso   1.000  H
  C30      1.0000 0.50120  0.75830  0.46590  Biso   1.000  C
  H13      1.0000 0.52910  0.80510  0.43320  Biso   1.000  H
  C31      1.0000 0.91160  0.30760  0.32630  Biso   1.000  C
  C32      1.0000 0.74540  0.18870  0.20530  Biso   1.000  C
  C33      1.0000 0.80940  0.71780  0.77510  Biso   1.000  C
  H14      1.0000 0.87940  0.69240  0.78660  Biso   1.000  H
  C34      1.0000 0.31640  0.65860  0.37260  Biso   1.000  C
  C35      1.0000 0.21800  0.22130  0.73430  Biso   1.000  C
  H15      1.0000 0.27790  0.20790  0.70660  Biso   1.000  H
  C36      1.0000 0.71560  0.66470  0.71670  Biso   1.000  C
  H16      1.0000 0.72190  0.60450  0.68850  Biso   1.000  H
  C37      1.0000 0.44130  0.72430  0.27840  Biso   1.000  C
  H17      1.0000 0.49650  0.68550  0.29640  Biso   1.000  H
  C38      1.0000 0.01070  0.26620  0.56530  Biso   1.000  C
  H18      1.0000 0.98230  0.22140  0.59930  Biso   1.000  H
  C39      1.0000 0.39640  0.68020  0.44350  Biso   1.000  C
  C40      1.0000 0.48480  0.67350  0.56760  Biso   1.000  C
  C41      1.0000 0.02800  0.34760  0.46150  Biso   1.000  C
  C42      1.0000 0.55320  0.75420  0.54050  Biso   1.000  C
  H19      1.0000 0.62350  0.79780  0.56980  Biso   1.000  H
  C43      1.0000 0.18350  0.16200  0.78960  Biso   1.000  C
  H20      1.0000 0.21980  0.10800  0.79990  Biso   1.000  H
  C44      1.0000 0.72460  0.27550  0.23700  Biso   1.000  C
  H21      1.0000 0.65110  0.29310  0.21850  Biso   1.000  H
  C45      1.0000 0.80960  0.33940  0.29650  Biso   1.000  C
  H22      1.0000 0.79770  0.40230  0.31560  Biso   1.000  H
  C46      1.0000 0.08090  0.31780  0.75920  Biso   1.000  C
  H23      1.0000 0.04540  0.37250  0.74960  Biso   1.000  H
  C47      1.0000 0.95710  0.26820  0.49060  Biso   1.000  C
  H24      1.0000 0.88570  0.22510  0.46250  Biso   1.000  H
  C48      1.0000 0.66380  0.12980  0.13480  Biso   1.000  C
  O8       1.0000 0.55150  0.10150  0.14200  Biso   1.000  O
  O9       1.0000 0.48600  0.80960  0.00120  Biso   1.000  O
  C49      1.0000 0.59500  0.81800  0.99050  Biso   1.000  C
  C50      1.0000 0.73840  0.71090  0.96440  Biso   1.000  C
  C51      1.0000 0.76100  0.61900  0.94180  Biso   1.000  C
  C52      1.0000 0.67410  0.53370  0.93790  Biso   1.000  C
  C53      1.0000 0.56440  0.54030  0.95670  Biso   1.000  C
  C54      1.0000 0.54180  0.63230  0.97930  Biso   1.000  C
  C55      1.0000 0.62880  0.71760  0.98320  Biso   1.000  C
  O10      1.0000 0.52360  0.94570  0.13970  Biso   1.000  O
  O11      1.0000 0.81930  0.23820  0.00240  Biso   1.000  O
  O12      1.0000 0.93140  0.34420  0.10180  Biso   1.000  O
  O13      1.0000 0.56150  0.15070  0.10520  Biso   1.000  O
  O14      1.0000 0.48780  0.87740  0.08700  Biso   1.000  O
  C56      1.0000 0.85570  0.31860  0.03550  Biso   1.000  C
  C57      1.0000 0.82190  0.49330  0.05760  Biso   1.000  C
  C58      1.0000 0.80770  0.40500  0.00850  Biso   1.000  C
  C59      1.0000 0.75120  0.39530  0.92990  Biso   1.000  C
  C60      1.0000 0.70900  0.47390  0.90050  Biso   1.000  C
  C61      1.0000 0.77970  0.57180  0.02810  Biso   1.000  C
  C62      1.0000 0.72300  0.56210  0.94960  Biso   1.000  C
  Ce2      1.0000 0.15117  0.93935  0.99591  Biso   1.000  Ce
  O15      1.0000 0.29650  0.92110  0.91360  Biso   1.000  O
  O16      1.0000 0.66840  0.06180  0.90880  Biso   1.000  O
  O17      1.0000 0.02430  0.86680  0.07990  Biso   1.000  O
  O18      1.0000 0.33470  0.09850  0.00640  Biso   1.000  O
  O19      1.0000 0.10780  0.07150  0.07500  Biso   1.000  O
  O20      1.0000 0.89160  0.95380  0.10170  Biso   1.000  O
  O21      1.0000 0.00180  0.17670  0.10860  Biso   1.000  O
  N5       1.0000 0.87660  0.60890  0.47840  Biso   1.000  N
  N6       1.0000 0.82420  0.48190  0.59550  Biso   1.000  N
  N7       1.0000 0.65980  0.50090  0.37570  Biso   1.000  N
  N8       1.0000 0.60970  0.37000  0.49200  Biso   1.000  N
  C63      1.0000 0.90210  0.81890  0.17090  Biso   1.000  C
  C64      1.0000 0.38690  0.29930  0.29990  Biso   1.000  C
  C65      1.0000 0.09810  0.14400  0.11820  Biso   1.000  C
  C66      1.0000 0.61770  0.16080  0.80870  Biso   1.000  C
  C67      1.0000 0.78210  0.41920  0.64580  Biso   1.000  C
  C68      1.0000 0.19510  0.19660  0.18430  Biso   1.000  C
  C69      1.0000 0.83410  0.70080  0.28060  Biso   1.000  C
  C70      1.0000 0.92040  0.54620  0.63900  Biso   1.000  C
  C71      1.0000 0.71840  0.16450  0.77800  Biso   1.000  C
  H25      1.0000 0.77510  0.12790  0.79770  Biso   1.000  H
  C72      1.0000 0.94440  0.88480  0.11350  Biso   1.000  C
  C73      1.0000 0.39110  0.20860  0.26010  Biso   1.000  C
  H26      1.0000 0.45960  0.18160  0.27290  Biso   1.000  H
  C74      1.0000 0.95460  0.74200  0.18640  Biso   1.000  C
  H27      1.0000 0.01590  0.72940  0.15970  Biso   1.000  H
  C75      1.0000 0.70040  0.56450  0.32660  Biso   1.000  C
  C76      1.0000 0.07180  0.78250  0.70270  Biso   1.000  C
  H28      1.0000 0.00310  0.80460  0.68020  Biso   1.000  H
  C77      1.0000 0.29620  0.15750  0.20210  Biso   1.000  C
  H29      1.0000 0.30000  0.09610  0.17460  Biso   1.000  H
  C78      1.0000 0.62150  0.54070  0.24880  Biso   1.000  C
  H30      1.0000 0.62950  0.57380  0.20390  Biso   1.000  H
  C79      1.0000 0.65810  0.27780  0.69000  Biso   1.000  C
  C80      1.0000 0.94090  0.52590  0.72020  Biso   1.000  C
  H31      1.0000 0.00310  0.56080  0.76200  Biso   1.000  H
  C81      1.0000 0.49310  0.35860  0.35850  Biso   1.000  C
  C82      1.0000 0.59240  0.09980  0.87150  Biso   1.000  C
  C83      1.0000 0.99050  0.62540  0.61370  Biso   1.000  C
  C84      1.0000 0.73840  0.22180  0.71800  Biso   1.000  C
  H32      1.0000 0.80780  0.22250  0.69610  Biso   1.000  H
  C85      1.0000 0.53660  0.46360  0.25330  Biso   1.000  C
  H33      1.0000 0.47230  0.43080  0.21210  Biso   1.000  H
  C86      1.0000 0.88500  0.65950  0.41480  Biso   1.000  C
  C87      1.0000 0.85440  0.44780  0.72460  Biso   1.000  C
  H34      1.0000 0.84290  0.41750  0.77030  Biso   1.000  H
  C88      1.0000 0.80280  0.63740  0.34330  Biso   1.000  C
  C89      1.0000 0.15480  0.84270  0.76540  Biso   1.000  C
  H35      1.0000 0.14150  0.90410  0.78680  Biso   1.000  H
  C90      1.0000 0.55990  0.43920  0.33190  Biso   1.000  C
  C91      1.0000 0.53820  0.21620  0.78060  Biso   1.000  C
  H36      1.0000 0.46790  0.21400  0.80170  Biso   1.000  H
  C92      1.0000 0.49880  0.24170  0.53410  Biso   1.000  C
  H37      1.0000 0.47090  0.19490  0.56680  Biso   1.000  H
  C93      1.0000 0.08840  0.69240  0.67370  Biso   1.000  C
  C94      1.0000 0.25460  0.81130  0.79470  Biso   1.000  C
  C95      1.0000 0.19060  0.28220  0.22490  Biso   1.000  C
  H38      1.0000 0.12060  0.30760  0.21340  Biso   1.000  H
  C96      1.0000 0.68360  0.34140  0.62740  Biso   1.000  C
  C97      1.0000 0.78200  0.77870  0.26570  Biso   1.000  C
  H39      1.0000 0.72210  0.79210  0.29340  Biso   1.000  H
  C98      1.0000 0.28440  0.33530  0.28330  Biso   1.000  C
  H40      1.0000 0.27810  0.39550  0.31150  Biso   1.000  H
  C99      1.0000 0.55870  0.27570  0.72160  Biso   1.000  C
  H41      1.0000 0.50350  0.31450  0.70360  Biso   1.000  H
  C100     1.0000 0.98930  0.73380  0.43470  Biso   1.000  C
  H42      1.0000 0.01770  0.77860  0.40070  Biso   1.000  H
  C101     1.0000 0.60360  0.31980  0.55650  Biso   1.000  C
  C102     1.0000 0.51520  0.32650  0.43240  Biso   1.000  C
  C103     1.0000 0.97200  0.65240  0.53850  Biso   1.000  C
  C104     1.0000 0.44680  0.24580  0.45950  Biso   1.000  C
  H43      1.0000 0.37650  0.20220  0.43020  Biso   1.000  H
  C105     1.0000 0.81650  0.83800  0.21040  Biso   1.000  C
  H44      1.0000 0.78020  0.89200  0.20010  Biso   1.000  H
  C106     1.0000 0.27540  0.72450  0.76300  Biso   1.000  C
  H45      1.0000 0.34890  0.70690  0.78150  Biso   1.000  H
  C107     1.0000 0.19040  0.66060  0.70350  Biso   1.000  C
  H46      1.0000 0.20230  0.59770  0.68440  Biso   1.000  H
  C108     1.0000 0.91910  0.68220  0.24080  Biso   1.000  C
  H47      1.0000 0.95460  0.62750  0.25040  Biso   1.000  H
  C109     1.0000 0.04290  0.73180  0.50940  Biso   1.000  C
  H48      1.0000 0.11430  0.77490  0.53750  Biso   1.000  H
  C110     1.0000 0.33620  0.87020  0.86520  Biso   1.000  C
  O22      1.0000 0.44850  0.89850  0.85800  Biso   1.000  O
  O23      1.0000 0.51400  0.19040  0.99880  Biso   1.000  O
  C111     1.0000 0.40500  0.18200  0.00950  Biso   1.000  C
  C112     1.0000 0.26160  0.28910  0.03560  Biso   1.000  C
  C113     1.0000 0.23900  0.38100  0.05820  Biso   1.000  C
  C114     1.0000 0.32590  0.46630  0.06210  Biso   1.000  C
  C115     1.0000 0.43560  0.45970  0.04330  Biso   1.000  C
  C116     1.0000 0.45820  0.36770  0.02070  Biso   1.000  C
  C117     1.0000 0.37120  0.28240  0.01680  Biso   1.000  C
  O24      1.0000 0.47640  0.05430  0.86030  Biso   1.000  O
  O25      1.0000 0.18070  0.76180  0.99760  Biso   1.000  O
  O26      1.0000 0.06860  0.65580  0.89820  Biso   1.000  O
  O27      1.0000 0.43850  0.84930  0.89480  Biso   1.000  O
  O28      1.0000 0.51220  0.12260  0.91300  Biso   1.000  O
  C118     1.0000 0.14430  0.68140  0.96450  Biso   1.000  C
  C119     1.0000 0.17810  0.50670  0.94240  Biso   1.000  C
  C120     1.0000 0.19230  0.59500  0.99150  Biso   1.000  C
  C121     1.0000 0.24880  0.60470  0.07010  Biso   1.000  C
  C122     1.0000 0.29100  0.52610  0.09950  Biso   1.000  C
  C123     1.0000 0.22030  0.42820  0.97190  Biso   1.000  C
  C124     1.0000 0.27700  0.43790  0.05040  Biso   1.000  C
  Ce3      1.0000 0.50000  0.00000  0.00000  Biso   1.000  Ce
