data_image0
_cell_length_a       11.2219
_cell_length_b       13.2435
_cell_length_c       17.6351
_cell_angle_alpha    82.365
_cell_angle_beta     72.787
_cell_angle_gamma    68.608

_symmetry_space_group_name_H-M    "P 1"
_symmetry_int_tables_number       1

loop_
  _symmetry_equiv_pos_as_xyz
  'x, y, z'

loop_
  _atom_site_label
  _atom_site_occupancy
  _atom_site_fract_x
  _atom_site_fract_y
  _atom_site_fract_z
  _atom_site_thermal_displace_type
  _atom_site_B_iso_or_equiv
  _atom_site_type_symbol
  La1      1.0000 0.04367  0.12706  0.36521  Biso   1.000  La
  La2      1.0000 0.39330  0.67765  0.01042  Biso   1.000  La
  Mo1      1.0000 0.34530  0.27567  0.62344  Biso   1.000  Mo
  Mo2      1.0000 0.82546  0.79801  0.25516  Biso   1.000  Mo
  Mo3      1.0000 0.81114  0.59592  0.24847  Biso   1.000  Mo
  S1       1.0000 0.11218  0.35051  0.65908  Biso   1.000  S
  S2       1.0000 0.39411  0.11155  0.68994  Biso   1.000  S
  S3       1.0000 0.41256  0.36252  0.69790  Biso   1.000  S
  S4       1.0000 0.79660  0.73039  0.15095  Biso   1.000  S
  O1       1.0000 0.33540  0.20030  0.52580  Biso   1.000  O
  O2       1.0000 0.34280  0.39727  0.53135  Biso   1.000  O
  O3       1.0000 0.44990  0.11940  0.41069  Biso   1.000  O
  O4       1.0000 0.46120  0.44770  0.41732  Biso   1.000  O
  O5       1.0000 0.84380  0.17170  0.47788  Biso   1.000  O
  O6       1.0000 0.88700  0.05930  0.57910  Biso   1.000  O
  N1       1.0000 0.56240  0.21960  0.54662  Biso   1.000  N
  C1       1.0000 0.57390  0.13600  0.49306  Biso   1.000  C
  H1       1.0000 0.64270  0.13740  0.44290  Biso   1.000  H
  H2       1.0000 0.60330  0.06340  0.51870  Biso   1.000  H
  C2       1.0000 0.44440  0.15370  0.47398  Biso   1.000  C
  C3       1.0000 0.58020  0.31750  0.49872  Biso   1.000  C
  H3       1.0000 0.61040  0.35740  0.52850  Biso   1.000  H
  H4       1.0000 0.65020  0.29410  0.44850  Biso   1.000  H
  C4       1.0000 0.45340  0.39280  0.47966  Biso   1.000  C
  C5       1.0000 0.66370  0.17170  0.59282  Biso   1.000  C
  H5       1.0000 0.65270  0.22720  0.62920  Biso   1.000  H
  H6       1.0000 0.64380  0.11050  0.62610  Biso   1.000  H
  C6       1.0000 0.80970  0.13060  0.54467  Biso   1.000  C
  O7       1.0000 0.03260  0.75889  0.19150  Biso   1.000  O
  O8       1.0000 0.88940  0.87829  0.32276  Biso   1.000  O
  O9       1.0000 0.17760  0.80130  0.08773  Biso   1.000  O
  O10      1.0000 0.88850  0.03460  0.35440  Biso   1.000  O
  O11      1.0000 0.80980  0.14990  0.08570  Biso   1.000  O
  O12      1.0000 0.62710  0.15170  0.06520  Biso   1.000  O
  N2       1.0000 0.83310  0.95550  0.18174  Biso   1.000  N
  C7       1.0000 0.96280  0.92900  0.12150  Biso   1.000  C
  H7       1.0000 0.99910  0.98730  0.12000  Biso   1.000  H
  H8       1.0000 0.94780  0.92930  0.06880  Biso   1.000  H
  C8       1.0000 0.06550  0.82220  0.13397  Biso   1.000  C
  C9       1.0000 0.82000  0.03390  0.23960  Biso   1.000  C
  H9       1.0000 0.72510  0.07880  0.25900  Biso   1.000  H
  H10      1.0000 0.86920  0.08290  0.21210  Biso   1.000  H
  C10      1.0000 0.87160  0.97920  0.30960  Biso   1.000  C
  C11      1.0000 0.72560  0.00470  0.14140  Biso   1.000  C
  H11      1.0000 0.63950  0.01860  0.18220  Biso   1.000  H
  H12      1.0000 0.73230  0.95070  0.10520  Biso   1.000  H
  C12      1.0000 0.72280  0.11050  0.09340  Biso   1.000  C
  O13      1.0000 0.85150  0.44112  0.30773  Biso   1.000  O
  O14      1.0000 0.01500  0.51643  0.19042  Biso   1.000  O
  O15      1.0000 0.85390  0.27115  0.31290  Biso   1.000  O
  O16      1.0000 0.15760  0.43770  0.08019  Biso   1.000  O
  O17      1.0000 0.58750  0.51510  0.03062  Biso   1.000  O
  O18      1.0000 0.76260  0.37699  0.04636  Biso   1.000  O
  N3       1.0000 0.80200  0.48490  0.16178  Biso   1.000  N
  C13      1.0000 0.77860  0.38870  0.20970  Biso   1.000  C
  H13      1.0000 0.82030  0.32480  0.17540  Biso   1.000  H
  H14      1.0000 0.68190  0.40230  0.22770  Biso   1.000  H
  C14      1.0000 0.83350  0.36290  0.28152  Biso   1.000  C
  C15      1.0000 0.93310  0.45390  0.10050  Biso   1.000  C
  H15      1.0000 0.92230  0.49810  0.05150  Biso   1.000  H
  H16      1.0000 0.95950  0.37690  0.08760  Biso   1.000  H
  C16      1.0000 0.04430  0.46840  0.12525  Biso   1.000  C
  C17      1.0000 0.69360  0.53850  0.12169  Biso   1.000  C
  H17      1.0000 0.70600  0.60560  0.09410  Biso   1.000  H
  H18      1.0000 0.60770  0.56040  0.16300  Biso   1.000  H
  C18      1.0000 0.68420  0.47090  0.06206  Biso   1.000  C
  O19      1.0000 0.00190  0.32720  0.40080  Biso   1.000  O
  O20      1.0000 0.93090  0.70350  0.61200  Biso   1.000  O
  La3      1.0000 0.95633  0.87294  0.63479  Biso   1.000  La
  La4      1.0000 0.60670  0.32235  0.98958  Biso   1.000  La
  Mo4      1.0000 0.65470  0.72433  0.37656  Biso   1.000  Mo
  Mo5      1.0000 0.17454  0.20199  0.74484  Biso   1.000  Mo
  Mo6      1.0000 0.18886  0.40408  0.75153  Biso   1.000  Mo
  S5       1.0000 0.88782  0.64949  0.34092  Biso   1.000  S
  S6       1.0000 0.60589  0.88845  0.31006  Biso   1.000  S
  S7       1.0000 0.58744  0.63748  0.30210  Biso   1.000  S
  S8       1.0000 0.20340  0.26961  0.84905  Biso   1.000  S
  O21      1.0000 0.66460  0.79970  0.47420  Biso   1.000  O
  O22      1.0000 0.65720  0.60273  0.46865  Biso   1.000  O
  O23      1.0000 0.55010  0.88060  0.58931  Biso   1.000  O
  O24      1.0000 0.53880  0.55230  0.58268  Biso   1.000  O
  O25      1.0000 0.15620  0.82830  0.52212  Biso   1.000  O
  O26      1.0000 0.11300  0.94070  0.42090  Biso   1.000  O
  N4       1.0000 0.43760  0.78040  0.45338  Biso   1.000  N
  C19      1.0000 0.42610  0.86400  0.50694  Biso   1.000  C
  H19      1.0000 0.35730  0.86260  0.55710  Biso   1.000  H
  H20      1.0000 0.39670  0.93660  0.48130  Biso   1.000  H
  C20      1.0000 0.55560  0.84630  0.52602  Biso   1.000  C
  C21      1.0000 0.41980  0.68250  0.50128  Biso   1.000  C
  H21      1.0000 0.38960  0.64260  0.47150  Biso   1.000  H
  H22      1.0000 0.34980  0.70590  0.55150  Biso   1.000  H
  C22      1.0000 0.54660  0.60720  0.52034  Biso   1.000  C
  C23      1.0000 0.33630  0.82830  0.40718  Biso   1.000  C
  H23      1.0000 0.34730  0.77280  0.37080  Biso   1.000  H
  H24      1.0000 0.35620  0.88950  0.37390  Biso   1.000  H
  C24      1.0000 0.19030  0.86940  0.45533  Biso   1.000  C
  O27      1.0000 0.96740  0.24111  0.80850  Biso   1.000  O
  O28      1.0000 0.11060  0.12171  0.67724  Biso   1.000  O
  O29      1.0000 0.82240  0.19870  0.91227  Biso   1.000  O
  O30      1.0000 0.11150  0.96540  0.64560  Biso   1.000  O
  O31      1.0000 0.19020  0.85010  0.91430  Biso   1.000  O
  O32      1.0000 0.37290  0.84830  0.93480  Biso   1.000  O
  N5       1.0000 0.16690  0.04450  0.81826  Biso   1.000  N
  C25      1.0000 0.03720  0.07100  0.87850  Biso   1.000  C
  H25      1.0000 0.00090  0.01270  0.88000  Biso   1.000  H
  H26      1.0000 0.05220  0.07070  0.93120  Biso   1.000  H
  C26      1.0000 0.93450  0.17780  0.86603  Biso   1.000  C
  C27      1.0000 0.18000  0.96610  0.76040  Biso   1.000  C
  H27      1.0000 0.27490  0.92120  0.74100  Biso   1.000  H
  H28      1.0000 0.13080  0.91710  0.78790  Biso   1.000  H
  C28      1.0000 0.12840  0.02080  0.69040  Biso   1.000  C
  C29      1.0000 0.27440  0.99530  0.85860  Biso   1.000  C
  H29      1.0000 0.36050  0.98140  0.81780  Biso   1.000  H
  H30      1.0000 0.26770  0.04930  0.89480  Biso   1.000  H
  C30      1.0000 0.27720  0.88950  0.90660  Biso   1.000  C
  O33      1.0000 0.14850  0.55888  0.69227  Biso   1.000  O
  O34      1.0000 0.98500  0.48357  0.80958  Biso   1.000  O
  O35      1.0000 0.14610  0.72885  0.68710  Biso   1.000  O
  O36      1.0000 0.84240  0.56230  0.91981  Biso   1.000  O
  O37      1.0000 0.41250  0.48490  0.96938  Biso   1.000  O
  O38      1.0000 0.23740  0.62301  0.95364  Biso   1.000  O
  N6       1.0000 0.19800  0.51510  0.83822  Biso   1.000  N
  C31      1.0000 0.22140  0.61130  0.79030  Biso   1.000  C
  H31      1.0000 0.17970  0.67520  0.82460  Biso   1.000  H
  H32      1.0000 0.31810  0.59770  0.77230  Biso   1.000  H
  C32      1.0000 0.16650  0.63710  0.71848  Biso   1.000  C
  C33      1.0000 0.06690  0.54610  0.89950  Biso   1.000  C
  H33      1.0000 0.07770  0.50190  0.94850  Biso   1.000  H
  H34      1.0000 0.04050  0.62310  0.91240  Biso   1.000  H
  C34      1.0000 0.95570  0.53160  0.87475  Biso   1.000  C
  C35      1.0000 0.30640  0.46150  0.87831  Biso   1.000  C
  H35      1.0000 0.29400  0.39440  0.90590  Biso   1.000  H
  H36      1.0000 0.39230  0.43960  0.83700  Biso   1.000  H
  C36      1.0000 0.31580  0.52910  0.93794  Biso   1.000  C
  O39      1.0000 0.99810  0.67280  0.59920  Biso   1.000  O
  O40      1.0000 0.06910  0.29650  0.38800  Biso   1.000  O
