data_image0
_cell_length_a       22.773
_cell_length_b       8.549
_cell_length_c       18.85
_cell_angle_alpha    90
_cell_angle_beta     90
_cell_angle_gamma    90

_symmetry_space_group_name_H-M    "P 1"
_symmetry_int_tables_number       1

loop_
  _symmetry_equiv_pos_as_xyz
  'x, y, z'

loop_
  _atom_site_label
  _atom_site_occupancy
  _atom_site_fract_x
  _atom_site_fract_y
  _atom_site_fract_z
  _atom_site_thermal_displace_type
  _atom_site_B_iso_or_equiv
  _atom_site_type_symbol
  N1       1.0000 0.32990  0.43900  0.82730  Biso   1.000  N
  N2       1.0000 0.47670  0.44400  0.83750  Biso   1.000  N
  C1       1.0000 0.29830  0.54000  0.82770  Biso   1.000  C
  C2       1.0000 0.50680  0.54200  0.84830  Biso   1.000  C
  C3       1.0000 0.48510  0.45100  0.50700  Biso   1.000  C
  N3       1.0000 0.17010  0.56100  0.32730  Biso   1.000  N
  N4       1.0000 0.02330  0.55600  0.33750  Biso   1.000  N
  C4       1.0000 0.20170  0.46000  0.32770  Biso   1.000  C
  C5       1.0000 0.99320  0.45800  0.34830  Biso   1.000  C
  C6       1.0000 0.01490  0.54900  0.00700  Biso   1.000  C
  N5       1.0000 0.67010  0.93900  0.17270  Biso   1.000  N
  N6       1.0000 0.52330  0.94400  0.16250  Biso   1.000  N
  C7       1.0000 0.70170  0.04000  0.17230  Biso   1.000  C
  C8       1.0000 0.49320  0.04200  0.15170  Biso   1.000  C
  C9       1.0000 0.51490  0.95100  0.49300  Biso   1.000  C
  N7       1.0000 0.82990  0.06100  0.67270  Biso   1.000  N
  N8       1.0000 0.97670  0.05600  0.66250  Biso   1.000  N
  C10      1.0000 0.79830  0.96000  0.67230  Biso   1.000  C
  C11      1.0000 0.00680  0.95800  0.65170  Biso   1.000  C
  C12      1.0000 0.98510  0.04900  0.99300  Biso   1.000  C
  N9       1.0000 0.67010  0.56100  0.17270  Biso   1.000  N
  N10      1.0000 0.52330  0.55600  0.16250  Biso   1.000  N
  C13      1.0000 0.70170  0.46000  0.17230  Biso   1.000  C
  C14      1.0000 0.49320  0.45800  0.15170  Biso   1.000  C
  C15      1.0000 0.51490  0.54900  0.49300  Biso   1.000  C
  N11      1.0000 0.82990  0.43900  0.67270  Biso   1.000  N
  N12      1.0000 0.97670  0.44400  0.66250  Biso   1.000  N
  C16      1.0000 0.79830  0.54000  0.67230  Biso   1.000  C
  C17      1.0000 0.00680  0.54200  0.65170  Biso   1.000  C
  C18      1.0000 0.98510  0.45100  0.99300  Biso   1.000  C
  N13      1.0000 0.32990  0.06100  0.82730  Biso   1.000  N
  N14      1.0000 0.47670  0.05600  0.83750  Biso   1.000  N
  C19      1.0000 0.29830  0.96000  0.82770  Biso   1.000  C
  C20      1.0000 0.50680  0.95800  0.84830  Biso   1.000  C
  C21      1.0000 0.48510  0.04900  0.50700  Biso   1.000  C
  N15      1.0000 0.17010  0.93900  0.32730  Biso   1.000  N
  N16      1.0000 0.02330  0.94400  0.33750  Biso   1.000  N
  C22      1.0000 0.20170  0.04000  0.32770  Biso   1.000  C
  C23      1.0000 0.99320  0.04200  0.34830  Biso   1.000  C
  C24      1.0000 0.01490  0.95100  0.00700  Biso   1.000  C
  Cd1      1.0000 0.40525  0.25000  0.83473  Biso   1.000  Cd
  Cd2      1.0000 0.42620  0.25000  0.53431  Biso   1.000  Cd
  Cd3      1.0000 0.43758  0.25000  0.12848  Biso   1.000  Cd
  N17      1.0000 0.40960  0.25000  0.70790  Biso   1.000  N
  N18      1.0000 0.40130  0.25000  0.95900  Biso   1.000  N
  C25      1.0000 0.41390  0.25000  0.64790  Biso   1.000  C
  C26      1.0000 0.41050  0.25000  0.01660  Biso   1.000  C
  C27      1.0000 0.35020  0.25000  0.45790  Biso   1.000  C
  C28      1.0000 0.31760  0.25000  0.41620  Biso   1.000  C
  Cd4      1.0000 0.09475  0.75000  0.33473  Biso   1.000  Cd
  Cd5      1.0000 0.07380  0.75000  0.03431  Biso   1.000  Cd
  Cd6      1.0000 0.06242  0.75000  0.62848  Biso   1.000  Cd
  N19      1.0000 0.09040  0.75000  0.20790  Biso   1.000  N
  N20      1.0000 0.09870  0.75000  0.45900  Biso   1.000  N
  C29      1.0000 0.08610  0.75000  0.14790  Biso   1.000  C
  C30      1.0000 0.08950  0.75000  0.51660  Biso   1.000  C
  C31      1.0000 0.14980  0.75000  0.95790  Biso   1.000  C
  C32      1.0000 0.18240  0.75000  0.91620  Biso   1.000  C
  Cd7      1.0000 0.59475  0.75000  0.16527  Biso   1.000  Cd
  Cd8      1.0000 0.57380  0.75000  0.46569  Biso   1.000  Cd
  Cd9      1.0000 0.56242  0.75000  0.87152  Biso   1.000  Cd
  N21      1.0000 0.59040  0.75000  0.29210  Biso   1.000  N
  N22      1.0000 0.59870  0.75000  0.04100  Biso   1.000  N
  C33      1.0000 0.58610  0.75000  0.35210  Biso   1.000  C
  C34      1.0000 0.58950  0.75000  0.98340  Biso   1.000  C
  C35      1.0000 0.64980  0.75000  0.54210  Biso   1.000  C
  C36      1.0000 0.68240  0.75000  0.58380  Biso   1.000  C
  Cd10     1.0000 0.90525  0.25000  0.66527  Biso   1.000  Cd
  Cd11     1.0000 0.92620  0.25000  0.96569  Biso   1.000  Cd
  Cd12     1.0000 0.93758  0.25000  0.37152  Biso   1.000  Cd
  N23      1.0000 0.90960  0.25000  0.79210  Biso   1.000  N
  N24      1.0000 0.90130  0.25000  0.54100  Biso   1.000  N
  C37      1.0000 0.91390  0.25000  0.85210  Biso   1.000  C
  C38      1.0000 0.91050  0.25000  0.48340  Biso   1.000  C
  C39      1.0000 0.85020  0.25000  0.04210  Biso   1.000  C
  C40      1.0000 0.81760  0.25000  0.08380  Biso   1.000  C
  Cd13     1.0000 0.24301  0.75000  0.82375  Biso   1.000  Cd
  C41      1.0000 0.17740  0.75000  0.73900  Biso   1.000  C
  C42      1.0000 0.14050  0.75000  0.69950  Biso   1.000  C
  Cd14     1.0000 0.25699  0.25000  0.32375  Biso   1.000  Cd
  C43      1.0000 0.32260  0.25000  0.23900  Biso   1.000  C
  C44      1.0000 0.35950  0.25000  0.19950  Biso   1.000  C
  Cd15     1.0000 0.75699  0.25000  0.17625  Biso   1.000  Cd
  C45      1.0000 0.82260  0.25000  0.26100  Biso   1.000  C
  C46      1.0000 0.85950  0.25000  0.30050  Biso   1.000  C
  Cd16     1.0000 0.74301  0.75000  0.67625  Biso   1.000  Cd
  C47      1.0000 0.67740  0.75000  0.76100  Biso   1.000  C
  C48      1.0000 0.64050  0.75000  0.80050  Biso   1.000  C
