data_image0
_cell_length_a       14.8999
_cell_length_b       14.8999
_cell_length_c       19.1362
_cell_angle_alpha    90
_cell_angle_beta     90
_cell_angle_gamma    90

_symmetry_space_group_name_H-M    "P 1"
_symmetry_int_tables_number       1

loop_
  _symmetry_equiv_pos_as_xyz
  'x, y, z'

loop_
  _atom_site_label
  _atom_site_occupancy
  _atom_site_fract_x
  _atom_site_fract_y
  _atom_site_fract_z
  _atom_site_thermal_displace_type
  _atom_site_B_iso_or_equiv
  _atom_site_type_symbol
  O1       1.0000 0.37996  0.28327  0.70598  Biso   1.000  O
  O2       1.0000 0.36626  0.31780  0.81939  Biso   1.000  O
  C1       1.0000 0.48272  0.38576  0.75560  Biso   1.000  C
  C2       1.0000 0.52107  0.42198  0.81554  Biso   1.000  C
  H1       1.0000 0.50190  0.40230  0.86030  Biso   1.000  H
  C3       1.0000 0.51320  0.41274  0.69019  Biso   1.000  C
  H2       1.0000 0.48940  0.38560  0.64920  Biso   1.000  H
  C4       1.0000 0.40400  0.32355  0.76085  Biso   1.000  C
  C5       1.0000 0.28660  0.33660  0.97160  Biso   1.000  C
  H3       1.0000 0.24930  0.38680  0.95430  Biso   1.000  H
  H4       1.0000 0.34850  0.34500  0.95400  Biso   1.000  H
  C6       1.0000 0.28690  0.33640  0.05090  Biso   1.000  C
  H5       1.0000 0.34910  0.34480  0.06800  Biso   1.000  H
  H6       1.0000 0.25030  0.38720  0.06830  Biso   1.000  H
  C7       1.0000 0.30810  0.17660  0.97300  Biso   1.000  C
  H7       1.0000 0.31460  0.37040  0.95640  Biso   1.000  H
  H8       1.0000 0.21350  0.38190  0.95510  Biso   1.000  H
  C8       1.0000 0.32430  0.30680  0.05230  Biso   1.000  C
  H9       1.0000 0.21720  0.38240  0.06900  Biso   1.000  H
  H10      1.0000 0.31760  0.36870  0.07030  Biso   1.000  H
  C9       1.0000 0.15790  0.23760  0.97260  Biso   1.000  C
  H11      1.0000 0.36600  0.32080  0.95640  Biso   1.000  H
  H12      1.0000 0.28560  0.38150  0.95420  Biso   1.000  H
  C10      1.0000 0.24020  0.34270  0.05140  Biso   1.000  C
  H13      1.0000 0.29120  0.37990  0.06750  Biso   1.000  H
  H14      1.0000 0.36970  0.31580  0.06970  Biso   1.000  H
  O3       1.0000 0.12004  0.21673  0.70598  Biso   1.000  O
  O4       1.0000 0.13374  0.18220  0.81939  Biso   1.000  O
  C11      1.0000 0.01728  0.11424  0.75560  Biso   1.000  C
  C12      1.0000 0.97893  0.07802  0.81554  Biso   1.000  C
  H15      1.0000 0.99810  0.09770  0.86030  Biso   1.000  H
  C13      1.0000 0.98680  0.08726  0.69019  Biso   1.000  C
  H16      1.0000 0.01060  0.11440  0.64920  Biso   1.000  H
  C14      1.0000 0.09600  0.17645  0.76085  Biso   1.000  C
  C15      1.0000 0.21340  0.16340  0.97160  Biso   1.000  C
  H17      1.0000 0.25070  0.11320  0.95430  Biso   1.000  H
  H18      1.0000 0.15150  0.15500  0.95400  Biso   1.000  H
  C16      1.0000 0.21310  0.16360  0.05090  Biso   1.000  C
  H19      1.0000 0.15090  0.15520  0.06800  Biso   1.000  H
  H20      1.0000 0.24970  0.11280  0.06830  Biso   1.000  H
  C17      1.0000 0.19190  0.32340  0.97300  Biso   1.000  C
  H21      1.0000 0.18540  0.12960  0.95640  Biso   1.000  H
  H22      1.0000 0.28650  0.11810  0.95510  Biso   1.000  H
  C18      1.0000 0.17570  0.19320  0.05230  Biso   1.000  C
  H23      1.0000 0.28280  0.11760  0.06900  Biso   1.000  H
  H24      1.0000 0.18240  0.13130  0.07030  Biso   1.000  H
  C19      1.0000 0.34210  0.26240  0.97260  Biso   1.000  C
  H25      1.0000 0.13400  0.17920  0.95640  Biso   1.000  H
  H26      1.0000 0.21440  0.11850  0.95420  Biso   1.000  H
  C20      1.0000 0.25980  0.15730  0.05140  Biso   1.000  C
  H27      1.0000 0.20880  0.12010  0.06750  Biso   1.000  H
  H28      1.0000 0.13030  0.18420  0.06970  Biso   1.000  H
  O5       1.0000 0.21673  0.37996  0.70598  Biso   1.000  O
  O6       1.0000 0.18220  0.36626  0.81939  Biso   1.000  O
  C21      1.0000 0.11424  0.48272  0.75560  Biso   1.000  C
  C22      1.0000 0.07802  0.52107  0.81554  Biso   1.000  C
  H29      1.0000 0.09770  0.50190  0.86030  Biso   1.000  H
  C23      1.0000 0.08726  0.51320  0.69019  Biso   1.000  C
  H30      1.0000 0.11440  0.48940  0.64920  Biso   1.000  H
  C24      1.0000 0.17645  0.40400  0.76085  Biso   1.000  C
  C25      1.0000 0.16340  0.28660  0.97160  Biso   1.000  C
  H31      1.0000 0.11320  0.24930  0.95430  Biso   1.000  H
  H32      1.0000 0.15500  0.34850  0.95400  Biso   1.000  H
  C26      1.0000 0.16360  0.28690  0.05090  Biso   1.000  C
  H33      1.0000 0.15520  0.34910  0.06800  Biso   1.000  H
  H34      1.0000 0.11280  0.25030  0.06830  Biso   1.000  H
  C27      1.0000 0.32340  0.30810  0.97300  Biso   1.000  C
  H35      1.0000 0.12960  0.31460  0.95640  Biso   1.000  H
  H36      1.0000 0.11810  0.21350  0.95510  Biso   1.000  H
  C28      1.0000 0.19320  0.32430  0.05230  Biso   1.000  C
  H37      1.0000 0.11760  0.21720  0.06900  Biso   1.000  H
  H38      1.0000 0.13130  0.31760  0.07030  Biso   1.000  H
  C29      1.0000 0.26240  0.15790  0.97260  Biso   1.000  C
  H39      1.0000 0.17920  0.36600  0.95640  Biso   1.000  H
  H40      1.0000 0.11850  0.28560  0.95420  Biso   1.000  H
  C30      1.0000 0.15730  0.24020  0.05140  Biso   1.000  C
  H41      1.0000 0.12010  0.29120  0.06750  Biso   1.000  H
  H42      1.0000 0.18420  0.36970  0.06970  Biso   1.000  H
  O7       1.0000 0.28327  0.12004  0.70598  Biso   1.000  O
  O8       1.0000 0.31780  0.13374  0.81939  Biso   1.000  O
  C31      1.0000 0.38576  0.01728  0.75560  Biso   1.000  C
  C32      1.0000 0.42198  0.97893  0.81554  Biso   1.000  C
  H43      1.0000 0.40230  0.99810  0.86030  Biso   1.000  H
  C33      1.0000 0.41274  0.98680  0.69019  Biso   1.000  C
  H44      1.0000 0.38560  0.01060  0.64920  Biso   1.000  H
  C34      1.0000 0.32355  0.09600  0.76085  Biso   1.000  C
  C35      1.0000 0.33660  0.21340  0.97160  Biso   1.000  C
  H45      1.0000 0.38680  0.25070  0.95430  Biso   1.000  H
  H46      1.0000 0.34500  0.15150  0.95400  Biso   1.000  H
  C36      1.0000 0.33640  0.21310  0.05090  Biso   1.000  C
  H47      1.0000 0.34480  0.15090  0.06800  Biso   1.000  H
  H48      1.0000 0.38720  0.24970  0.06830  Biso   1.000  H
  C37      1.0000 0.17660  0.19190  0.97300  Biso   1.000  C
  H49      1.0000 0.37040  0.18540  0.95640  Biso   1.000  H
  H50      1.0000 0.38190  0.28650  0.95510  Biso   1.000  H
  C38      1.0000 0.30680  0.17570  0.05230  Biso   1.000  C
  H51      1.0000 0.38240  0.28280  0.06900  Biso   1.000  H
  H52      1.0000 0.36870  0.18240  0.07030  Biso   1.000  H
  C39      1.0000 0.23760  0.34210  0.97260  Biso   1.000  C
  H53      1.0000 0.32080  0.13400  0.95640  Biso   1.000  H
  H54      1.0000 0.38150  0.21440  0.95420  Biso   1.000  H
  C40      1.0000 0.34270  0.25980  0.05140  Biso   1.000  C
  H55      1.0000 0.37990  0.20880  0.06750  Biso   1.000  H
  H56      1.0000 0.31580  0.13030  0.06970  Biso   1.000  H
  O9       1.0000 0.62004  0.78327  0.79402  Biso   1.000  O
  O10      1.0000 0.63374  0.81780  0.68061  Biso   1.000  O
  C41      1.0000 0.51728  0.88576  0.74440  Biso   1.000  C
  C42      1.0000 0.47893  0.92198  0.68446  Biso   1.000  C
  H57      1.0000 0.49810  0.90230  0.63970  Biso   1.000  H
  C43      1.0000 0.48680  0.91274  0.80981  Biso   1.000  C
  H58      1.0000 0.51060  0.88560  0.85080  Biso   1.000  H
  C44      1.0000 0.59600  0.82355  0.73915  Biso   1.000  C
  C45      1.0000 0.71340  0.83660  0.52840  Biso   1.000  C
  H59      1.0000 0.75070  0.88680  0.54570  Biso   1.000  H
  H60      1.0000 0.65150  0.84500  0.54600  Biso   1.000  H
  C46      1.0000 0.71310  0.83640  0.44910  Biso   1.000  C
  H61      1.0000 0.65090  0.84480  0.43200  Biso   1.000  H
  H62      1.0000 0.74970  0.88720  0.43170  Biso   1.000  H
  C47      1.0000 0.69190  0.67660  0.52700  Biso   1.000  C
  H63      1.0000 0.68540  0.87040  0.54360  Biso   1.000  H
  H64      1.0000 0.78650  0.88190  0.54490  Biso   1.000  H
  C48      1.0000 0.67570  0.80680  0.44770  Biso   1.000  C
  H65      1.0000 0.78280  0.88240  0.43100  Biso   1.000  H
  H66      1.0000 0.68240  0.86870  0.42970  Biso   1.000  H
  C49      1.0000 0.84210  0.73760  0.52740  Biso   1.000  C
  H67      1.0000 0.63400  0.82080  0.54360  Biso   1.000  H
  H68      1.0000 0.71440  0.88150  0.54580  Biso   1.000  H
  C50      1.0000 0.75980  0.84270  0.44860  Biso   1.000  C
  H69      1.0000 0.70880  0.87990  0.43250  Biso   1.000  H
  H70      1.0000 0.63030  0.81580  0.43030  Biso   1.000  H
  O11      1.0000 0.87996  0.71673  0.79402  Biso   1.000  O
  O12      1.0000 0.86626  0.68220  0.68061  Biso   1.000  O
  C51      1.0000 0.98272  0.61424  0.74440  Biso   1.000  C
  C52      1.0000 0.02107  0.57802  0.68446  Biso   1.000  C
  H71      1.0000 0.00190  0.59770  0.63970  Biso   1.000  H
  C53      1.0000 0.01320  0.58726  0.80981  Biso   1.000  C
  H72      1.0000 0.98940  0.61440  0.85080  Biso   1.000  H
  C54      1.0000 0.90400  0.67645  0.73915  Biso   1.000  C
  C55      1.0000 0.78660  0.66340  0.52840  Biso   1.000  C
  H73      1.0000 0.74930  0.61320  0.54570  Biso   1.000  H
  H74      1.0000 0.84850  0.65500  0.54600  Biso   1.000  H
  C56      1.0000 0.78690  0.66360  0.44910  Biso   1.000  C
  H75      1.0000 0.84910  0.65520  0.43200  Biso   1.000  H
  H76      1.0000 0.75030  0.61280  0.43170  Biso   1.000  H
  C57      1.0000 0.80810  0.82340  0.52700  Biso   1.000  C
  H77      1.0000 0.81460  0.62960  0.54360  Biso   1.000  H
  H78      1.0000 0.71350  0.61810  0.54490  Biso   1.000  H
  C58      1.0000 0.82430  0.69320  0.44770  Biso   1.000  C
  H79      1.0000 0.71720  0.61760  0.43100  Biso   1.000  H
  H80      1.0000 0.81760  0.63130  0.42970  Biso   1.000  H
  C59      1.0000 0.65790  0.76240  0.52740  Biso   1.000  C
  H81      1.0000 0.86600  0.67920  0.54360  Biso   1.000  H
  H82      1.0000 0.78560  0.61850  0.54580  Biso   1.000  H
  C60      1.0000 0.74020  0.65730  0.44860  Biso   1.000  C
  H83      1.0000 0.79120  0.62010  0.43250  Biso   1.000  H
  H84      1.0000 0.86970  0.68420  0.43030  Biso   1.000  H
  O13      1.0000 0.78327  0.87996  0.79402  Biso   1.000  O
  O14      1.0000 0.81780  0.86626  0.68061  Biso   1.000  O
  C61      1.0000 0.88576  0.98272  0.74440  Biso   1.000  C
  C62      1.0000 0.92198  0.02107  0.68446  Biso   1.000  C
  H85      1.0000 0.90230  0.00190  0.63970  Biso   1.000  H
  C63      1.0000 0.91274  0.01320  0.80981  Biso   1.000  C
  H86      1.0000 0.88560  0.98940  0.85080  Biso   1.000  H
  C64      1.0000 0.82355  0.90400  0.73915  Biso   1.000  C
  C65      1.0000 0.83660  0.78660  0.52840  Biso   1.000  C
  H87      1.0000 0.88680  0.74930  0.54570  Biso   1.000  H
  H88      1.0000 0.84500  0.84850  0.54600  Biso   1.000  H
  C66      1.0000 0.83640  0.78690  0.44910  Biso   1.000  C
  H89      1.0000 0.84480  0.84910  0.43200  Biso   1.000  H
  H90      1.0000 0.88720  0.75030  0.43170  Biso   1.000  H
  C67      1.0000 0.67660  0.80810  0.52700  Biso   1.000  C
  H91      1.0000 0.87040  0.81460  0.54360  Biso   1.000  H
  H92      1.0000 0.88190  0.71350  0.54490  Biso   1.000  H
  C68      1.0000 0.80680  0.82430  0.44770  Biso   1.000  C
  H93      1.0000 0.88240  0.71720  0.43100  Biso   1.000  H
  H94      1.0000 0.86870  0.81760  0.42970  Biso   1.000  H
  C69      1.0000 0.73760  0.65790  0.52740  Biso   1.000  C
  H95      1.0000 0.82080  0.86600  0.54360  Biso   1.000  H
  H96      1.0000 0.88150  0.78560  0.54580  Biso   1.000  H
  C70      1.0000 0.84270  0.74020  0.44860  Biso   1.000  C
  H97      1.0000 0.87990  0.79120  0.43250  Biso   1.000  H
  H98      1.0000 0.81580  0.86970  0.43030  Biso   1.000  H
  O15      1.0000 0.71673  0.62004  0.79402  Biso   1.000  O
  O16      1.0000 0.68220  0.63374  0.68061  Biso   1.000  O
  C71      1.0000 0.61424  0.51728  0.74440  Biso   1.000  C
  C72      1.0000 0.57802  0.47893  0.68446  Biso   1.000  C
  H99      1.0000 0.59770  0.49810  0.63970  Biso   1.000  H
  C73      1.0000 0.58726  0.48680  0.80981  Biso   1.000  C
  H100     1.0000 0.61440  0.51060  0.85080  Biso   1.000  H
  C74      1.0000 0.67645  0.59600  0.73915  Biso   1.000  C
  C75      1.0000 0.66340  0.71340  0.52840  Biso   1.000  C
  H101     1.0000 0.61320  0.75070  0.54570  Biso   1.000  H
  H102     1.0000 0.65500  0.65150  0.54600  Biso   1.000  H
  C76      1.0000 0.66360  0.71310  0.44910  Biso   1.000  C
  H103     1.0000 0.65520  0.65090  0.43200  Biso   1.000  H
  H104     1.0000 0.61280  0.74970  0.43170  Biso   1.000  H
  C77      1.0000 0.82340  0.69190  0.52700  Biso   1.000  C
  H105     1.0000 0.62960  0.68540  0.54360  Biso   1.000  H
  H106     1.0000 0.61810  0.78650  0.54490  Biso   1.000  H
  C78      1.0000 0.69320  0.67570  0.44770  Biso   1.000  C
  H107     1.0000 0.61760  0.78280  0.43100  Biso   1.000  H
  H108     1.0000 0.63130  0.68240  0.42970  Biso   1.000  H
  C79      1.0000 0.76240  0.84210  0.52740  Biso   1.000  C
  H109     1.0000 0.67920  0.63400  0.54360  Biso   1.000  H
  H110     1.0000 0.61850  0.71440  0.54580  Biso   1.000  H
  C80      1.0000 0.65730  0.75980  0.44860  Biso   1.000  C
  H111     1.0000 0.62010  0.70880  0.43250  Biso   1.000  H
  H112     1.0000 0.68420  0.63030  0.43030  Biso   1.000  H
  O17      1.0000 0.62004  0.71673  0.29402  Biso   1.000  O
  O18      1.0000 0.63374  0.68220  0.18061  Biso   1.000  O
  C81      1.0000 0.51728  0.61424  0.24440  Biso   1.000  C
  C82      1.0000 0.47893  0.57802  0.18446  Biso   1.000  C
  H113     1.0000 0.49810  0.59770  0.13970  Biso   1.000  H
  C83      1.0000 0.48680  0.58726  0.30981  Biso   1.000  C
  H114     1.0000 0.51060  0.61440  0.35080  Biso   1.000  H
  C84      1.0000 0.59600  0.67645  0.23915  Biso   1.000  C
  C85      1.0000 0.71340  0.66340  0.02840  Biso   1.000  C
  H115     1.0000 0.75070  0.61320  0.04570  Biso   1.000  H
  H116     1.0000 0.65150  0.65500  0.04600  Biso   1.000  H
  C86      1.0000 0.71310  0.66360  0.94910  Biso   1.000  C
  H117     1.0000 0.65090  0.65520  0.93200  Biso   1.000  H
  H118     1.0000 0.74970  0.61280  0.93170  Biso   1.000  H
  C87      1.0000 0.69190  0.82340  0.02700  Biso   1.000  C
  H119     1.0000 0.68540  0.62960  0.04360  Biso   1.000  H
  H120     1.0000 0.78650  0.61810  0.04490  Biso   1.000  H
  C88      1.0000 0.67570  0.69320  0.94770  Biso   1.000  C
  H121     1.0000 0.78280  0.61760  0.93100  Biso   1.000  H
  H122     1.0000 0.68240  0.63130  0.92970  Biso   1.000  H
  C89      1.0000 0.84210  0.76240  0.02740  Biso   1.000  C
  H123     1.0000 0.63400  0.67920  0.04360  Biso   1.000  H
  H124     1.0000 0.71440  0.61850  0.04580  Biso   1.000  H
  C90      1.0000 0.75980  0.65730  0.94860  Biso   1.000  C
  H125     1.0000 0.70880  0.62010  0.93250  Biso   1.000  H
  H126     1.0000 0.63030  0.68420  0.93030  Biso   1.000  H
  O19      1.0000 0.87996  0.78327  0.29402  Biso   1.000  O
  O20      1.0000 0.86626  0.81780  0.18061  Biso   1.000  O
  C91      1.0000 0.98272  0.88576  0.24440  Biso   1.000  C
  C92      1.0000 0.02107  0.92198  0.18446  Biso   1.000  C
  H127     1.0000 0.00190  0.90230  0.13970  Biso   1.000  H
  C93      1.0000 0.01320  0.91274  0.30981  Biso   1.000  C
  H128     1.0000 0.98940  0.88560  0.35080  Biso   1.000  H
  C94      1.0000 0.90400  0.82355  0.23915  Biso   1.000  C
  C95      1.0000 0.78660  0.83660  0.02840  Biso   1.000  C
  H129     1.0000 0.74930  0.88680  0.04570  Biso   1.000  H
  H130     1.0000 0.84850  0.84500  0.04600  Biso   1.000  H
  C96      1.0000 0.78690  0.83640  0.94910  Biso   1.000  C
  H131     1.0000 0.84910  0.84480  0.93200  Biso   1.000  H
  H132     1.0000 0.75030  0.88720  0.93170  Biso   1.000  H
  C97      1.0000 0.80810  0.67660  0.02700  Biso   1.000  C
  H133     1.0000 0.81460  0.87040  0.04360  Biso   1.000  H
  H134     1.0000 0.71350  0.88190  0.04490  Biso   1.000  H
  C98      1.0000 0.82430  0.80680  0.94770  Biso   1.000  C
  H135     1.0000 0.71720  0.88240  0.93100  Biso   1.000  H
  H136     1.0000 0.81760  0.86870  0.92970  Biso   1.000  H
  C99      1.0000 0.65790  0.73760  0.02740  Biso   1.000  C
  H137     1.0000 0.86600  0.82080  0.04360  Biso   1.000  H
  H138     1.0000 0.78560  0.88150  0.04580  Biso   1.000  H
  C100     1.0000 0.74020  0.84270  0.94860  Biso   1.000  C
  H139     1.0000 0.79120  0.87990  0.93250  Biso   1.000  H
  H140     1.0000 0.86970  0.81580  0.93030  Biso   1.000  H
  O21      1.0000 0.78327  0.62004  0.29402  Biso   1.000  O
  O22      1.0000 0.81780  0.63374  0.18061  Biso   1.000  O
  C101     1.0000 0.88576  0.51728  0.24440  Biso   1.000  C
  C102     1.0000 0.92198  0.47893  0.18446  Biso   1.000  C
  H141     1.0000 0.90230  0.49810  0.13970  Biso   1.000  H
  C103     1.0000 0.91274  0.48680  0.30981  Biso   1.000  C
  H142     1.0000 0.88560  0.51060  0.35080  Biso   1.000  H
  C104     1.0000 0.82355  0.59600  0.23915  Biso   1.000  C
  C105     1.0000 0.83660  0.71340  0.02840  Biso   1.000  C
  H143     1.0000 0.88680  0.75070  0.04570  Biso   1.000  H
  H144     1.0000 0.84500  0.65150  0.04600  Biso   1.000  H
  C106     1.0000 0.83640  0.71310  0.94910  Biso   1.000  C
  H145     1.0000 0.84480  0.65090  0.93200  Biso   1.000  H
  H146     1.0000 0.88720  0.74970  0.93170  Biso   1.000  H
  C107     1.0000 0.67660  0.69190  0.02700  Biso   1.000  C
  H147     1.0000 0.87040  0.68540  0.04360  Biso   1.000  H
  H148     1.0000 0.88190  0.78650  0.04490  Biso   1.000  H
  C108     1.0000 0.80680  0.67570  0.94770  Biso   1.000  C
  H149     1.0000 0.88240  0.78280  0.93100  Biso   1.000  H
  H150     1.0000 0.86870  0.68240  0.92970  Biso   1.000  H
  C109     1.0000 0.73760  0.84210  0.02740  Biso   1.000  C
  H151     1.0000 0.82080  0.63400  0.04360  Biso   1.000  H
  H152     1.0000 0.88150  0.71440  0.04580  Biso   1.000  H
  C110     1.0000 0.84270  0.75980  0.94860  Biso   1.000  C
  H153     1.0000 0.87990  0.70880  0.93250  Biso   1.000  H
  H154     1.0000 0.81580  0.63030  0.93030  Biso   1.000  H
  O23      1.0000 0.71673  0.87996  0.29402  Biso   1.000  O
  O24      1.0000 0.68220  0.86626  0.18061  Biso   1.000  O
  C111     1.0000 0.61424  0.98272  0.24440  Biso   1.000  C
  C112     1.0000 0.57802  0.02107  0.18446  Biso   1.000  C
  H155     1.0000 0.59770  0.00190  0.13970  Biso   1.000  H
  C113     1.0000 0.58726  0.01320  0.30981  Biso   1.000  C
  H156     1.0000 0.61440  0.98940  0.35080  Biso   1.000  H
  C114     1.0000 0.67645  0.90400  0.23915  Biso   1.000  C
  C115     1.0000 0.66340  0.78660  0.02840  Biso   1.000  C
  H157     1.0000 0.61320  0.74930  0.04570  Biso   1.000  H
  H158     1.0000 0.65500  0.84850  0.04600  Biso   1.000  H
  C116     1.0000 0.66360  0.78690  0.94910  Biso   1.000  C
  H159     1.0000 0.65520  0.84910  0.93200  Biso   1.000  H
  H160     1.0000 0.61280  0.75030  0.93170  Biso   1.000  H
  C117     1.0000 0.82340  0.80810  0.02700  Biso   1.000  C
  H161     1.0000 0.62960  0.81460  0.04360  Biso   1.000  H
  H162     1.0000 0.61810  0.71350  0.04490  Biso   1.000  H
  C118     1.0000 0.69320  0.82430  0.94770  Biso   1.000  C
  H163     1.0000 0.61760  0.71720  0.93100  Biso   1.000  H
  H164     1.0000 0.63130  0.81760  0.92970  Biso   1.000  H
  C119     1.0000 0.76240  0.65790  0.02740  Biso   1.000  C
  H165     1.0000 0.67920  0.86600  0.04360  Biso   1.000  H
  H166     1.0000 0.61850  0.78560  0.04580  Biso   1.000  H
  C120     1.0000 0.65730  0.74020  0.94860  Biso   1.000  C
  H167     1.0000 0.62010  0.79120  0.93250  Biso   1.000  H
  H168     1.0000 0.68420  0.86970  0.93030  Biso   1.000  H
  O25      1.0000 0.37996  0.21673  0.20598  Biso   1.000  O
  O26      1.0000 0.36626  0.18220  0.31939  Biso   1.000  O
  C121     1.0000 0.48272  0.11424  0.25560  Biso   1.000  C
  C122     1.0000 0.52107  0.07802  0.31554  Biso   1.000  C
  H169     1.0000 0.50190  0.09770  0.36030  Biso   1.000  H
  C123     1.0000 0.51320  0.08726  0.19019  Biso   1.000  C
  H170     1.0000 0.48940  0.11440  0.14920  Biso   1.000  H
  C124     1.0000 0.40400  0.17645  0.26085  Biso   1.000  C
  C125     1.0000 0.28660  0.16340  0.47160  Biso   1.000  C
  H171     1.0000 0.24930  0.11320  0.45430  Biso   1.000  H
  H172     1.0000 0.34850  0.15500  0.45400  Biso   1.000  H
  C126     1.0000 0.28690  0.16360  0.55090  Biso   1.000  C
  H173     1.0000 0.34910  0.15520  0.56800  Biso   1.000  H
  H174     1.0000 0.25030  0.11280  0.56830  Biso   1.000  H
  C127     1.0000 0.30810  0.32340  0.47300  Biso   1.000  C
  H175     1.0000 0.31460  0.12960  0.45640  Biso   1.000  H
  H176     1.0000 0.21350  0.11810  0.45510  Biso   1.000  H
  C128     1.0000 0.32430  0.19320  0.55230  Biso   1.000  C
  H177     1.0000 0.21720  0.11760  0.56900  Biso   1.000  H
  H178     1.0000 0.31760  0.13130  0.57030  Biso   1.000  H
  C129     1.0000 0.15790  0.26240  0.47260  Biso   1.000  C
  H179     1.0000 0.36600  0.17920  0.45640  Biso   1.000  H
  H180     1.0000 0.28560  0.11850  0.45420  Biso   1.000  H
  C130     1.0000 0.24020  0.15730  0.55140  Biso   1.000  C
  H181     1.0000 0.29120  0.12010  0.56750  Biso   1.000  H
  H182     1.0000 0.36970  0.18420  0.56970  Biso   1.000  H
  O27      1.0000 0.12004  0.28327  0.20598  Biso   1.000  O
  O28      1.0000 0.13374  0.31780  0.31939  Biso   1.000  O
  C131     1.0000 0.01728  0.38576  0.25560  Biso   1.000  C
  C132     1.0000 0.97893  0.42198  0.31554  Biso   1.000  C
  H183     1.0000 0.99810  0.40230  0.36030  Biso   1.000  H
  C133     1.0000 0.98680  0.41274  0.19019  Biso   1.000  C
  H184     1.0000 0.01060  0.38560  0.14920  Biso   1.000  H
  C134     1.0000 0.09600  0.32355  0.26085  Biso   1.000  C
  C135     1.0000 0.21340  0.33660  0.47160  Biso   1.000  C
  H185     1.0000 0.25070  0.38680  0.45430  Biso   1.000  H
  H186     1.0000 0.15150  0.34500  0.45400  Biso   1.000  H
  C136     1.0000 0.21310  0.33640  0.55090  Biso   1.000  C
  H187     1.0000 0.15090  0.34480  0.56800  Biso   1.000  H
  H188     1.0000 0.24970  0.38720  0.56830  Biso   1.000  H
  C137     1.0000 0.19190  0.17660  0.47300  Biso   1.000  C
  H189     1.0000 0.18540  0.37040  0.45640  Biso   1.000  H
  H190     1.0000 0.28650  0.38190  0.45510  Biso   1.000  H
  C138     1.0000 0.17570  0.30680  0.55230  Biso   1.000  C
  H191     1.0000 0.28280  0.38240  0.56900  Biso   1.000  H
  H192     1.0000 0.18240  0.36870  0.57030  Biso   1.000  H
  C139     1.0000 0.34210  0.23760  0.47260  Biso   1.000  C
  H193     1.0000 0.13400  0.32080  0.45640  Biso   1.000  H
  H194     1.0000 0.21440  0.38150  0.45420  Biso   1.000  H
  C140     1.0000 0.25980  0.34270  0.55140  Biso   1.000  C
  H195     1.0000 0.20880  0.37990  0.56750  Biso   1.000  H
  H196     1.0000 0.13030  0.31580  0.56970  Biso   1.000  H
  O29      1.0000 0.21673  0.12004  0.20598  Biso   1.000  O
  O30      1.0000 0.18220  0.13374  0.31939  Biso   1.000  O
  C141     1.0000 0.11424  0.01728  0.25560  Biso   1.000  C
  C142     1.0000 0.07802  0.97893  0.31554  Biso   1.000  C
  H197     1.0000 0.09770  0.99810  0.36030  Biso   1.000  H
  C143     1.0000 0.08726  0.98680  0.19019  Biso   1.000  C
  H198     1.0000 0.11440  0.01060  0.14920  Biso   1.000  H
  C144     1.0000 0.17645  0.09600  0.26085  Biso   1.000  C
  C145     1.0000 0.16340  0.21340  0.47160  Biso   1.000  C
  H199     1.0000 0.11320  0.25070  0.45430  Biso   1.000  H
  H200     1.0000 0.15500  0.15150  0.45400  Biso   1.000  H
  C146     1.0000 0.16360  0.21310  0.55090  Biso   1.000  C
  H201     1.0000 0.15520  0.15090  0.56800  Biso   1.000  H
  H202     1.0000 0.11280  0.24970  0.56830  Biso   1.000  H
  C147     1.0000 0.32340  0.19190  0.47300  Biso   1.000  C
  H203     1.0000 0.12960  0.18540  0.45640  Biso   1.000  H
  H204     1.0000 0.11810  0.28650  0.45510  Biso   1.000  H
  C148     1.0000 0.19320  0.17570  0.55230  Biso   1.000  C
  H205     1.0000 0.11760  0.28280  0.56900  Biso   1.000  H
  H206     1.0000 0.13130  0.18240  0.57030  Biso   1.000  H
  C149     1.0000 0.26240  0.34210  0.47260  Biso   1.000  C
  H207     1.0000 0.17920  0.13400  0.45640  Biso   1.000  H
  H208     1.0000 0.11850  0.21440  0.45420  Biso   1.000  H
  C150     1.0000 0.15730  0.25980  0.55140  Biso   1.000  C
  H209     1.0000 0.12010  0.20880  0.56750  Biso   1.000  H
  H210     1.0000 0.18420  0.13030  0.56970  Biso   1.000  H
  O31      1.0000 0.28327  0.37996  0.20598  Biso   1.000  O
  O32      1.0000 0.31780  0.36626  0.31939  Biso   1.000  O
  C151     1.0000 0.38576  0.48272  0.25560  Biso   1.000  C
  C152     1.0000 0.42198  0.52107  0.31554  Biso   1.000  C
  H211     1.0000 0.40230  0.50190  0.36030  Biso   1.000  H
  C153     1.0000 0.41274  0.51320  0.19019  Biso   1.000  C
  H212     1.0000 0.38560  0.48940  0.14920  Biso   1.000  H
  C154     1.0000 0.32355  0.40400  0.26085  Biso   1.000  C
  C155     1.0000 0.33660  0.28660  0.47160  Biso   1.000  C
  H213     1.0000 0.38680  0.24930  0.45430  Biso   1.000  H
  H214     1.0000 0.34500  0.34850  0.45400  Biso   1.000  H
  C156     1.0000 0.33640  0.28690  0.55090  Biso   1.000  C
  H215     1.0000 0.34480  0.34910  0.56800  Biso   1.000  H
  H216     1.0000 0.38720  0.25030  0.56830  Biso   1.000  H
  C157     1.0000 0.17660  0.30810  0.47300  Biso   1.000  C
  H217     1.0000 0.37040  0.31460  0.45640  Biso   1.000  H
  H218     1.0000 0.38190  0.21350  0.45510  Biso   1.000  H
  C158     1.0000 0.30680  0.32430  0.55230  Biso   1.000  C
  H219     1.0000 0.38240  0.21720  0.56900  Biso   1.000  H
  H220     1.0000 0.36870  0.31760  0.57030  Biso   1.000  H
  C159     1.0000 0.23760  0.15790  0.47260  Biso   1.000  C
  H221     1.0000 0.32080  0.36600  0.45640  Biso   1.000  H
  H222     1.0000 0.38150  0.28560  0.45420  Biso   1.000  H
  C160     1.0000 0.34270  0.24020  0.55140  Biso   1.000  C
  H223     1.0000 0.37990  0.29120  0.56750  Biso   1.000  H
  H224     1.0000 0.31580  0.36970  0.56970  Biso   1.000  H
  Zn1      1.0000 0.25000  0.25000  0.83865  Biso   1.000  Zn
  Zn2      1.0000 0.25000  0.25000  0.68555  Biso   1.000  Zn
  N1       1.0000 0.25000  0.25000  0.94550  Biso   1.000  N
  N2       1.0000 0.25000  0.25000  0.07910  Biso   1.000  N
  Zn3      1.0000 0.75000  0.75000  0.66135  Biso   1.000  Zn
  Zn4      1.0000 0.75000  0.75000  0.81445  Biso   1.000  Zn
  N3       1.0000 0.75000  0.75000  0.55450  Biso   1.000  N
  N4       1.0000 0.75000  0.75000  0.42090  Biso   1.000  N
  Zn5      1.0000 0.75000  0.75000  0.16135  Biso   1.000  Zn
  Zn6      1.0000 0.75000  0.75000  0.31445  Biso   1.000  Zn
  N5       1.0000 0.75000  0.75000  0.05450  Biso   1.000  N
  N6       1.0000 0.75000  0.75000  0.92090  Biso   1.000  N
  Zn7      1.0000 0.25000  0.25000  0.33865  Biso   1.000  Zn
  Zn8      1.0000 0.25000  0.25000  0.18555  Biso   1.000  Zn
  N7       1.0000 0.25000  0.25000  0.44550  Biso   1.000  N
  N8       1.0000 0.25000  0.25000  0.57910  Biso   1.000  N
