data_image0
_cell_length_a       10.2033
_cell_length_b       10.2033
_cell_length_c       9.5545
_cell_angle_alpha    90
_cell_angle_beta     90
_cell_angle_gamma    90

_symmetry_space_group_name_H-M    "P 1"
_symmetry_int_tables_number       1

loop_
  _symmetry_equiv_pos_as_xyz
  'x, y, z'

loop_
  _atom_site_label
  _atom_site_occupancy
  _atom_site_fract_x
  _atom_site_fract_y
  _atom_site_fract_z
  _atom_site_thermal_displace_type
  _atom_site_B_iso_or_equiv
  _atom_site_type_symbol
  O1       1.0000 0.19720  0.02440  0.22020  Biso   1.000  O
  O2       1.0000 0.28790  0.76440  0.20100  Biso   1.000  O
  O3       1.0000 0.69720  0.52440  0.72020  Biso   1.000  O
  O4       1.0000 0.78790  0.26440  0.70100  Biso   1.000  O
  O5       1.0000 0.80280  0.97560  0.22020  Biso   1.000  O
  O6       1.0000 0.71210  0.23560  0.20100  Biso   1.000  O
  O7       1.0000 0.30280  0.47560  0.72020  Biso   1.000  O
  O8       1.0000 0.21210  0.73560  0.70100  Biso   1.000  O
  O9       1.0000 0.02440  0.80280  0.77980  Biso   1.000  O
  O10      1.0000 0.76440  0.71210  0.79900  Biso   1.000  O
  O11      1.0000 0.52440  0.30280  0.27980  Biso   1.000  O
  O12      1.0000 0.26440  0.21210  0.29900  Biso   1.000  O
  O13      1.0000 0.97560  0.19720  0.77980  Biso   1.000  O
  O14      1.0000 0.23560  0.28790  0.79900  Biso   1.000  O
  O15      1.0000 0.47560  0.69720  0.27980  Biso   1.000  O
  O16      1.0000 0.73560  0.78790  0.29900  Biso   1.000  O
  O17      1.0000 0.80280  0.02440  0.77980  Biso   1.000  O
  O18      1.0000 0.71210  0.76440  0.79900  Biso   1.000  O
  O19      1.0000 0.30280  0.52440  0.27980  Biso   1.000  O
  O20      1.0000 0.21210  0.26440  0.29900  Biso   1.000  O
  O21      1.0000 0.19720  0.97560  0.77980  Biso   1.000  O
  O22      1.0000 0.28790  0.23560  0.79900  Biso   1.000  O
  O23      1.0000 0.69720  0.47560  0.27980  Biso   1.000  O
  O24      1.0000 0.78790  0.73560  0.29900  Biso   1.000  O
  O25      1.0000 0.97560  0.80280  0.22020  Biso   1.000  O
  O26      1.0000 0.23560  0.71210  0.20100  Biso   1.000  O
  O27      1.0000 0.47560  0.30280  0.72020  Biso   1.000  O
  O28      1.0000 0.73560  0.21210  0.70100  Biso   1.000  O
  O29      1.0000 0.02440  0.19720  0.22020  Biso   1.000  O
  O30      1.0000 0.76440  0.28790  0.20100  Biso   1.000  O
  O31      1.0000 0.52440  0.69720  0.72020  Biso   1.000  O
  O32      1.0000 0.26440  0.78790  0.70100  Biso   1.000  O
  Co1      1.0000 0.13302  0.86698  0.13280  Biso   1.000  Co
  P1       1.0000 0.16368  0.83632  0.80760  Biso   1.000  P
  O33      1.0000 0.20310  0.79690  0.95750  Biso   1.000  O
  H1       1.0000 0.26600  0.73400  0.79880  Biso   1.000  H
  Co2      1.0000 0.63302  0.36698  0.63280  Biso   1.000  Co
  P2       1.0000 0.66368  0.33632  0.30760  Biso   1.000  P
  O34      1.0000 0.70310  0.29690  0.45750  Biso   1.000  O
  H2       1.0000 0.76600  0.23400  0.29880  Biso   1.000  H
  Co3      1.0000 0.86698  0.13302  0.13280  Biso   1.000  Co
  P3       1.0000 0.83632  0.16368  0.80760  Biso   1.000  P
  O35      1.0000 0.79690  0.20310  0.95750  Biso   1.000  O
  H3       1.0000 0.73400  0.26600  0.79880  Biso   1.000  H
  Co4      1.0000 0.36698  0.63302  0.63280  Biso   1.000  Co
  P4       1.0000 0.33632  0.66368  0.30760  Biso   1.000  P
  O36      1.0000 0.29690  0.70310  0.45750  Biso   1.000  O
  H4       1.0000 0.23400  0.76600  0.29880  Biso   1.000  H
  Co5      1.0000 0.86698  0.86698  0.86720  Biso   1.000  Co
  P5       1.0000 0.83632  0.83632  0.19240  Biso   1.000  P
  O37      1.0000 0.79690  0.79690  0.04250  Biso   1.000  O
  H5       1.0000 0.73400  0.73400  0.20120  Biso   1.000  H
  Co6      1.0000 0.36698  0.36698  0.36720  Biso   1.000  Co
  P6       1.0000 0.33632  0.33632  0.69240  Biso   1.000  P
  O38      1.0000 0.29690  0.29690  0.54250  Biso   1.000  O
  H6       1.0000 0.23400  0.23400  0.70120  Biso   1.000  H
  Co7      1.0000 0.13302  0.13302  0.86720  Biso   1.000  Co
  P7       1.0000 0.16368  0.16368  0.19240  Biso   1.000  P
  O39      1.0000 0.20310  0.20310  0.04250  Biso   1.000  O
  H7       1.0000 0.26600  0.26600  0.20120  Biso   1.000  H
  Co8      1.0000 0.63302  0.63302  0.36720  Biso   1.000  Co
  P8       1.0000 0.66368  0.66368  0.69240  Biso   1.000  P
  O40      1.0000 0.70310  0.70310  0.54250  Biso   1.000  O
  H8       1.0000 0.76600  0.76600  0.70120  Biso   1.000  H
