data_image0
_cell_length_a       14.6484
_cell_length_b       16.4358
_cell_length_c       16.5923
_cell_angle_alpha    90
_cell_angle_beta     90
_cell_angle_gamma    90

_symmetry_space_group_name_H-M    "P 1"
_symmetry_int_tables_number       1

loop_
  _symmetry_equiv_pos_as_xyz
  'x, y, z'

loop_
  _atom_site_label
  _atom_site_occupancy
  _atom_site_fract_x
  _atom_site_fract_y
  _atom_site_fract_z
  _atom_site_thermal_displace_type
  _atom_site_B_iso_or_equiv
  _atom_site_type_symbol
  O1       1.0000 0.94460  0.90340  0.52450  Biso   1.000  O
  O2       1.0000 0.04350  0.85630  0.61560  Biso   1.000  O
  O3       1.0000 0.22380  0.57110  0.41640  Biso   1.000  O
  O4       1.0000 0.23490  0.61640  0.53480  Biso   1.000  O
  C1       1.0000 0.03520  0.76700  0.26340  Biso   1.000  C
  H1       1.0000 0.06440  0.72030  0.24000  Biso   1.000  H
  H2       1.0000 0.06440  0.81360  0.24010  Biso   1.000  H
  O5       1.0000 0.86870  0.03370  0.63530  Biso   1.000  O
  O6       1.0000 0.89780  0.93400  0.72280  Biso   1.000  O
  O7       1.0000 0.64310  0.25240  0.72420  Biso   1.000  O
  O8       1.0000 0.56780  0.22260  0.83290  Biso   1.000  O
  C2       1.0000 0.76050  0.02970  0.98580  Biso   1.000  C
  H3       1.0000 0.70250  0.05160  0.00160  Biso   1.000  H
  H4       1.0000 0.80470  0.05880  0.01740  Biso   1.000  H
  C3       1.0000 0.00850  0.85910  0.54540  Biso   1.000  C
  C4       1.0000 0.20110  0.61960  0.46600  Biso   1.000  C
  C5       1.0000 0.04950  0.80520  0.48360  Biso   1.000  C
  C6       1.0000 0.10950  0.74270  0.50520  Biso   1.000  C
  H5       1.0000 0.12610  0.73540  0.55880  Biso   1.000  H
  C7       1.0000 0.14440  0.69120  0.44550  Biso   1.000  C
  C8       1.0000 0.12160  0.70540  0.36710  Biso   1.000  C
  H6       1.0000 0.14570  0.67220  0.32700  Biso   1.000  H
  C9       1.0000 0.06270  0.76910  0.34540  Biso   1.000  C
  C10      1.0000 0.02400  0.81480  0.40360  Biso   1.000  C
  H7       1.0000 0.97980  0.85300  0.39000  Biso   1.000  H
  C11      1.0000 0.86500  0.00190  0.70390  Biso   1.000  C
  C12      1.0000 0.62740  0.20700  0.78680  Biso   1.000  C
  C13      1.0000 0.81150  0.04630  0.76790  Biso   1.000  C
  C14      1.0000 0.75400  0.10810  0.74730  Biso   1.000  C
  H8       1.0000 0.75030  0.12570  0.69410  Biso   1.000  H
  C15      1.0000 0.70100  0.14450  0.80690  Biso   1.000  C
  C16      1.0000 0.70970  0.11950  0.88720  Biso   1.000  C
  H9       1.0000 0.67700  0.13990  0.92180  Biso   1.000  H
  C17      1.0000 0.77280  0.06100  0.90890  Biso   1.000  C
  C18      1.0000 0.81950  0.01750  0.84640  Biso   1.000  C
  H10      1.0000 0.85410  0.97150  0.85790  Biso   1.000  H
  O9       1.0000 0.44460  0.40340  0.52450  Biso   1.000  O
  O10      1.0000 0.54350  0.35630  0.61560  Biso   1.000  O
  O11      1.0000 0.72380  0.07110  0.41640  Biso   1.000  O
  O12      1.0000 0.73490  0.11640  0.53480  Biso   1.000  O
  C19      1.0000 0.53520  0.26700  0.26340  Biso   1.000  C
  H11      1.0000 0.56440  0.22030  0.24000  Biso   1.000  H
  H12      1.0000 0.56440  0.31360  0.24010  Biso   1.000  H
  O13      1.0000 0.36870  0.53370  0.63530  Biso   1.000  O
  O14      1.0000 0.39780  0.43400  0.72280  Biso   1.000  O
  O15      1.0000 0.14310  0.75240  0.72420  Biso   1.000  O
  O16      1.0000 0.06780  0.72260  0.83290  Biso   1.000  O
  C20      1.0000 0.26050  0.52970  0.98580  Biso   1.000  C
  H13      1.0000 0.20250  0.55160  0.00160  Biso   1.000  H
  H14      1.0000 0.30470  0.55880  0.01740  Biso   1.000  H
  C21      1.0000 0.50850  0.35910  0.54540  Biso   1.000  C
  C22      1.0000 0.70110  0.11960  0.46600  Biso   1.000  C
  C23      1.0000 0.54950  0.30520  0.48360  Biso   1.000  C
  C24      1.0000 0.60950  0.24270  0.50520  Biso   1.000  C
  H15      1.0000 0.62610  0.23540  0.55880  Biso   1.000  H
  C25      1.0000 0.64440  0.19120  0.44550  Biso   1.000  C
  C26      1.0000 0.62160  0.20540  0.36710  Biso   1.000  C
  H16      1.0000 0.64570  0.17220  0.32700  Biso   1.000  H
  C27      1.0000 0.56270  0.26910  0.34540  Biso   1.000  C
  C28      1.0000 0.52400  0.31480  0.40360  Biso   1.000  C
  H17      1.0000 0.47980  0.35300  0.39000  Biso   1.000  H
  C29      1.0000 0.36500  0.50190  0.70390  Biso   1.000  C
  C30      1.0000 0.12740  0.70700  0.78680  Biso   1.000  C
  C31      1.0000 0.31150  0.54630  0.76790  Biso   1.000  C
  C32      1.0000 0.25400  0.60810  0.74730  Biso   1.000  C
  H18      1.0000 0.25030  0.62570  0.69410  Biso   1.000  H
  C33      1.0000 0.20100  0.64450  0.80690  Biso   1.000  C
  C34      1.0000 0.20970  0.61950  0.88720  Biso   1.000  C
  H19      1.0000 0.17700  0.63990  0.92180  Biso   1.000  H
  C35      1.0000 0.27280  0.56100  0.90890  Biso   1.000  C
  C36      1.0000 0.31950  0.51750  0.84640  Biso   1.000  C
  H20      1.0000 0.35410  0.47150  0.85790  Biso   1.000  H
  O17      1.0000 0.05540  0.09660  0.02450  Biso   1.000  O
  O18      1.0000 0.95650  0.14370  0.11560  Biso   1.000  O
  O19      1.0000 0.77620  0.42890  0.91640  Biso   1.000  O
  O20      1.0000 0.76510  0.38360  0.03480  Biso   1.000  O
  C37      1.0000 0.96480  0.23300  0.76340  Biso   1.000  C
  H21      1.0000 0.93560  0.27970  0.74000  Biso   1.000  H
  H22      1.0000 0.93560  0.18640  0.74010  Biso   1.000  H
  O21      1.0000 0.13130  0.96630  0.13530  Biso   1.000  O
  O22      1.0000 0.10220  0.06600  0.22280  Biso   1.000  O
  O23      1.0000 0.35690  0.74760  0.22420  Biso   1.000  O
  O24      1.0000 0.43220  0.77740  0.33290  Biso   1.000  O
  C38      1.0000 0.23950  0.97030  0.48580  Biso   1.000  C
  H23      1.0000 0.29750  0.94840  0.50160  Biso   1.000  H
  H24      1.0000 0.19530  0.94120  0.51740  Biso   1.000  H
  C39      1.0000 0.99150  0.14090  0.04540  Biso   1.000  C
  C40      1.0000 0.79890  0.38040  0.96600  Biso   1.000  C
  C41      1.0000 0.95050  0.19480  0.98360  Biso   1.000  C
  C42      1.0000 0.89050  0.25730  0.00520  Biso   1.000  C
  H25      1.0000 0.87390  0.26460  0.05880  Biso   1.000  H
  C43      1.0000 0.85560  0.30880  0.94550  Biso   1.000  C
  C44      1.0000 0.87840  0.29460  0.86710  Biso   1.000  C
  H26      1.0000 0.85430  0.32780  0.82700  Biso   1.000  H
  C45      1.0000 0.93730  0.23090  0.84540  Biso   1.000  C
  C46      1.0000 0.97600  0.18520  0.90360  Biso   1.000  C
  H27      1.0000 0.02020  0.14700  0.89000  Biso   1.000  H
  C47      1.0000 0.13500  0.99810  0.20390  Biso   1.000  C
  C48      1.0000 0.37260  0.79300  0.28680  Biso   1.000  C
  C49      1.0000 0.18850  0.95370  0.26790  Biso   1.000  C
  C50      1.0000 0.24600  0.89190  0.24730  Biso   1.000  C
  H28      1.0000 0.24970  0.87430  0.19410  Biso   1.000  H
  C51      1.0000 0.29900  0.85550  0.30690  Biso   1.000  C
  C52      1.0000 0.29030  0.88050  0.38720  Biso   1.000  C
  H29      1.0000 0.32300  0.86010  0.42180  Biso   1.000  H
  C53      1.0000 0.22720  0.93900  0.40890  Biso   1.000  C
  C54      1.0000 0.18050  0.98250  0.34640  Biso   1.000  C
  H30      1.0000 0.14590  0.02850  0.35790  Biso   1.000  H
  O25      1.0000 0.55540  0.59660  0.02450  Biso   1.000  O
  O26      1.0000 0.45650  0.64370  0.11560  Biso   1.000  O
  O27      1.0000 0.27620  0.92890  0.91640  Biso   1.000  O
  O28      1.0000 0.26510  0.88360  0.03480  Biso   1.000  O
  C55      1.0000 0.46480  0.73300  0.76340  Biso   1.000  C
  H31      1.0000 0.43560  0.77970  0.74000  Biso   1.000  H
  H32      1.0000 0.43560  0.68640  0.74010  Biso   1.000  H
  O29      1.0000 0.63130  0.46630  0.13530  Biso   1.000  O
  O30      1.0000 0.60220  0.56600  0.22280  Biso   1.000  O
  O31      1.0000 0.85690  0.24760  0.22420  Biso   1.000  O
  O32      1.0000 0.93220  0.27740  0.33290  Biso   1.000  O
  C56      1.0000 0.73950  0.47030  0.48580  Biso   1.000  C
  H33      1.0000 0.79750  0.44840  0.50160  Biso   1.000  H
  H34      1.0000 0.69530  0.44120  0.51740  Biso   1.000  H
  C57      1.0000 0.49150  0.64090  0.04540  Biso   1.000  C
  C58      1.0000 0.29890  0.88040  0.96600  Biso   1.000  C
  C59      1.0000 0.45050  0.69480  0.98360  Biso   1.000  C
  C60      1.0000 0.39050  0.75730  0.00520  Biso   1.000  C
  H35      1.0000 0.37390  0.76460  0.05880  Biso   1.000  H
  C61      1.0000 0.35560  0.80880  0.94550  Biso   1.000  C
  C62      1.0000 0.37840  0.79460  0.86710  Biso   1.000  C
  H36      1.0000 0.35430  0.82780  0.82700  Biso   1.000  H
  C63      1.0000 0.43730  0.73090  0.84540  Biso   1.000  C
  C64      1.0000 0.47600  0.68520  0.90360  Biso   1.000  C
  H37      1.0000 0.52020  0.64700  0.89000  Biso   1.000  H
  C65      1.0000 0.63500  0.49810  0.20390  Biso   1.000  C
  C66      1.0000 0.87260  0.29300  0.28680  Biso   1.000  C
  C67      1.0000 0.68850  0.45370  0.26790  Biso   1.000  C
  C68      1.0000 0.74600  0.39190  0.24730  Biso   1.000  C
  H38      1.0000 0.74970  0.37430  0.19410  Biso   1.000  H
  C69      1.0000 0.79900  0.35550  0.30690  Biso   1.000  C
  C70      1.0000 0.79030  0.38050  0.38720  Biso   1.000  C
  H39      1.0000 0.82300  0.36010  0.42180  Biso   1.000  H
  C71      1.0000 0.72720  0.43900  0.40890  Biso   1.000  C
  C72      1.0000 0.68050  0.48250  0.34640  Biso   1.000  C
  H40      1.0000 0.64590  0.52850  0.35790  Biso   1.000  H
  O33      1.0000 0.05540  0.90340  0.97550  Biso   1.000  O
  O34      1.0000 0.95650  0.85630  0.88440  Biso   1.000  O
  O35      1.0000 0.77620  0.57110  0.08360  Biso   1.000  O
  O36      1.0000 0.76510  0.61640  0.96520  Biso   1.000  O
  C73      1.0000 0.96480  0.76700  0.23660  Biso   1.000  C
  H41      1.0000 0.93560  0.72030  0.26000  Biso   1.000  H
  H42      1.0000 0.93560  0.81360  0.25990  Biso   1.000  H
  O37      1.0000 0.13130  0.03370  0.86470  Biso   1.000  O
  O38      1.0000 0.10220  0.93400  0.77720  Biso   1.000  O
  O39      1.0000 0.35690  0.25240  0.77580  Biso   1.000  O
  O40      1.0000 0.43220  0.22260  0.66710  Biso   1.000  O
  C74      1.0000 0.23950  0.02970  0.51420  Biso   1.000  C
  H43      1.0000 0.29750  0.05160  0.49840  Biso   1.000  H
  H44      1.0000 0.19530  0.05880  0.48260  Biso   1.000  H
  C75      1.0000 0.99150  0.85910  0.95460  Biso   1.000  C
  C76      1.0000 0.79890  0.61960  0.03400  Biso   1.000  C
  C77      1.0000 0.95050  0.80520  0.01640  Biso   1.000  C
  C78      1.0000 0.89050  0.74270  0.99480  Biso   1.000  C
  H45      1.0000 0.87390  0.73540  0.94120  Biso   1.000  H
  C79      1.0000 0.85560  0.69120  0.05450  Biso   1.000  C
  C80      1.0000 0.87840  0.70540  0.13290  Biso   1.000  C
  H46      1.0000 0.85430  0.67220  0.17300  Biso   1.000  H
  C81      1.0000 0.93730  0.76910  0.15460  Biso   1.000  C
  C82      1.0000 0.97600  0.81480  0.09640  Biso   1.000  C
  H47      1.0000 0.02020  0.85300  0.11000  Biso   1.000  H
  C83      1.0000 0.13500  0.00190  0.79610  Biso   1.000  C
  C84      1.0000 0.37260  0.20700  0.71320  Biso   1.000  C
  C85      1.0000 0.18850  0.04630  0.73210  Biso   1.000  C
  C86      1.0000 0.24600  0.10810  0.75270  Biso   1.000  C
  H48      1.0000 0.24970  0.12570  0.80590  Biso   1.000  H
  C87      1.0000 0.29900  0.14450  0.69310  Biso   1.000  C
  C88      1.0000 0.29030  0.11950  0.61280  Biso   1.000  C
  H49      1.0000 0.32300  0.13990  0.57820  Biso   1.000  H
  C89      1.0000 0.22720  0.06100  0.59110  Biso   1.000  C
  C90      1.0000 0.18050  0.01750  0.65360  Biso   1.000  C
  H50      1.0000 0.14590  0.97150  0.64210  Biso   1.000  H
  O41      1.0000 0.55540  0.40340  0.97550  Biso   1.000  O
  O42      1.0000 0.45650  0.35630  0.88440  Biso   1.000  O
  O43      1.0000 0.27620  0.07110  0.08360  Biso   1.000  O
  O44      1.0000 0.26510  0.11640  0.96520  Biso   1.000  O
  C91      1.0000 0.46480  0.26700  0.23660  Biso   1.000  C
  H51      1.0000 0.43560  0.22030  0.26000  Biso   1.000  H
  H52      1.0000 0.43560  0.31360  0.25990  Biso   1.000  H
  O45      1.0000 0.63130  0.53370  0.86470  Biso   1.000  O
  O46      1.0000 0.60220  0.43400  0.77720  Biso   1.000  O
  O47      1.0000 0.85690  0.75240  0.77580  Biso   1.000  O
  O48      1.0000 0.93220  0.72260  0.66710  Biso   1.000  O
  C92      1.0000 0.73950  0.52970  0.51420  Biso   1.000  C
  H53      1.0000 0.79750  0.55160  0.49840  Biso   1.000  H
  H54      1.0000 0.69530  0.55880  0.48260  Biso   1.000  H
  C93      1.0000 0.49150  0.35910  0.95460  Biso   1.000  C
  C94      1.0000 0.29890  0.11960  0.03400  Biso   1.000  C
  C95      1.0000 0.45050  0.30520  0.01640  Biso   1.000  C
  C96      1.0000 0.39050  0.24270  0.99480  Biso   1.000  C
  H55      1.0000 0.37390  0.23540  0.94120  Biso   1.000  H
  C97      1.0000 0.35560  0.19120  0.05450  Biso   1.000  C
  C98      1.0000 0.37840  0.20540  0.13290  Biso   1.000  C
  H56      1.0000 0.35430  0.17220  0.17300  Biso   1.000  H
  C99      1.0000 0.43730  0.26910  0.15460  Biso   1.000  C
  C100     1.0000 0.47600  0.31480  0.09640  Biso   1.000  C
  H57      1.0000 0.52020  0.35300  0.11000  Biso   1.000  H
  C101     1.0000 0.63500  0.50190  0.79610  Biso   1.000  C
  C102     1.0000 0.87260  0.70700  0.71320  Biso   1.000  C
  C103     1.0000 0.68850  0.54630  0.73210  Biso   1.000  C
  C104     1.0000 0.74600  0.60810  0.75270  Biso   1.000  C
  H58      1.0000 0.74970  0.62570  0.80590  Biso   1.000  H
  C105     1.0000 0.79900  0.64450  0.69310  Biso   1.000  C
  C106     1.0000 0.79030  0.61950  0.61280  Biso   1.000  C
  H59      1.0000 0.82300  0.63990  0.57820  Biso   1.000  H
  C107     1.0000 0.72720  0.56100  0.59110  Biso   1.000  C
  C108     1.0000 0.68050  0.51750  0.65360  Biso   1.000  C
  H60      1.0000 0.64590  0.47150  0.64210  Biso   1.000  H
  O49      1.0000 0.94460  0.09660  0.47550  Biso   1.000  O
  O50      1.0000 0.04350  0.14370  0.38440  Biso   1.000  O
  O51      1.0000 0.22380  0.42890  0.58360  Biso   1.000  O
  O52      1.0000 0.23490  0.38360  0.46520  Biso   1.000  O
  C109     1.0000 0.03520  0.23300  0.73660  Biso   1.000  C
  H61      1.0000 0.06440  0.27970  0.76000  Biso   1.000  H
  H62      1.0000 0.06440  0.18640  0.75990  Biso   1.000  H
  O53      1.0000 0.86870  0.96630  0.36470  Biso   1.000  O
  O54      1.0000 0.89780  0.06600  0.27720  Biso   1.000  O
  O55      1.0000 0.64310  0.74760  0.27580  Biso   1.000  O
  O56      1.0000 0.56780  0.77740  0.16710  Biso   1.000  O
  C110     1.0000 0.76050  0.97030  0.01420  Biso   1.000  C
  H63      1.0000 0.70250  0.94840  0.99840  Biso   1.000  H
  H64      1.0000 0.80470  0.94120  0.98260  Biso   1.000  H
  C111     1.0000 0.00850  0.14090  0.45460  Biso   1.000  C
  C112     1.0000 0.20110  0.38040  0.53400  Biso   1.000  C
  C113     1.0000 0.04950  0.19480  0.51640  Biso   1.000  C
  C114     1.0000 0.10950  0.25730  0.49480  Biso   1.000  C
  H65      1.0000 0.12610  0.26460  0.44120  Biso   1.000  H
  C115     1.0000 0.14440  0.30880  0.55450  Biso   1.000  C
  C116     1.0000 0.12160  0.29460  0.63290  Biso   1.000  C
  H66      1.0000 0.14570  0.32780  0.67300  Biso   1.000  H
  C117     1.0000 0.06270  0.23090  0.65460  Biso   1.000  C
  C118     1.0000 0.02400  0.18520  0.59640  Biso   1.000  C
  H67      1.0000 0.97980  0.14700  0.61000  Biso   1.000  H
  C119     1.0000 0.86500  0.99810  0.29610  Biso   1.000  C
  C120     1.0000 0.62740  0.79300  0.21320  Biso   1.000  C
  C121     1.0000 0.81150  0.95370  0.23210  Biso   1.000  C
  C122     1.0000 0.75400  0.89190  0.25270  Biso   1.000  C
  H68      1.0000 0.75030  0.87430  0.30590  Biso   1.000  H
  C123     1.0000 0.70100  0.85550  0.19310  Biso   1.000  C
  C124     1.0000 0.70970  0.88050  0.11280  Biso   1.000  C
  H69      1.0000 0.67700  0.86010  0.07820  Biso   1.000  H
  C125     1.0000 0.77280  0.93900  0.09110  Biso   1.000  C
  C126     1.0000 0.81950  0.98250  0.15360  Biso   1.000  C
  H70      1.0000 0.85410  0.02850  0.14210  Biso   1.000  H
  O57      1.0000 0.44460  0.59660  0.47550  Biso   1.000  O
  O58      1.0000 0.54350  0.64370  0.38440  Biso   1.000  O
  O59      1.0000 0.72380  0.92890  0.58360  Biso   1.000  O
  O60      1.0000 0.73490  0.88360  0.46520  Biso   1.000  O
  C127     1.0000 0.53520  0.73300  0.73660  Biso   1.000  C
  H71      1.0000 0.56440  0.77970  0.76000  Biso   1.000  H
  H72      1.0000 0.56440  0.68640  0.75990  Biso   1.000  H
  O61      1.0000 0.36870  0.46630  0.36470  Biso   1.000  O
  O62      1.0000 0.39780  0.56600  0.27720  Biso   1.000  O
  O63      1.0000 0.14310  0.24760  0.27580  Biso   1.000  O
  O64      1.0000 0.06780  0.27740  0.16710  Biso   1.000  O
  C128     1.0000 0.26050  0.47030  0.01420  Biso   1.000  C
  H73      1.0000 0.20250  0.44840  0.99840  Biso   1.000  H
  H74      1.0000 0.30470  0.44120  0.98260  Biso   1.000  H
  C129     1.0000 0.50850  0.64090  0.45460  Biso   1.000  C
  C130     1.0000 0.70110  0.88040  0.53400  Biso   1.000  C
  C131     1.0000 0.54950  0.69480  0.51640  Biso   1.000  C
  C132     1.0000 0.60950  0.75730  0.49480  Biso   1.000  C
  H75      1.0000 0.62610  0.76460  0.44120  Biso   1.000  H
  C133     1.0000 0.64440  0.80880  0.55450  Biso   1.000  C
  C134     1.0000 0.62160  0.79460  0.63290  Biso   1.000  C
  H76      1.0000 0.64570  0.82780  0.67300  Biso   1.000  H
  C135     1.0000 0.56270  0.73090  0.65460  Biso   1.000  C
  C136     1.0000 0.52400  0.68520  0.59640  Biso   1.000  C
  H77      1.0000 0.47980  0.64700  0.61000  Biso   1.000  H
  C137     1.0000 0.36500  0.49810  0.29610  Biso   1.000  C
  C138     1.0000 0.12740  0.29300  0.21320  Biso   1.000  C
  C139     1.0000 0.31150  0.45370  0.23210  Biso   1.000  C
  C140     1.0000 0.25400  0.39190  0.25270  Biso   1.000  C
  H78      1.0000 0.25030  0.37430  0.30590  Biso   1.000  H
  C141     1.0000 0.20100  0.35550  0.19310  Biso   1.000  C
  C142     1.0000 0.20970  0.38050  0.11280  Biso   1.000  C
  H79      1.0000 0.17700  0.36010  0.07820  Biso   1.000  H
  C143     1.0000 0.27280  0.43900  0.09110  Biso   1.000  C
  C144     1.0000 0.31950  0.48250  0.15360  Biso   1.000  C
  H80      1.0000 0.35410  0.52850  0.14210  Biso   1.000  H
  Gd1      1.0000 0.83793  0.00000  0.50000  Biso   1.000  Gd
  Gd2      1.0000 0.33793  0.50000  0.50000  Biso   1.000  Gd
  Gd3      1.0000 0.16207  0.00000  0.00000  Biso   1.000  Gd
  Gd4      1.0000 0.66207  0.50000  0.00000  Biso   1.000  Gd
  Gd5      1.0000 0.00000  0.83214  0.75000  Biso   1.000  Gd
  Gd6      1.0000 0.50000  0.33214  0.75000  Biso   1.000  Gd
  Gd7      1.0000 0.00000  0.16786  0.25000  Biso   1.000  Gd
  Gd8      1.0000 0.50000  0.66786  0.25000  Biso   1.000  Gd
