data_image0
_cell_length_a       14.6702
_cell_length_b       16.3686
_cell_length_c       16.5747
_cell_angle_alpha    90
_cell_angle_beta     90
_cell_angle_gamma    90

_symmetry_space_group_name_H-M    "P 1"
_symmetry_int_tables_number       1

loop_
  _symmetry_equiv_pos_as_xyz
  'x, y, z'

loop_
  _atom_site_label
  _atom_site_occupancy
  _atom_site_fract_x
  _atom_site_fract_y
  _atom_site_fract_z
  _atom_site_thermal_displace_type
  _atom_site_B_iso_or_equiv
  _atom_site_type_symbol
  O1       1.0000 0.76220  0.11660  0.53480  Biso   1.000  O
  O2       1.0000 0.77350  0.07160  0.41620  Biso   1.000  O
  O3       1.0000 0.95740  0.35710  0.61540  Biso   1.000  O
  O4       1.0000 0.05520  0.40310  0.52410  Biso   1.000  O
  O5       1.0000 0.60160  0.93220  0.72250  Biso   1.000  O
  O6       1.0000 0.63110  0.03470  0.63440  Biso   1.000  O
  O7       1.0000 0.85900  0.25330  0.72340  Biso   1.000  O
  O8       1.0000 0.93400  0.22060  0.83070  Biso   1.000  O
  C1       1.0000 0.96520  0.26630  0.26200  Biso   1.000  C
  H1       1.0000 0.93770  0.31450  0.23960  Biso   1.000  H
  H2       1.0000 0.93980  0.22560  0.23930  Biso   1.000  H
  C2       1.0000 0.79730  0.12030  0.46620  Biso   1.000  C
  C3       1.0000 0.99260  0.35870  0.54620  Biso   1.000  C
  C4       1.0000 0.85400  0.19000  0.44530  Biso   1.000  C
  C5       1.0000 0.89010  0.24190  0.50580  Biso   1.000  C
  H3       1.0000 0.87520  0.23390  0.55790  Biso   1.000  H
  C6       1.0000 0.95080  0.30490  0.48460  Biso   1.000  C
  C7       1.0000 0.97480  0.31440  0.40390  Biso   1.000  C
  H4       1.0000 0.01090  0.34900  0.39200  Biso   1.000  H
  C8       1.0000 0.93920  0.26520  0.34340  Biso   1.000  C
  C9       1.0000 0.87660  0.20520  0.36470  Biso   1.000  C
  H5       1.0000 0.84910  0.17440  0.32440  Biso   1.000  H
  C10      1.0000 0.63550  0.00150  0.70280  Biso   1.000  C
  C11      1.0000 0.87130  0.20570  0.78480  Biso   1.000  C
  C12      1.0000 0.68730  0.04560  0.76800  Biso   1.000  C
  C13      1.0000 0.67890  0.02080  0.84630  Biso   1.000  C
  H6       1.0000 0.63990  0.97790  0.85930  Biso   1.000  H
  C14      1.0000 0.72870  0.05970  0.90710  Biso   1.000  C
  C15      1.0000 0.78450  0.12110  0.88780  Biso   1.000  C
  H7       1.0000 0.81110  0.14450  0.92310  Biso   1.000  H
  C16      1.0000 0.80030  0.14440  0.80580  Biso   1.000  C
  C17      1.0000 0.74660  0.10780  0.74790  Biso   1.000  C
  H8       1.0000 0.75040  0.12530  0.69460  Biso   1.000  H
  C18      1.0000 0.73390  0.03070  0.98690  Biso   1.000  C
  H9       1.0000 0.68330  0.05640  0.01330  Biso   1.000  H
  H10      1.0000 0.78720  0.03840  0.99410  Biso   1.000  H
  O9       1.0000 0.26220  0.61660  0.53480  Biso   1.000  O
  O10      1.0000 0.27350  0.57160  0.41620  Biso   1.000  O
  O11      1.0000 0.45740  0.85710  0.61540  Biso   1.000  O
  O12      1.0000 0.55520  0.90310  0.52410  Biso   1.000  O
  O13      1.0000 0.10160  0.43220  0.72250  Biso   1.000  O
  O14      1.0000 0.13110  0.53470  0.63440  Biso   1.000  O
  O15      1.0000 0.35900  0.75330  0.72340  Biso   1.000  O
  O16      1.0000 0.43400  0.72060  0.83070  Biso   1.000  O
  C19      1.0000 0.46520  0.76630  0.26200  Biso   1.000  C
  H11      1.0000 0.43770  0.81450  0.23960  Biso   1.000  H
  H12      1.0000 0.43980  0.72560  0.23930  Biso   1.000  H
  C20      1.0000 0.29730  0.62030  0.46620  Biso   1.000  C
  C21      1.0000 0.49260  0.85870  0.54620  Biso   1.000  C
  C22      1.0000 0.35400  0.69000  0.44530  Biso   1.000  C
  C23      1.0000 0.39010  0.74190  0.50580  Biso   1.000  C
  H13      1.0000 0.37520  0.73390  0.55790  Biso   1.000  H
  C24      1.0000 0.45080  0.80490  0.48460  Biso   1.000  C
  C25      1.0000 0.47480  0.81440  0.40390  Biso   1.000  C
  H14      1.0000 0.51090  0.84900  0.39200  Biso   1.000  H
  C26      1.0000 0.43920  0.76520  0.34340  Biso   1.000  C
  C27      1.0000 0.37660  0.70520  0.36470  Biso   1.000  C
  H15      1.0000 0.34910  0.67440  0.32440  Biso   1.000  H
  C28      1.0000 0.13550  0.50150  0.70280  Biso   1.000  C
  C29      1.0000 0.37130  0.70570  0.78480  Biso   1.000  C
  C30      1.0000 0.18730  0.54560  0.76800  Biso   1.000  C
  C31      1.0000 0.17890  0.52080  0.84630  Biso   1.000  C
  H16      1.0000 0.13990  0.47790  0.85930  Biso   1.000  H
  C32      1.0000 0.22870  0.55970  0.90710  Biso   1.000  C
  C33      1.0000 0.28450  0.62110  0.88780  Biso   1.000  C
  H17      1.0000 0.31110  0.64450  0.92310  Biso   1.000  H
  C34      1.0000 0.30030  0.64440  0.80580  Biso   1.000  C
  C35      1.0000 0.24660  0.60780  0.74790  Biso   1.000  C
  H18      1.0000 0.25040  0.62530  0.69460  Biso   1.000  H
  C36      1.0000 0.23390  0.53070  0.98690  Biso   1.000  C
  H19      1.0000 0.18330  0.55640  0.01330  Biso   1.000  H
  H20      1.0000 0.28720  0.53840  0.99410  Biso   1.000  H
  O17      1.0000 0.23780  0.88340  0.03480  Biso   1.000  O
  O18      1.0000 0.22650  0.92840  0.91620  Biso   1.000  O
  O19      1.0000 0.04260  0.64290  0.11540  Biso   1.000  O
  O20      1.0000 0.94480  0.59690  0.02410  Biso   1.000  O
  O21      1.0000 0.39840  0.06780  0.22250  Biso   1.000  O
  O22      1.0000 0.36890  0.96530  0.13440  Biso   1.000  O
  O23      1.0000 0.14100  0.74670  0.22340  Biso   1.000  O
  O24      1.0000 0.06600  0.77940  0.33070  Biso   1.000  O
  C37      1.0000 0.03480  0.73370  0.76200  Biso   1.000  C
  H21      1.0000 0.06230  0.68550  0.73960  Biso   1.000  H
  H22      1.0000 0.06020  0.77440  0.73930  Biso   1.000  H
  C38      1.0000 0.20270  0.87970  0.96620  Biso   1.000  C
  C39      1.0000 0.00740  0.64130  0.04620  Biso   1.000  C
  C40      1.0000 0.14600  0.81000  0.94530  Biso   1.000  C
  C41      1.0000 0.10990  0.75810  0.00580  Biso   1.000  C
  H23      1.0000 0.12480  0.76610  0.05790  Biso   1.000  H
  C42      1.0000 0.04920  0.69510  0.98460  Biso   1.000  C
  C43      1.0000 0.02520  0.68560  0.90390  Biso   1.000  C
  H24      1.0000 0.98910  0.65100  0.89200  Biso   1.000  H
  C44      1.0000 0.06080  0.73480  0.84340  Biso   1.000  C
  C45      1.0000 0.12340  0.79480  0.86470  Biso   1.000  C
  H25      1.0000 0.15090  0.82560  0.82440  Biso   1.000  H
  C46      1.0000 0.36450  0.99850  0.20280  Biso   1.000  C
  C47      1.0000 0.12870  0.79430  0.28480  Biso   1.000  C
  C48      1.0000 0.31270  0.95440  0.26800  Biso   1.000  C
  C49      1.0000 0.32110  0.97920  0.34630  Biso   1.000  C
  H26      1.0000 0.36010  0.02210  0.35930  Biso   1.000  H
  C50      1.0000 0.27130  0.94030  0.40710  Biso   1.000  C
  C51      1.0000 0.21550  0.87890  0.38780  Biso   1.000  C
  H27      1.0000 0.18890  0.85550  0.42310  Biso   1.000  H
  C52      1.0000 0.19970  0.85560  0.30580  Biso   1.000  C
  C53      1.0000 0.25340  0.89220  0.24790  Biso   1.000  C
  H28      1.0000 0.24960  0.87470  0.19460  Biso   1.000  H
  C54      1.0000 0.26610  0.96930  0.48690  Biso   1.000  C
  H29      1.0000 0.31670  0.94360  0.51330  Biso   1.000  H
  H30      1.0000 0.21280  0.96160  0.49410  Biso   1.000  H
  O25      1.0000 0.73780  0.38340  0.03480  Biso   1.000  O
  O26      1.0000 0.72650  0.42840  0.91620  Biso   1.000  O
  O27      1.0000 0.54260  0.14290  0.11540  Biso   1.000  O
  O28      1.0000 0.44480  0.09690  0.02410  Biso   1.000  O
  O29      1.0000 0.89840  0.56780  0.22250  Biso   1.000  O
  O30      1.0000 0.86890  0.46530  0.13440  Biso   1.000  O
  O31      1.0000 0.64100  0.24670  0.22340  Biso   1.000  O
  O32      1.0000 0.56600  0.27940  0.33070  Biso   1.000  O
  C55      1.0000 0.53480  0.23370  0.76200  Biso   1.000  C
  H31      1.0000 0.56230  0.18550  0.73960  Biso   1.000  H
  H32      1.0000 0.56020  0.27440  0.73930  Biso   1.000  H
  C56      1.0000 0.70270  0.37970  0.96620  Biso   1.000  C
  C57      1.0000 0.50740  0.14130  0.04620  Biso   1.000  C
  C58      1.0000 0.64600  0.31000  0.94530  Biso   1.000  C
  C59      1.0000 0.60990  0.25810  0.00580  Biso   1.000  C
  H33      1.0000 0.62480  0.26610  0.05790  Biso   1.000  H
  C60      1.0000 0.54920  0.19510  0.98460  Biso   1.000  C
  C61      1.0000 0.52520  0.18560  0.90390  Biso   1.000  C
  H34      1.0000 0.48910  0.15100  0.89200  Biso   1.000  H
  C62      1.0000 0.56080  0.23480  0.84340  Biso   1.000  C
  C63      1.0000 0.62340  0.29480  0.86470  Biso   1.000  C
  H35      1.0000 0.65090  0.32560  0.82440  Biso   1.000  H
  C64      1.0000 0.86450  0.49850  0.20280  Biso   1.000  C
  C65      1.0000 0.62870  0.29430  0.28480  Biso   1.000  C
  C66      1.0000 0.81270  0.45440  0.26800  Biso   1.000  C
  C67      1.0000 0.82110  0.47920  0.34630  Biso   1.000  C
  H36      1.0000 0.86010  0.52210  0.35930  Biso   1.000  H
  C68      1.0000 0.77130  0.44030  0.40710  Biso   1.000  C
  C69      1.0000 0.71550  0.37890  0.38780  Biso   1.000  C
  H37      1.0000 0.68890  0.35550  0.42310  Biso   1.000  H
  C70      1.0000 0.69970  0.35560  0.30580  Biso   1.000  C
  C71      1.0000 0.75340  0.39220  0.24790  Biso   1.000  C
  H38      1.0000 0.74960  0.37470  0.19460  Biso   1.000  H
  C72      1.0000 0.76610  0.46930  0.48690  Biso   1.000  C
  H39      1.0000 0.81670  0.44360  0.51330  Biso   1.000  H
  H40      1.0000 0.71280  0.46160  0.49410  Biso   1.000  H
  O33      1.0000 0.23780  0.11660  0.96520  Biso   1.000  O
  O34      1.0000 0.22650  0.07160  0.08380  Biso   1.000  O
  O35      1.0000 0.04260  0.35710  0.88460  Biso   1.000  O
  O36      1.0000 0.94480  0.40310  0.97590  Biso   1.000  O
  O37      1.0000 0.39840  0.93220  0.77750  Biso   1.000  O
  O38      1.0000 0.36890  0.03470  0.86560  Biso   1.000  O
  O39      1.0000 0.14100  0.25330  0.77660  Biso   1.000  O
  O40      1.0000 0.06600  0.22060  0.66930  Biso   1.000  O
  C73      1.0000 0.03480  0.26630  0.23800  Biso   1.000  C
  H41      1.0000 0.06230  0.31450  0.26040  Biso   1.000  H
  H42      1.0000 0.06020  0.22560  0.26070  Biso   1.000  H
  C74      1.0000 0.20270  0.12030  0.03380  Biso   1.000  C
  C75      1.0000 0.00740  0.35870  0.95380  Biso   1.000  C
  C76      1.0000 0.14600  0.19000  0.05470  Biso   1.000  C
  C77      1.0000 0.10990  0.24190  0.99420  Biso   1.000  C
  H43      1.0000 0.12480  0.23390  0.94210  Biso   1.000  H
  C78      1.0000 0.04920  0.30490  0.01540  Biso   1.000  C
  C79      1.0000 0.02520  0.31440  0.09610  Biso   1.000  C
  H44      1.0000 0.98910  0.34900  0.10800  Biso   1.000  H
  C80      1.0000 0.06080  0.26520  0.15660  Biso   1.000  C
  C81      1.0000 0.12340  0.20520  0.13530  Biso   1.000  C
  H45      1.0000 0.15090  0.17440  0.17560  Biso   1.000  H
  C82      1.0000 0.36450  0.00150  0.79720  Biso   1.000  C
  C83      1.0000 0.12870  0.20570  0.71520  Biso   1.000  C
  C84      1.0000 0.31270  0.04560  0.73200  Biso   1.000  C
  C85      1.0000 0.32110  0.02080  0.65370  Biso   1.000  C
  H46      1.0000 0.36010  0.97790  0.64070  Biso   1.000  H
  C86      1.0000 0.27130  0.05970  0.59290  Biso   1.000  C
  C87      1.0000 0.21550  0.12110  0.61220  Biso   1.000  C
  H47      1.0000 0.18890  0.14450  0.57690  Biso   1.000  H
  C88      1.0000 0.19970  0.14440  0.69420  Biso   1.000  C
  C89      1.0000 0.25340  0.10780  0.75210  Biso   1.000  C
  H48      1.0000 0.24960  0.12530  0.80540  Biso   1.000  H
  C90      1.0000 0.26610  0.03070  0.51310  Biso   1.000  C
  H49      1.0000 0.31670  0.05640  0.48670  Biso   1.000  H
  H50      1.0000 0.21280  0.03840  0.50590  Biso   1.000  H
  O41      1.0000 0.73780  0.61660  0.96520  Biso   1.000  O
  O42      1.0000 0.72650  0.57160  0.08380  Biso   1.000  O
  O43      1.0000 0.54260  0.85710  0.88460  Biso   1.000  O
  O44      1.0000 0.44480  0.90310  0.97590  Biso   1.000  O
  O45      1.0000 0.89840  0.43220  0.77750  Biso   1.000  O
  O46      1.0000 0.86890  0.53470  0.86560  Biso   1.000  O
  O47      1.0000 0.64100  0.75330  0.77660  Biso   1.000  O
  O48      1.0000 0.56600  0.72060  0.66930  Biso   1.000  O
  C91      1.0000 0.53480  0.76630  0.23800  Biso   1.000  C
  H51      1.0000 0.56230  0.81450  0.26040  Biso   1.000  H
  H52      1.0000 0.56020  0.72560  0.26070  Biso   1.000  H
  C92      1.0000 0.70270  0.62030  0.03380  Biso   1.000  C
  C93      1.0000 0.50740  0.85870  0.95380  Biso   1.000  C
  C94      1.0000 0.64600  0.69000  0.05470  Biso   1.000  C
  C95      1.0000 0.60990  0.74190  0.99420  Biso   1.000  C
  H53      1.0000 0.62480  0.73390  0.94210  Biso   1.000  H
  C96      1.0000 0.54920  0.80490  0.01540  Biso   1.000  C
  C97      1.0000 0.52520  0.81440  0.09610  Biso   1.000  C
  H54      1.0000 0.48910  0.84900  0.10800  Biso   1.000  H
  C98      1.0000 0.56080  0.76520  0.15660  Biso   1.000  C
  C99      1.0000 0.62340  0.70520  0.13530  Biso   1.000  C
  H55      1.0000 0.65090  0.67440  0.17560  Biso   1.000  H
  C100     1.0000 0.86450  0.50150  0.79720  Biso   1.000  C
  C101     1.0000 0.62870  0.70570  0.71520  Biso   1.000  C
  C102     1.0000 0.81270  0.54560  0.73200  Biso   1.000  C
  C103     1.0000 0.82110  0.52080  0.65370  Biso   1.000  C
  H56      1.0000 0.86010  0.47790  0.64070  Biso   1.000  H
  C104     1.0000 0.77130  0.55970  0.59290  Biso   1.000  C
  C105     1.0000 0.71550  0.62110  0.61220  Biso   1.000  C
  H57      1.0000 0.68890  0.64450  0.57690  Biso   1.000  H
  C106     1.0000 0.69970  0.64440  0.69420  Biso   1.000  C
  C107     1.0000 0.75340  0.60780  0.75210  Biso   1.000  C
  H58      1.0000 0.74960  0.62530  0.80540  Biso   1.000  H
  C108     1.0000 0.76610  0.53070  0.51310  Biso   1.000  C
  H59      1.0000 0.81670  0.55640  0.48670  Biso   1.000  H
  H60      1.0000 0.71280  0.53840  0.50590  Biso   1.000  H
  O49      1.0000 0.76220  0.88340  0.46520  Biso   1.000  O
  O50      1.0000 0.77350  0.92840  0.58380  Biso   1.000  O
  O51      1.0000 0.95740  0.64290  0.38460  Biso   1.000  O
  O52      1.0000 0.05520  0.59690  0.47590  Biso   1.000  O
  O53      1.0000 0.60160  0.06780  0.27750  Biso   1.000  O
  O54      1.0000 0.63110  0.96530  0.36560  Biso   1.000  O
  O55      1.0000 0.85900  0.74670  0.27660  Biso   1.000  O
  O56      1.0000 0.93400  0.77940  0.16930  Biso   1.000  O
  C109     1.0000 0.96520  0.73370  0.73800  Biso   1.000  C
  H61      1.0000 0.93770  0.68550  0.76040  Biso   1.000  H
  H62      1.0000 0.93980  0.77440  0.76070  Biso   1.000  H
  C110     1.0000 0.79730  0.87970  0.53380  Biso   1.000  C
  C111     1.0000 0.99260  0.64130  0.45380  Biso   1.000  C
  C112     1.0000 0.85400  0.81000  0.55470  Biso   1.000  C
  C113     1.0000 0.89010  0.75810  0.49420  Biso   1.000  C
  H63      1.0000 0.87520  0.76610  0.44210  Biso   1.000  H
  C114     1.0000 0.95080  0.69510  0.51540  Biso   1.000  C
  C115     1.0000 0.97480  0.68560  0.59610  Biso   1.000  C
  H64      1.0000 0.01090  0.65100  0.60800  Biso   1.000  H
  C116     1.0000 0.93920  0.73480  0.65660  Biso   1.000  C
  C117     1.0000 0.87660  0.79480  0.63530  Biso   1.000  C
  H65      1.0000 0.84910  0.82560  0.67560  Biso   1.000  H
  C118     1.0000 0.63550  0.99850  0.29720  Biso   1.000  C
  C119     1.0000 0.87130  0.79430  0.21520  Biso   1.000  C
  C120     1.0000 0.68730  0.95440  0.23200  Biso   1.000  C
  C121     1.0000 0.67890  0.97920  0.15370  Biso   1.000  C
  H66      1.0000 0.63990  0.02210  0.14070  Biso   1.000  H
  C122     1.0000 0.72870  0.94030  0.09290  Biso   1.000  C
  C123     1.0000 0.78450  0.87890  0.11220  Biso   1.000  C
  H67      1.0000 0.81110  0.85550  0.07690  Biso   1.000  H
  C124     1.0000 0.80030  0.85560  0.19420  Biso   1.000  C
  C125     1.0000 0.74660  0.89220  0.25210  Biso   1.000  C
  H68      1.0000 0.75040  0.87470  0.30540  Biso   1.000  H
  C126     1.0000 0.73390  0.96930  0.01310  Biso   1.000  C
  H69      1.0000 0.68330  0.94360  0.98670  Biso   1.000  H
  H70      1.0000 0.78720  0.96160  0.00590  Biso   1.000  H
  O57      1.0000 0.26220  0.38340  0.46520  Biso   1.000  O
  O58      1.0000 0.27350  0.42840  0.58380  Biso   1.000  O
  O59      1.0000 0.45740  0.14290  0.38460  Biso   1.000  O
  O60      1.0000 0.55520  0.09690  0.47590  Biso   1.000  O
  O61      1.0000 0.10160  0.56780  0.27750  Biso   1.000  O
  O62      1.0000 0.13110  0.46530  0.36560  Biso   1.000  O
  O63      1.0000 0.35900  0.24670  0.27660  Biso   1.000  O
  O64      1.0000 0.43400  0.27940  0.16930  Biso   1.000  O
  C127     1.0000 0.46520  0.23370  0.73800  Biso   1.000  C
  H71      1.0000 0.43770  0.18550  0.76040  Biso   1.000  H
  H72      1.0000 0.43980  0.27440  0.76070  Biso   1.000  H
  C128     1.0000 0.29730  0.37970  0.53380  Biso   1.000  C
  C129     1.0000 0.49260  0.14130  0.45380  Biso   1.000  C
  C130     1.0000 0.35400  0.31000  0.55470  Biso   1.000  C
  C131     1.0000 0.39010  0.25810  0.49420  Biso   1.000  C
  H73      1.0000 0.37520  0.26610  0.44210  Biso   1.000  H
  C132     1.0000 0.45080  0.19510  0.51540  Biso   1.000  C
  C133     1.0000 0.47480  0.18560  0.59610  Biso   1.000  C
  H74      1.0000 0.51090  0.15100  0.60800  Biso   1.000  H
  C134     1.0000 0.43920  0.23480  0.65660  Biso   1.000  C
  C135     1.0000 0.37660  0.29480  0.63530  Biso   1.000  C
  H75      1.0000 0.34910  0.32560  0.67560  Biso   1.000  H
  C136     1.0000 0.13550  0.49850  0.29720  Biso   1.000  C
  C137     1.0000 0.37130  0.29430  0.21520  Biso   1.000  C
  C138     1.0000 0.18730  0.45440  0.23200  Biso   1.000  C
  C139     1.0000 0.17890  0.47920  0.15370  Biso   1.000  C
  H76      1.0000 0.13990  0.52210  0.14070  Biso   1.000  H
  C140     1.0000 0.22870  0.44030  0.09290  Biso   1.000  C
  C141     1.0000 0.28450  0.37890  0.11220  Biso   1.000  C
  H77      1.0000 0.31110  0.35550  0.07690  Biso   1.000  H
  C142     1.0000 0.30030  0.35560  0.19420  Biso   1.000  C
  C143     1.0000 0.24660  0.39220  0.25210  Biso   1.000  C
  H78      1.0000 0.25040  0.37470  0.30540  Biso   1.000  H
  C144     1.0000 0.23390  0.46930  0.01310  Biso   1.000  C
  H79      1.0000 0.18330  0.44360  0.98670  Biso   1.000  H
  H80      1.0000 0.28720  0.46160  0.00590  Biso   1.000  H
  Tb1      1.0000 0.66159  0.00000  0.50000  Biso   1.000  Tb
  Tb2      1.0000 0.16159  0.50000  0.50000  Biso   1.000  Tb
  Tb3      1.0000 0.33841  0.00000  0.00000  Biso   1.000  Tb
  Tb4      1.0000 0.83841  0.50000  0.00000  Biso   1.000  Tb
  Tb5      1.0000 0.50000  0.83227  0.75000  Biso   1.000  Tb
  Tb6      1.0000 0.00000  0.33227  0.75000  Biso   1.000  Tb
  Tb7      1.0000 0.50000  0.16773  0.25000  Biso   1.000  Tb
  Tb8      1.0000 0.00000  0.66773  0.25000  Biso   1.000  Tb
