data_image0
_cell_length_a       10.6636
_cell_length_b       13.3253
_cell_length_c       20.0859
_cell_angle_alpha    90
_cell_angle_beta     90
_cell_angle_gamma    90

_symmetry_space_group_name_H-M    "P 1"
_symmetry_int_tables_number       1

loop_
  _symmetry_equiv_pos_as_xyz
  'x, y, z'

loop_
  _atom_site_label
  _atom_site_occupancy
  _atom_site_fract_x
  _atom_site_fract_y
  _atom_site_fract_z
  _atom_site_thermal_displace_type
  _atom_site_B_iso_or_equiv
  _atom_site_type_symbol
  O1       1.0000 0.65760  0.39170  0.18400  Biso   1.000  O
  O2       1.0000 0.76680  0.30530  0.10640  Biso   1.000  O
  O3       1.0000 0.86290  0.12660  0.31580  Biso   1.000  O
  O4       1.0000 0.76800  0.22080  0.39390  Biso   1.000  O
  C1       1.0000 0.79740  0.19920  0.33510  Biso   1.000  C
  C2       1.0000 0.73130  0.32330  0.16520  Biso   1.000  C
  C3       1.0000 0.78500  0.25850  0.21970  Biso   1.000  C
  H1       1.0000 0.84900  0.21370  0.20940  Biso   1.000  H
  C4       1.0000 0.74420  0.26330  0.28100  Biso   1.000  C
  H2       1.0000 0.68020  0.30810  0.29130  Biso   1.000  H
  O5       1.0000 0.35400  0.49100  0.05620  Biso   1.000  O
  O6       1.0000 0.50950  0.38540  0.05400  Biso   1.000  O
  C5       1.0000 0.01100  0.35600  0.02350  Biso   1.000  C
  O7       1.0000 0.29770  0.48780  0.07080  Biso   1.000  O
  O8       1.0000 0.51360  0.34060  0.07700  Biso   1.000  O
  O9       1.0000 0.34240  0.60830  0.18400  Biso   1.000  O
  O10      1.0000 0.23320  0.69470  0.10640  Biso   1.000  O
  O11      1.0000 0.13710  0.87340  0.31580  Biso   1.000  O
  O12      1.0000 0.23200  0.77920  0.39390  Biso   1.000  O
  C6       1.0000 0.20260  0.80080  0.33510  Biso   1.000  C
  C7       1.0000 0.26870  0.67670  0.16520  Biso   1.000  C
  C8       1.0000 0.21500  0.74150  0.21970  Biso   1.000  C
  H3       1.0000 0.15100  0.78630  0.20940  Biso   1.000  H
  C9       1.0000 0.25580  0.73670  0.28100  Biso   1.000  C
  H4       1.0000 0.31980  0.69190  0.29130  Biso   1.000  H
  O13      1.0000 0.64600  0.50900  0.05620  Biso   1.000  O
  O14      1.0000 0.49050  0.61460  0.05400  Biso   1.000  O
  C10      1.0000 0.98900  0.64400  0.02350  Biso   1.000  C
  O15      1.0000 0.70230  0.51220  0.07080  Biso   1.000  O
  O16      1.0000 0.48640  0.65940  0.07700  Biso   1.000  O
  O17      1.0000 0.84240  0.89170  0.31600  Biso   1.000  O
  O18      1.0000 0.73320  0.80530  0.39360  Biso   1.000  O
  O19      1.0000 0.63710  0.62660  0.18420  Biso   1.000  O
  O20      1.0000 0.73200  0.72080  0.10610  Biso   1.000  O
  C11      1.0000 0.70260  0.69920  0.16490  Biso   1.000  C
  C12      1.0000 0.76870  0.82330  0.33480  Biso   1.000  C
  C13      1.0000 0.71500  0.75850  0.28030  Biso   1.000  C
  H5       1.0000 0.65100  0.71370  0.29060  Biso   1.000  H
  C14      1.0000 0.75580  0.76330  0.21900  Biso   1.000  C
  H6       1.0000 0.81980  0.80810  0.20870  Biso   1.000  H
  O21      1.0000 0.14600  0.99100  0.44380  Biso   1.000  O
  O22      1.0000 0.99050  0.88540  0.44600  Biso   1.000  O
  C15      1.0000 0.48900  0.85600  0.47650  Biso   1.000  C
  O23      1.0000 0.20230  0.98780  0.42920  Biso   1.000  O
  O24      1.0000 0.98640  0.84060  0.42300  Biso   1.000  O
  O25      1.0000 0.15760  0.10830  0.31600  Biso   1.000  O
  O26      1.0000 0.26680  0.19470  0.39360  Biso   1.000  O
  O27      1.0000 0.36290  0.37340  0.18420  Biso   1.000  O
  O28      1.0000 0.26800  0.27920  0.10610  Biso   1.000  O
  C16      1.0000 0.29740  0.30080  0.16490  Biso   1.000  C
  C17      1.0000 0.23130  0.17670  0.33480  Biso   1.000  C
  C18      1.0000 0.28500  0.24150  0.28030  Biso   1.000  C
  H7       1.0000 0.34900  0.28630  0.29060  Biso   1.000  H
  C19      1.0000 0.24420  0.23670  0.21900  Biso   1.000  C
  H8       1.0000 0.18020  0.19190  0.20870  Biso   1.000  H
  O29      1.0000 0.85400  0.00900  0.44380  Biso   1.000  O
  O30      1.0000 0.00950  0.11460  0.44600  Biso   1.000  O
  C20      1.0000 0.51100  0.14400  0.47650  Biso   1.000  C
  O31      1.0000 0.79770  0.01220  0.42920  Biso   1.000  O
  O32      1.0000 0.01360  0.15940  0.42300  Biso   1.000  O
  O33      1.0000 0.34240  0.60830  0.81600  Biso   1.000  O
  O34      1.0000 0.23320  0.69470  0.89360  Biso   1.000  O
  O35      1.0000 0.13710  0.87340  0.68420  Biso   1.000  O
  O36      1.0000 0.23200  0.77920  0.60610  Biso   1.000  O
  C21      1.0000 0.20260  0.80080  0.66490  Biso   1.000  C
  C22      1.0000 0.26870  0.67670  0.83480  Biso   1.000  C
  C23      1.0000 0.21500  0.74150  0.78030  Biso   1.000  C
  H9       1.0000 0.15100  0.78630  0.79060  Biso   1.000  H
  C24      1.0000 0.25580  0.73670  0.71900  Biso   1.000  C
  H10      1.0000 0.31980  0.69190  0.70870  Biso   1.000  H
  O37      1.0000 0.64600  0.50900  0.94380  Biso   1.000  O
  O38      1.0000 0.49050  0.61460  0.94600  Biso   1.000  O
  C25      1.0000 0.98900  0.64400  0.97650  Biso   1.000  C
  O39      1.0000 0.70230  0.51220  0.92920  Biso   1.000  O
  O40      1.0000 0.48640  0.65940  0.92300  Biso   1.000  O
  O41      1.0000 0.65760  0.39170  0.81600  Biso   1.000  O
  O42      1.0000 0.76680  0.30530  0.89360  Biso   1.000  O
  O43      1.0000 0.86290  0.12660  0.68420  Biso   1.000  O
  O44      1.0000 0.76800  0.22080  0.60610  Biso   1.000  O
  C26      1.0000 0.79740  0.19920  0.66490  Biso   1.000  C
  C27      1.0000 0.73130  0.32330  0.83480  Biso   1.000  C
  C28      1.0000 0.78500  0.25850  0.78030  Biso   1.000  C
  H11      1.0000 0.84900  0.21370  0.79060  Biso   1.000  H
  C29      1.0000 0.74420  0.26330  0.71900  Biso   1.000  C
  H12      1.0000 0.68020  0.30810  0.70870  Biso   1.000  H
  O45      1.0000 0.35400  0.49100  0.94380  Biso   1.000  O
  O46      1.0000 0.50950  0.38540  0.94600  Biso   1.000  O
  C30      1.0000 0.01100  0.35600  0.97650  Biso   1.000  C
  O47      1.0000 0.29770  0.48780  0.92920  Biso   1.000  O
  O48      1.0000 0.51360  0.34060  0.92300  Biso   1.000  O
  O49      1.0000 0.15760  0.10830  0.68400  Biso   1.000  O
  O50      1.0000 0.26680  0.19470  0.60640  Biso   1.000  O
  O51      1.0000 0.36290  0.37340  0.81580  Biso   1.000  O
  O52      1.0000 0.26800  0.27920  0.89390  Biso   1.000  O
  C31      1.0000 0.29740  0.30080  0.83510  Biso   1.000  C
  C32      1.0000 0.23130  0.17670  0.66520  Biso   1.000  C
  C33      1.0000 0.28500  0.24150  0.71970  Biso   1.000  C
  H13      1.0000 0.34900  0.28630  0.70940  Biso   1.000  H
  C34      1.0000 0.24420  0.23670  0.78100  Biso   1.000  C
  H14      1.0000 0.18020  0.19190  0.79130  Biso   1.000  H
  O53      1.0000 0.85400  0.00900  0.55620  Biso   1.000  O
  O54      1.0000 0.00950  0.11460  0.55400  Biso   1.000  O
  C35      1.0000 0.51100  0.14400  0.52350  Biso   1.000  C
  O55      1.0000 0.79770  0.01220  0.57080  Biso   1.000  O
  O56      1.0000 0.01360  0.15940  0.57700  Biso   1.000  O
  O57      1.0000 0.84240  0.89170  0.68400  Biso   1.000  O
  O58      1.0000 0.73320  0.80530  0.60640  Biso   1.000  O
  O59      1.0000 0.63710  0.62660  0.81580  Biso   1.000  O
  O60      1.0000 0.73200  0.72080  0.89390  Biso   1.000  O
  C36      1.0000 0.70260  0.69920  0.83510  Biso   1.000  C
  C37      1.0000 0.76870  0.82330  0.66520  Biso   1.000  C
  C38      1.0000 0.71500  0.75850  0.71970  Biso   1.000  C
  H15      1.0000 0.65100  0.71370  0.70940  Biso   1.000  H
  C39      1.0000 0.75580  0.76330  0.78100  Biso   1.000  C
  H16      1.0000 0.81980  0.80810  0.79130  Biso   1.000  H
  O61      1.0000 0.14600  0.99100  0.55620  Biso   1.000  O
  O62      1.0000 0.99050  0.88540  0.55400  Biso   1.000  O
  C40      1.0000 0.48900  0.85600  0.52350  Biso   1.000  C
  O63      1.0000 0.20230  0.98780  0.57080  Biso   1.000  O
  O64      1.0000 0.98640  0.84060  0.57700  Biso   1.000  O
  U1       1.0000 0.50000  0.50000  0.13779  Biso   1.000  U
  U2       1.0000 0.00000  0.00000  0.36221  Biso   1.000  U
  U3       1.0000 0.50000  0.50000  0.86221  Biso   1.000  U
  U4       1.0000 0.00000  0.00000  0.63779  Biso   1.000  U
  U5       1.0000 0.33732  0.34711  0.00000  Biso   1.000  U
  U6       1.0000 0.68772  0.36737  0.00000  Biso   1.000  U
  O65      1.0000 0.63270  0.19250  0.00000  Biso   1.000  O
  O66      1.0000 0.42500  0.17840  0.00000  Biso   1.000  O
  C41      1.0000 0.54860  0.03100  0.00000  Biso   1.000  C
  H17      1.0000 0.62920  0.00430  0.00000  Biso   1.000  H
  C42      1.0000 0.53280  0.14300  0.00000  Biso   1.000  C
  O67      1.0000 0.91190  0.38460  0.00000  Biso   1.000  O
  O68      1.0000 0.11360  0.35890  0.00000  Biso   1.000  O
  U7       1.0000 0.66268  0.65289  0.00000  Biso   1.000  U
  U8       1.0000 0.31228  0.63263  0.00000  Biso   1.000  U
  O69      1.0000 0.36730  0.80750  0.00000  Biso   1.000  O
  O70      1.0000 0.57500  0.82160  0.00000  Biso   1.000  O
  C43      1.0000 0.45140  0.96900  0.00000  Biso   1.000  C
  H18      1.0000 0.37080  0.99570  0.00000  Biso   1.000  H
  C44      1.0000 0.46720  0.85700  0.00000  Biso   1.000  C
  O71      1.0000 0.08810  0.61540  0.00000  Biso   1.000  O
  O72      1.0000 0.88640  0.64110  0.00000  Biso   1.000  O
  U9       1.0000 0.16268  0.84711  0.50000  Biso   1.000  U
  U10      1.0000 0.81228  0.86737  0.50000  Biso   1.000  U
  O73      1.0000 0.86730  0.69250  0.50000  Biso   1.000  O
  O74      1.0000 0.07500  0.67840  0.50000  Biso   1.000  O
  C45      1.0000 0.95140  0.53100  0.50000  Biso   1.000  C
  H19      1.0000 0.87080  0.50430  0.50000  Biso   1.000  H
  C46      1.0000 0.96720  0.64300  0.50000  Biso   1.000  C
  O75      1.0000 0.58810  0.88460  0.50000  Biso   1.000  O
  O76      1.0000 0.38640  0.85890  0.50000  Biso   1.000  O
  U11      1.0000 0.83732  0.15289  0.50000  Biso   1.000  U
  U12      1.0000 0.18772  0.13263  0.50000  Biso   1.000  U
  O77      1.0000 0.13270  0.30750  0.50000  Biso   1.000  O
  O78      1.0000 0.92500  0.32160  0.50000  Biso   1.000  O
  C47      1.0000 0.04860  0.46900  0.50000  Biso   1.000  C
  H20      1.0000 0.12920  0.49570  0.50000  Biso   1.000  H
  C48      1.0000 0.03280  0.35700  0.50000  Biso   1.000  C
  O79      1.0000 0.41190  0.11540  0.50000  Biso   1.000  O
  O80      1.0000 0.61360  0.14110  0.50000  Biso   1.000  O
