data_image0
_cell_length_a       15.0609
_cell_length_b       15.0609
_cell_length_c       19.2433
_cell_angle_alpha    90
_cell_angle_beta     90
_cell_angle_gamma    90

_symmetry_space_group_name_H-M    "P 1"
_symmetry_int_tables_number       1

loop_
  _symmetry_equiv_pos_as_xyz
  'x, y, z'

loop_
  _atom_site_label
  _atom_site_occupancy
  _atom_site_fract_x
  _atom_site_fract_y
  _atom_site_fract_z
  _atom_site_thermal_displace_type
  _atom_site_B_iso_or_equiv
  _atom_site_type_symbol
  O1       1.0000 0.05510  0.87830  0.05751  Biso   1.000  O
  C1       1.0000 0.17080  0.73610  0.06130  Biso   1.000  C
  H1       1.0000 0.14780  0.75640  0.10320  Biso   1.000  H
  C2       1.0000 0.07440  0.94870  0.20990  Biso   1.000  C
  H2       1.0000 0.12890  0.98290  0.20710  Biso   1.000  H
  H3       1.0000 0.08180  0.89460  0.18320  Biso   1.000  H
  C3       1.0000 0.08890  0.01740  0.21130  Biso   1.000  C
  H4       1.0000 0.10180  0.08050  0.21000  Biso   1.000  H
  H5       1.0000 0.13340  0.98640  0.18410  Biso   1.000  H
  O2       1.0000 0.55510  0.37830  0.55751  Biso   1.000  O
  C4       1.0000 0.67080  0.23610  0.56130  Biso   1.000  C
  H6       1.0000 0.64780  0.25640  0.60320  Biso   1.000  H
  C5       1.0000 0.57440  0.44870  0.70990  Biso   1.000  C
  H7       1.0000 0.62890  0.48290  0.70710  Biso   1.000  H
  H8       1.0000 0.58180  0.39460  0.68320  Biso   1.000  H
  C6       1.0000 0.58890  0.51740  0.71130  Biso   1.000  C
  H9       1.0000 0.60180  0.58050  0.71000  Biso   1.000  H
  H10      1.0000 0.63340  0.48640  0.68410  Biso   1.000  H
  O3       1.0000 0.94490  0.12170  0.05751  Biso   1.000  O
  C7       1.0000 0.82920  0.26390  0.06130  Biso   1.000  C
  H11      1.0000 0.85220  0.24360  0.10320  Biso   1.000  H
  C8       1.0000 0.92560  0.05130  0.20990  Biso   1.000  C
  H12      1.0000 0.87110  0.01710  0.20710  Biso   1.000  H
  H13      1.0000 0.91820  0.10540  0.18320  Biso   1.000  H
  C9       1.0000 0.91110  0.98260  0.21130  Biso   1.000  C
  H14      1.0000 0.89820  0.91950  0.21000  Biso   1.000  H
  H15      1.0000 0.86660  0.01360  0.18410  Biso   1.000  H
  O4       1.0000 0.44490  0.62170  0.55751  Biso   1.000  O
  C10      1.0000 0.32920  0.76390  0.56130  Biso   1.000  C
  H16      1.0000 0.35220  0.74360  0.60320  Biso   1.000  H
  C11      1.0000 0.42560  0.55130  0.70990  Biso   1.000  C
  H17      1.0000 0.37110  0.51710  0.70710  Biso   1.000  H
  H18      1.0000 0.41820  0.60540  0.68320  Biso   1.000  H
  C12      1.0000 0.41110  0.48260  0.71130  Biso   1.000  C
  H19      1.0000 0.39820  0.41950  0.71000  Biso   1.000  H
  H20      1.0000 0.36660  0.51360  0.68410  Biso   1.000  H
  O5       1.0000 0.12170  0.05510  0.05751  Biso   1.000  O
  C13      1.0000 0.26390  0.17080  0.06130  Biso   1.000  C
  H21      1.0000 0.24360  0.14780  0.10320  Biso   1.000  H
  C14      1.0000 0.05130  0.07440  0.20990  Biso   1.000  C
  H22      1.0000 0.01710  0.12890  0.20710  Biso   1.000  H
  H23      1.0000 0.10540  0.08180  0.18320  Biso   1.000  H
  C15      1.0000 0.98260  0.08890  0.21130  Biso   1.000  C
  H24      1.0000 0.91950  0.10180  0.21000  Biso   1.000  H
  H25      1.0000 0.01360  0.13340  0.18410  Biso   1.000  H
  O6       1.0000 0.62170  0.55510  0.55751  Biso   1.000  O
  C16      1.0000 0.76390  0.67080  0.56130  Biso   1.000  C
  H26      1.0000 0.74360  0.64780  0.60320  Biso   1.000  H
  C17      1.0000 0.55130  0.57440  0.70990  Biso   1.000  C
  H27      1.0000 0.51710  0.62890  0.70710  Biso   1.000  H
  H28      1.0000 0.60540  0.58180  0.68320  Biso   1.000  H
  C18      1.0000 0.48260  0.58890  0.71130  Biso   1.000  C
  H29      1.0000 0.41950  0.60180  0.71000  Biso   1.000  H
  H30      1.0000 0.51360  0.63340  0.68410  Biso   1.000  H
  O7       1.0000 0.87830  0.94490  0.05751  Biso   1.000  O
  C19      1.0000 0.73610  0.82920  0.06130  Biso   1.000  C
  H31      1.0000 0.75640  0.85220  0.10320  Biso   1.000  H
  C20      1.0000 0.94870  0.92560  0.20990  Biso   1.000  C
  H32      1.0000 0.98290  0.87110  0.20710  Biso   1.000  H
  H33      1.0000 0.89460  0.91820  0.18320  Biso   1.000  H
  C21      1.0000 0.01740  0.91110  0.21130  Biso   1.000  C
  H34      1.0000 0.08050  0.89820  0.21000  Biso   1.000  H
  H35      1.0000 0.98640  0.86660  0.18410  Biso   1.000  H
  O8       1.0000 0.37830  0.44490  0.55751  Biso   1.000  O
  C22      1.0000 0.23610  0.32920  0.56130  Biso   1.000  C
  H36      1.0000 0.25640  0.35220  0.60320  Biso   1.000  H
  C23      1.0000 0.44870  0.42560  0.70990  Biso   1.000  C
  H37      1.0000 0.48290  0.37110  0.70710  Biso   1.000  H
  H38      1.0000 0.39460  0.41820  0.68320  Biso   1.000  H
  C24      1.0000 0.51740  0.41110  0.71130  Biso   1.000  C
  H39      1.0000 0.58050  0.39820  0.71000  Biso   1.000  H
  H40      1.0000 0.48640  0.36660  0.68410  Biso   1.000  H
  O9       1.0000 0.94490  0.87830  0.44249  Biso   1.000  O
  C25      1.0000 0.82920  0.73610  0.43870  Biso   1.000  C
  H41      1.0000 0.85220  0.75640  0.39680  Biso   1.000  H
  C26      1.0000 0.92560  0.94870  0.29010  Biso   1.000  C
  H42      1.0000 0.87110  0.98290  0.29290  Biso   1.000  H
  H43      1.0000 0.91820  0.89460  0.31680  Biso   1.000  H
  C27      1.0000 0.91110  0.01740  0.28870  Biso   1.000  C
  H44      1.0000 0.89820  0.08050  0.29000  Biso   1.000  H
  H45      1.0000 0.86660  0.98640  0.31590  Biso   1.000  H
  O10      1.0000 0.44490  0.37830  0.94249  Biso   1.000  O
  C28      1.0000 0.32920  0.23610  0.93870  Biso   1.000  C
  H46      1.0000 0.35220  0.25640  0.89680  Biso   1.000  H
  C29      1.0000 0.42560  0.44870  0.79010  Biso   1.000  C
  H47      1.0000 0.37110  0.48290  0.79290  Biso   1.000  H
  H48      1.0000 0.41820  0.39460  0.81680  Biso   1.000  H
  C30      1.0000 0.41110  0.51740  0.78870  Biso   1.000  C
  H49      1.0000 0.39820  0.58050  0.79000  Biso   1.000  H
  H50      1.0000 0.36660  0.48640  0.81590  Biso   1.000  H
  O11      1.0000 0.05510  0.12170  0.44249  Biso   1.000  O
  C31      1.0000 0.17080  0.26390  0.43870  Biso   1.000  C
  H51      1.0000 0.14780  0.24360  0.39680  Biso   1.000  H
  C32      1.0000 0.07440  0.05130  0.29010  Biso   1.000  C
  H52      1.0000 0.12890  0.01710  0.29290  Biso   1.000  H
  H53      1.0000 0.08180  0.10540  0.31680  Biso   1.000  H
  C33      1.0000 0.08890  0.98260  0.28870  Biso   1.000  C
  H54      1.0000 0.10180  0.91950  0.29000  Biso   1.000  H
  H55      1.0000 0.13340  0.01360  0.31590  Biso   1.000  H
  O12      1.0000 0.55510  0.62170  0.94249  Biso   1.000  O
  C34      1.0000 0.67080  0.76390  0.93870  Biso   1.000  C
  H56      1.0000 0.64780  0.74360  0.89680  Biso   1.000  H
  C35      1.0000 0.57440  0.55130  0.79010  Biso   1.000  C
  H57      1.0000 0.62890  0.51710  0.79290  Biso   1.000  H
  H58      1.0000 0.58180  0.60540  0.81680  Biso   1.000  H
  C36      1.0000 0.58890  0.48260  0.78870  Biso   1.000  C
  H59      1.0000 0.60180  0.41950  0.79000  Biso   1.000  H
  H60      1.0000 0.63340  0.51360  0.81590  Biso   1.000  H
  O13      1.0000 0.87830  0.05510  0.44249  Biso   1.000  O
  C37      1.0000 0.73610  0.17080  0.43870  Biso   1.000  C
  H61      1.0000 0.75640  0.14780  0.39680  Biso   1.000  H
  C38      1.0000 0.94870  0.07440  0.29010  Biso   1.000  C
  H62      1.0000 0.98290  0.12890  0.29290  Biso   1.000  H
  H63      1.0000 0.89460  0.08180  0.31680  Biso   1.000  H
  C39      1.0000 0.01740  0.08890  0.28870  Biso   1.000  C
  H64      1.0000 0.08050  0.10180  0.29000  Biso   1.000  H
  H65      1.0000 0.98640  0.13340  0.31590  Biso   1.000  H
  O14      1.0000 0.37830  0.55510  0.94249  Biso   1.000  O
  C40      1.0000 0.23610  0.67080  0.93870  Biso   1.000  C
  H66      1.0000 0.25640  0.64780  0.89680  Biso   1.000  H
  C41      1.0000 0.44870  0.57440  0.79010  Biso   1.000  C
  H67      1.0000 0.48290  0.62890  0.79290  Biso   1.000  H
  H68      1.0000 0.39460  0.58180  0.81680  Biso   1.000  H
  C42      1.0000 0.51740  0.58890  0.78870  Biso   1.000  C
  H69      1.0000 0.58050  0.60180  0.79000  Biso   1.000  H
  H70      1.0000 0.48640  0.63340  0.81590  Biso   1.000  H
  O15      1.0000 0.12170  0.94490  0.44249  Biso   1.000  O
  C43      1.0000 0.26390  0.82920  0.43870  Biso   1.000  C
  H71      1.0000 0.24360  0.85220  0.39680  Biso   1.000  H
  C44      1.0000 0.05130  0.92560  0.29010  Biso   1.000  C
  H72      1.0000 0.01710  0.87110  0.29290  Biso   1.000  H
  H73      1.0000 0.10540  0.91820  0.31680  Biso   1.000  H
  C45      1.0000 0.98260  0.91110  0.28870  Biso   1.000  C
  H74      1.0000 0.91950  0.89820  0.29000  Biso   1.000  H
  H75      1.0000 0.01360  0.86660  0.31590  Biso   1.000  H
  O16      1.0000 0.62170  0.44490  0.94249  Biso   1.000  O
  C46      1.0000 0.76390  0.32920  0.93870  Biso   1.000  C
  H76      1.0000 0.74360  0.35220  0.89680  Biso   1.000  H
  C47      1.0000 0.55130  0.42560  0.79010  Biso   1.000  C
  H77      1.0000 0.51710  0.37110  0.79290  Biso   1.000  H
  H78      1.0000 0.60540  0.41820  0.81680  Biso   1.000  H
  C48      1.0000 0.48260  0.41110  0.78870  Biso   1.000  C
  H79      1.0000 0.41950  0.39820  0.79000  Biso   1.000  H
  H80      1.0000 0.51360  0.36660  0.81590  Biso   1.000  H
  O17      1.0000 0.94490  0.12170  0.94249  Biso   1.000  O
  C49      1.0000 0.82920  0.26390  0.93870  Biso   1.000  C
  H81      1.0000 0.85220  0.24360  0.89680  Biso   1.000  H
  C50      1.0000 0.92560  0.05130  0.79010  Biso   1.000  C
  H82      1.0000 0.87110  0.01710  0.79290  Biso   1.000  H
  H83      1.0000 0.91820  0.10540  0.81680  Biso   1.000  H
  C51      1.0000 0.91110  0.98260  0.78870  Biso   1.000  C
  H84      1.0000 0.89820  0.91950  0.79000  Biso   1.000  H
  H85      1.0000 0.86660  0.01360  0.81590  Biso   1.000  H
  O18      1.0000 0.44490  0.62170  0.44249  Biso   1.000  O
  C52      1.0000 0.32920  0.76390  0.43870  Biso   1.000  C
  H86      1.0000 0.35220  0.74360  0.39680  Biso   1.000  H
  C53      1.0000 0.42560  0.55130  0.29010  Biso   1.000  C
  H87      1.0000 0.37110  0.51710  0.29290  Biso   1.000  H
  H88      1.0000 0.41820  0.60540  0.31680  Biso   1.000  H
  C54      1.0000 0.41110  0.48260  0.28870  Biso   1.000  C
  H89      1.0000 0.39820  0.41950  0.29000  Biso   1.000  H
  H90      1.0000 0.36660  0.51360  0.31590  Biso   1.000  H
  O19      1.0000 0.05510  0.87830  0.94249  Biso   1.000  O
  C55      1.0000 0.17080  0.73610  0.93870  Biso   1.000  C
  H91      1.0000 0.14780  0.75640  0.89680  Biso   1.000  H
  C56      1.0000 0.07440  0.94870  0.79010  Biso   1.000  C
  H92      1.0000 0.12890  0.98290  0.79290  Biso   1.000  H
  H93      1.0000 0.08180  0.89460  0.81680  Biso   1.000  H
  C57      1.0000 0.08890  0.01740  0.78870  Biso   1.000  C
  H94      1.0000 0.10180  0.08050  0.79000  Biso   1.000  H
  H95      1.0000 0.13340  0.98640  0.81590  Biso   1.000  H
  O20      1.0000 0.55510  0.37830  0.44249  Biso   1.000  O
  C58      1.0000 0.67080  0.23610  0.43870  Biso   1.000  C
  H96      1.0000 0.64780  0.25640  0.39680  Biso   1.000  H
  C59      1.0000 0.57440  0.44870  0.29010  Biso   1.000  C
  H97      1.0000 0.62890  0.48290  0.29290  Biso   1.000  H
  H98      1.0000 0.58180  0.39460  0.31680  Biso   1.000  H
  C60      1.0000 0.58890  0.51740  0.28870  Biso   1.000  C
  H99      1.0000 0.60180  0.58050  0.29000  Biso   1.000  H
  H100     1.0000 0.63340  0.48640  0.31590  Biso   1.000  H
  O21      1.0000 0.87830  0.94490  0.94249  Biso   1.000  O
  C61      1.0000 0.73610  0.82920  0.93870  Biso   1.000  C
  H101     1.0000 0.75640  0.85220  0.89680  Biso   1.000  H
  C62      1.0000 0.94870  0.92560  0.79010  Biso   1.000  C
  H102     1.0000 0.98290  0.87110  0.79290  Biso   1.000  H
  H103     1.0000 0.89460  0.91820  0.81680  Biso   1.000  H
  C63      1.0000 0.01740  0.91110  0.78870  Biso   1.000  C
  H104     1.0000 0.08050  0.89820  0.79000  Biso   1.000  H
  H105     1.0000 0.98640  0.86660  0.81590  Biso   1.000  H
  O22      1.0000 0.37830  0.44490  0.44249  Biso   1.000  O
  C64      1.0000 0.23610  0.32920  0.43870  Biso   1.000  C
  H106     1.0000 0.25640  0.35220  0.39680  Biso   1.000  H
  C65      1.0000 0.44870  0.42560  0.29010  Biso   1.000  C
  H107     1.0000 0.48290  0.37110  0.29290  Biso   1.000  H
  H108     1.0000 0.39460  0.41820  0.31680  Biso   1.000  H
  C66      1.0000 0.51740  0.41110  0.28870  Biso   1.000  C
  H109     1.0000 0.58050  0.39820  0.29000  Biso   1.000  H
  H110     1.0000 0.48640  0.36660  0.31590  Biso   1.000  H
  O23      1.0000 0.12170  0.05510  0.94249  Biso   1.000  O
  C67      1.0000 0.26390  0.17080  0.93870  Biso   1.000  C
  H111     1.0000 0.24360  0.14780  0.89680  Biso   1.000  H
  C68      1.0000 0.05130  0.07440  0.79010  Biso   1.000  C
  H112     1.0000 0.01710  0.12890  0.79290  Biso   1.000  H
  H113     1.0000 0.10540  0.08180  0.81680  Biso   1.000  H
  C69      1.0000 0.98260  0.08890  0.78870  Biso   1.000  C
  H114     1.0000 0.91950  0.10180  0.79000  Biso   1.000  H
  H115     1.0000 0.01360  0.13340  0.81590  Biso   1.000  H
  O24      1.0000 0.62170  0.55510  0.44249  Biso   1.000  O
  C70      1.0000 0.76390  0.67080  0.43870  Biso   1.000  C
  H116     1.0000 0.74360  0.64780  0.39680  Biso   1.000  H
  C71      1.0000 0.55130  0.57440  0.29010  Biso   1.000  C
  H117     1.0000 0.51710  0.62890  0.29290  Biso   1.000  H
  H118     1.0000 0.60540  0.58180  0.31680  Biso   1.000  H
  C72      1.0000 0.48260  0.58890  0.28870  Biso   1.000  C
  H119     1.0000 0.41950  0.60180  0.29000  Biso   1.000  H
  H120     1.0000 0.51360  0.63340  0.31590  Biso   1.000  H
  O25      1.0000 0.05510  0.12170  0.55751  Biso   1.000  O
  C73      1.0000 0.17080  0.26390  0.56130  Biso   1.000  C
  H121     1.0000 0.14780  0.24360  0.60320  Biso   1.000  H
  C74      1.0000 0.07440  0.05130  0.70990  Biso   1.000  C
  H122     1.0000 0.12890  0.01710  0.70710  Biso   1.000  H
  H123     1.0000 0.08180  0.10540  0.68320  Biso   1.000  H
  C75      1.0000 0.08890  0.98260  0.71130  Biso   1.000  C
  H124     1.0000 0.10180  0.91950  0.71000  Biso   1.000  H
  H125     1.0000 0.13340  0.01360  0.68410  Biso   1.000  H
  O26      1.0000 0.55510  0.62170  0.05751  Biso   1.000  O
  C76      1.0000 0.67080  0.76390  0.06130  Biso   1.000  C
  H126     1.0000 0.64780  0.74360  0.10320  Biso   1.000  H
  C77      1.0000 0.57440  0.55130  0.20990  Biso   1.000  C
  H127     1.0000 0.62890  0.51710  0.20710  Biso   1.000  H
  H128     1.0000 0.58180  0.60540  0.18320  Biso   1.000  H
  C78      1.0000 0.58890  0.48260  0.21130  Biso   1.000  C
  H129     1.0000 0.60180  0.41950  0.21000  Biso   1.000  H
  H130     1.0000 0.63340  0.51360  0.18410  Biso   1.000  H
  O27      1.0000 0.94490  0.87830  0.55751  Biso   1.000  O
  C79      1.0000 0.82920  0.73610  0.56130  Biso   1.000  C
  H131     1.0000 0.85220  0.75640  0.60320  Biso   1.000  H
  C80      1.0000 0.92560  0.94870  0.70990  Biso   1.000  C
  H132     1.0000 0.87110  0.98290  0.70710  Biso   1.000  H
  H133     1.0000 0.91820  0.89460  0.68320  Biso   1.000  H
  C81      1.0000 0.91110  0.01740  0.71130  Biso   1.000  C
  H134     1.0000 0.89820  0.08050  0.71000  Biso   1.000  H
  H135     1.0000 0.86660  0.98640  0.68410  Biso   1.000  H
  O28      1.0000 0.44490  0.37830  0.05751  Biso   1.000  O
  C82      1.0000 0.32920  0.23610  0.06130  Biso   1.000  C
  H136     1.0000 0.35220  0.25640  0.10320  Biso   1.000  H
  C83      1.0000 0.42560  0.44870  0.20990  Biso   1.000  C
  H137     1.0000 0.37110  0.48290  0.20710  Biso   1.000  H
  H138     1.0000 0.41820  0.39460  0.18320  Biso   1.000  H
  C84      1.0000 0.41110  0.51740  0.21130  Biso   1.000  C
  H139     1.0000 0.39820  0.58050  0.21000  Biso   1.000  H
  H140     1.0000 0.36660  0.48640  0.18410  Biso   1.000  H
  O29      1.0000 0.12170  0.94490  0.55751  Biso   1.000  O
  C85      1.0000 0.26390  0.82920  0.56130  Biso   1.000  C
  H141     1.0000 0.24360  0.85220  0.60320  Biso   1.000  H
  C86      1.0000 0.05130  0.92560  0.70990  Biso   1.000  C
  H142     1.0000 0.01710  0.87110  0.70710  Biso   1.000  H
  H143     1.0000 0.10540  0.91820  0.68320  Biso   1.000  H
  C87      1.0000 0.98260  0.91110  0.71130  Biso   1.000  C
  H144     1.0000 0.91950  0.89820  0.71000  Biso   1.000  H
  H145     1.0000 0.01360  0.86660  0.68410  Biso   1.000  H
  O30      1.0000 0.62170  0.44490  0.05751  Biso   1.000  O
  C88      1.0000 0.76390  0.32920  0.06130  Biso   1.000  C
  H146     1.0000 0.74360  0.35220  0.10320  Biso   1.000  H
  C89      1.0000 0.55130  0.42560  0.20990  Biso   1.000  C
  H147     1.0000 0.51710  0.37110  0.20710  Biso   1.000  H
  H148     1.0000 0.60540  0.41820  0.18320  Biso   1.000  H
  C90      1.0000 0.48260  0.41110  0.21130  Biso   1.000  C
  H149     1.0000 0.41950  0.39820  0.21000  Biso   1.000  H
  H150     1.0000 0.51360  0.36660  0.18410  Biso   1.000  H
  O31      1.0000 0.87830  0.05510  0.55751  Biso   1.000  O
  C91      1.0000 0.73610  0.17080  0.56130  Biso   1.000  C
  H151     1.0000 0.75640  0.14780  0.60320  Biso   1.000  H
  C92      1.0000 0.94870  0.07440  0.70990  Biso   1.000  C
  H152     1.0000 0.98290  0.12890  0.70710  Biso   1.000  H
  H153     1.0000 0.89460  0.08180  0.68320  Biso   1.000  H
  C93      1.0000 0.01740  0.08890  0.71130  Biso   1.000  C
  H154     1.0000 0.08050  0.10180  0.71000  Biso   1.000  H
  H155     1.0000 0.98640  0.13340  0.68410  Biso   1.000  H
  O32      1.0000 0.37830  0.55510  0.05751  Biso   1.000  O
  C94      1.0000 0.23610  0.67080  0.06130  Biso   1.000  C
  H156     1.0000 0.25640  0.64780  0.10320  Biso   1.000  H
  C95      1.0000 0.44870  0.57440  0.20990  Biso   1.000  C
  H157     1.0000 0.48290  0.62890  0.20710  Biso   1.000  H
  H158     1.0000 0.39460  0.58180  0.18320  Biso   1.000  H
  C96      1.0000 0.51740  0.58890  0.21130  Biso   1.000  C
  H159     1.0000 0.58050  0.60180  0.21000  Biso   1.000  H
  H160     1.0000 0.48640  0.63340  0.18410  Biso   1.000  H
  Zn1      1.0000 0.00000  0.00000  0.07668  Biso   1.000  Zn
  N1       1.0000 0.00000  0.00000  0.18350  Biso   1.000  N
  Zn2      1.0000 0.50000  0.50000  0.57668  Biso   1.000  Zn
  N2       1.0000 0.50000  0.50000  0.68350  Biso   1.000  N
  Zn3      1.0000 0.00000  0.00000  0.42332  Biso   1.000  Zn
  N3       1.0000 0.00000  0.00000  0.31650  Biso   1.000  N
  Zn4      1.0000 0.50000  0.50000  0.92332  Biso   1.000  Zn
  N4       1.0000 0.50000  0.50000  0.81650  Biso   1.000  N
  Zn5      1.0000 0.00000  0.00000  0.92332  Biso   1.000  Zn
  N5       1.0000 0.00000  0.00000  0.81650  Biso   1.000  N
  Zn6      1.0000 0.50000  0.50000  0.42332  Biso   1.000  Zn
  N6       1.0000 0.50000  0.50000  0.31650  Biso   1.000  N
  Zn7      1.0000 0.00000  0.00000  0.57668  Biso   1.000  Zn
  N7       1.0000 0.00000  0.00000  0.68350  Biso   1.000  N
  Zn8      1.0000 0.50000  0.50000  0.07668  Biso   1.000  Zn
  N8       1.0000 0.50000  0.50000  0.18350  Biso   1.000  N
  C97      1.0000 0.14030  0.77070  0.00000  Biso   1.000  C
  C98      1.0000 0.07830  0.84800  0.00000  Biso   1.000  C
  C99      1.0000 0.64030  0.27070  0.50000  Biso   1.000  C
  C100     1.0000 0.57830  0.34800  0.50000  Biso   1.000  C
  C101     1.0000 0.85970  0.22930  0.00000  Biso   1.000  C
  C102     1.0000 0.92170  0.15200  0.00000  Biso   1.000  C
  C103     1.0000 0.35970  0.72930  0.50000  Biso   1.000  C
  C104     1.0000 0.42170  0.65200  0.50000  Biso   1.000  C
  C105     1.0000 0.22930  0.14030  0.00000  Biso   1.000  C
  C106     1.0000 0.15200  0.07830  0.00000  Biso   1.000  C
  C107     1.0000 0.72930  0.64030  0.50000  Biso   1.000  C
  C108     1.0000 0.65200  0.57830  0.50000  Biso   1.000  C
  C109     1.0000 0.77070  0.85970  0.00000  Biso   1.000  C
  C110     1.0000 0.84800  0.92170  0.00000  Biso   1.000  C
  C111     1.0000 0.27070  0.35970  0.50000  Biso   1.000  C
  C112     1.0000 0.34800  0.42170  0.50000  Biso   1.000  C
  C113     1.0000 0.85970  0.77070  0.50000  Biso   1.000  C
  C114     1.0000 0.92170  0.84800  0.50000  Biso   1.000  C
  C115     1.0000 0.35970  0.27070  0.00000  Biso   1.000  C
  C116     1.0000 0.42170  0.34800  0.00000  Biso   1.000  C
  C117     1.0000 0.14030  0.22930  0.50000  Biso   1.000  C
  C118     1.0000 0.07830  0.15200  0.50000  Biso   1.000  C
  C119     1.0000 0.64030  0.72930  0.00000  Biso   1.000  C
  C120     1.0000 0.57830  0.65200  0.00000  Biso   1.000  C
  C121     1.0000 0.77070  0.14030  0.50000  Biso   1.000  C
  C122     1.0000 0.84800  0.07830  0.50000  Biso   1.000  C
  C123     1.0000 0.27070  0.64030  0.00000  Biso   1.000  C
  C124     1.0000 0.34800  0.57830  0.00000  Biso   1.000  C
  C125     1.0000 0.22930  0.85970  0.50000  Biso   1.000  C
  C126     1.0000 0.15200  0.92170  0.50000  Biso   1.000  C
  C127     1.0000 0.72930  0.35970  0.00000  Biso   1.000  C
  C128     1.0000 0.65200  0.42170  0.00000  Biso   1.000  C
