data_image0
_cell_length_a       14.3263
_cell_length_b       25.7839
_cell_length_c       8.1185
_cell_angle_alpha    90
_cell_angle_beta     101.598
_cell_angle_gamma    90

_symmetry_space_group_name_H-M    "P 1"
_symmetry_int_tables_number       1

loop_
  _symmetry_equiv_pos_as_xyz
  'x, y, z'

loop_
  _atom_site_label
  _atom_site_occupancy
  _atom_site_fract_x
  _atom_site_fract_y
  _atom_site_fract_z
  _atom_site_thermal_displace_type
  _atom_site_B_iso_or_equiv
  _atom_site_type_symbol
  Zn1      1.0000 0.52545  0.51517  0.95410  Biso   1.000  Zn
  Zn2      1.0000 0.66635  0.68944  0.74038  Biso   1.000  Zn
  Zn3      1.0000 0.38592  0.68630  0.20223  Biso   1.000  Zn
  P1       1.0000 0.69762  0.77067  0.45900  Biso   1.000  P
  P2       1.0000 0.63855  0.56812  0.69149  Biso   1.000  P
  P3       1.0000 0.40920  0.56301  0.21261  Biso   1.000  P
  O1       1.0000 0.64750  0.74203  0.57170  Biso   1.000  O
  O2       1.0000 0.76890  0.80933  0.53320  Biso   1.000  O
  O3       1.0000 0.73400  0.72780  0.35400  Biso   1.000  O
  O4       1.0000 0.56120  0.56321  0.79260  Biso   1.000  O
  O5       1.0000 0.62900  0.52979  0.54710  Biso   1.000  O
  O6       1.0000 0.64080  0.62309  0.62470  Biso   1.000  O
  O7       1.0000 0.49210  0.56097  0.12230  Biso   1.000  O
  O8       1.0000 0.41330  0.52239  0.34540  Biso   1.000  O
  O9       1.0000 0.39990  0.61583  0.28550  Biso   1.000  O
  H1       1.0000 0.63610  0.80190  0.34240  Biso   1.000  H
  H2       1.0000 0.73070  0.55920  0.84080  Biso   1.000  H
  H3       1.0000 0.33270  0.56490  0.11980  Biso   1.000  H
  P4       1.0000 0.88140  0.71567  0.91440  Biso   1.000  P
  O10      1.0000 0.90530  0.69960  0.09890  Biso   1.000  O
  O11      1.0000 0.87290  0.77677  0.90230  Biso   1.000  O
  O12      1.0000 0.79440  0.68933  0.85880  Biso   1.000  O
  H4       1.0000 0.96080  0.70830  0.86840  Biso   1.000  H
  P5       1.0000 0.52150  0.72796  0.96800  Biso   1.000  P
  O13      1.0000 0.49880  0.70620  0.12380  Biso   1.000  O
  O14      1.0000 0.56300  0.69460  0.85400  Biso   1.000  O
  H5       1.0000 0.56500  0.77860  0.99800  Biso   1.000  H
  O15      1.0000 0.42110  0.73490  0.83220  Biso   1.000  O
  O16      1.0000 0.59500  0.69660  0.92400  Biso   1.000  O
  O17      1.0000 0.75600  0.73900  0.35300  Biso   1.000  O
  O18      1.0000 0.97400  0.72560  0.42800  Biso   1.000  O
  O19      1.0000 0.85510  0.73680  0.16480  Biso   1.000  O
  P6       1.0000 0.86230  0.72870  0.98480  Biso   1.000  P
  Zn4      1.0000 0.02545  0.01517  0.95410  Biso   1.000  Zn
  Zn5      1.0000 0.16635  0.18944  0.74038  Biso   1.000  Zn
  Zn6      1.0000 0.88592  0.18630  0.20223  Biso   1.000  Zn
  P7       1.0000 0.19762  0.27067  0.45900  Biso   1.000  P
  P8       1.0000 0.13855  0.06812  0.69149  Biso   1.000  P
  P9       1.0000 0.90920  0.06301  0.21261  Biso   1.000  P
  O20      1.0000 0.14750  0.24203  0.57170  Biso   1.000  O
  O21      1.0000 0.26890  0.30933  0.53320  Biso   1.000  O
  O22      1.0000 0.23400  0.22780  0.35400  Biso   1.000  O
  O23      1.0000 0.06120  0.06321  0.79260  Biso   1.000  O
  O24      1.0000 0.12900  0.02979  0.54710  Biso   1.000  O
  O25      1.0000 0.14080  0.12309  0.62470  Biso   1.000  O
  O26      1.0000 0.99210  0.06097  0.12230  Biso   1.000  O
  O27      1.0000 0.91330  0.02239  0.34540  Biso   1.000  O
  O28      1.0000 0.89990  0.11583  0.28550  Biso   1.000  O
  H6       1.0000 0.13610  0.30190  0.34240  Biso   1.000  H
  H7       1.0000 0.23070  0.05920  0.84080  Biso   1.000  H
  H8       1.0000 0.83270  0.06490  0.11980  Biso   1.000  H
  P10      1.0000 0.38140  0.21567  0.91440  Biso   1.000  P
  O29      1.0000 0.40530  0.19960  0.09890  Biso   1.000  O
  O30      1.0000 0.37290  0.27677  0.90230  Biso   1.000  O
  O31      1.0000 0.29440  0.18933  0.85880  Biso   1.000  O
  H9       1.0000 0.46080  0.20830  0.86840  Biso   1.000  H
  P11      1.0000 0.02150  0.22796  0.96800  Biso   1.000  P
  O32      1.0000 0.99880  0.20620  0.12380  Biso   1.000  O
  O33      1.0000 0.06300  0.19460  0.85400  Biso   1.000  O
  H10      1.0000 0.06500  0.27860  0.99800  Biso   1.000  H
  O34      1.0000 0.92110  0.23490  0.83220  Biso   1.000  O
  O35      1.0000 0.09500  0.19660  0.92400  Biso   1.000  O
  O36      1.0000 0.25600  0.23900  0.35300  Biso   1.000  O
  O37      1.0000 0.47400  0.22560  0.42800  Biso   1.000  O
  O38      1.0000 0.35510  0.23680  0.16480  Biso   1.000  O
  P12      1.0000 0.36230  0.22870  0.98480  Biso   1.000  P
  Zn7      1.0000 0.52545  0.48483  0.45410  Biso   1.000  Zn
  Zn8      1.0000 0.66635  0.31056  0.24038  Biso   1.000  Zn
  Zn9      1.0000 0.38592  0.31370  0.70223  Biso   1.000  Zn
  P13      1.0000 0.69762  0.22933  0.95900  Biso   1.000  P
  P14      1.0000 0.63855  0.43188  0.19149  Biso   1.000  P
  P15      1.0000 0.40920  0.43699  0.71261  Biso   1.000  P
  O39      1.0000 0.64750  0.25797  0.07170  Biso   1.000  O
  O40      1.0000 0.76890  0.19067  0.03320  Biso   1.000  O
  O41      1.0000 0.73400  0.27220  0.85400  Biso   1.000  O
  O42      1.0000 0.56120  0.43679  0.29260  Biso   1.000  O
  O43      1.0000 0.62900  0.47021  0.04710  Biso   1.000  O
  O44      1.0000 0.64080  0.37691  0.12470  Biso   1.000  O
  O45      1.0000 0.49210  0.43903  0.62230  Biso   1.000  O
  O46      1.0000 0.41330  0.47761  0.84540  Biso   1.000  O
  O47      1.0000 0.39990  0.38417  0.78550  Biso   1.000  O
  H11      1.0000 0.63610  0.19810  0.84240  Biso   1.000  H
  H12      1.0000 0.73070  0.44080  0.34080  Biso   1.000  H
  H13      1.0000 0.33270  0.43510  0.61980  Biso   1.000  H
  P16      1.0000 0.88140  0.28433  0.41440  Biso   1.000  P
  O48      1.0000 0.90530  0.30040  0.59890  Biso   1.000  O
  O49      1.0000 0.87290  0.22323  0.40230  Biso   1.000  O
  O50      1.0000 0.79440  0.31067  0.35880  Biso   1.000  O
  H14      1.0000 0.96080  0.29170  0.36840  Biso   1.000  H
  P17      1.0000 0.52150  0.27204  0.46800  Biso   1.000  P
  O51      1.0000 0.49880  0.29380  0.62380  Biso   1.000  O
  O52      1.0000 0.56300  0.30540  0.35400  Biso   1.000  O
  H15      1.0000 0.56500  0.22140  0.49800  Biso   1.000  H
  O53      1.0000 0.42110  0.26510  0.33220  Biso   1.000  O
  O54      1.0000 0.59500  0.30340  0.42400  Biso   1.000  O
  O55      1.0000 0.75600  0.26100  0.85300  Biso   1.000  O
  O56      1.0000 0.97400  0.27440  0.92800  Biso   1.000  O
  O57      1.0000 0.85510  0.26320  0.66480  Biso   1.000  O
  P18      1.0000 0.86230  0.27130  0.48480  Biso   1.000  P
  Zn10     1.0000 0.02545  0.98483  0.45410  Biso   1.000  Zn
  Zn11     1.0000 0.16635  0.81056  0.24038  Biso   1.000  Zn
  Zn12     1.0000 0.88592  0.81370  0.70223  Biso   1.000  Zn
  P19      1.0000 0.19762  0.72933  0.95900  Biso   1.000  P
  P20      1.0000 0.13855  0.93188  0.19149  Biso   1.000  P
  P21      1.0000 0.90920  0.93699  0.71261  Biso   1.000  P
  O58      1.0000 0.14750  0.75797  0.07170  Biso   1.000  O
  O59      1.0000 0.26890  0.69067  0.03320  Biso   1.000  O
  O60      1.0000 0.23400  0.77220  0.85400  Biso   1.000  O
  O61      1.0000 0.06120  0.93679  0.29260  Biso   1.000  O
  O62      1.0000 0.12900  0.97021  0.04710  Biso   1.000  O
  O63      1.0000 0.14080  0.87691  0.12470  Biso   1.000  O
  O64      1.0000 0.99210  0.93903  0.62230  Biso   1.000  O
  O65      1.0000 0.91330  0.97761  0.84540  Biso   1.000  O
  O66      1.0000 0.89990  0.88417  0.78550  Biso   1.000  O
  H16      1.0000 0.13610  0.69810  0.84240  Biso   1.000  H
  H17      1.0000 0.23070  0.94080  0.34080  Biso   1.000  H
  H18      1.0000 0.83270  0.93510  0.61980  Biso   1.000  H
  P22      1.0000 0.38140  0.78433  0.41440  Biso   1.000  P
  O67      1.0000 0.40530  0.80040  0.59890  Biso   1.000  O
  O68      1.0000 0.37290  0.72323  0.40230  Biso   1.000  O
  O69      1.0000 0.29440  0.81067  0.35880  Biso   1.000  O
  H19      1.0000 0.46080  0.79170  0.36840  Biso   1.000  H
  P23      1.0000 0.02150  0.77204  0.46800  Biso   1.000  P
  O70      1.0000 0.99880  0.79380  0.62380  Biso   1.000  O
  O71      1.0000 0.06300  0.80540  0.35400  Biso   1.000  O
  H20      1.0000 0.06500  0.72140  0.49800  Biso   1.000  H
  O72      1.0000 0.92110  0.76510  0.33220  Biso   1.000  O
  O73      1.0000 0.09500  0.80340  0.42400  Biso   1.000  O
  O74      1.0000 0.25600  0.76100  0.85300  Biso   1.000  O
  O75      1.0000 0.47400  0.77440  0.92800  Biso   1.000  O
  O76      1.0000 0.35510  0.76320  0.66480  Biso   1.000  O
  P24      1.0000 0.36230  0.77130  0.48480  Biso   1.000  P
