data_image0
_cell_length_a       6.886
_cell_length_b       6.886
_cell_length_c       8.3
_cell_angle_alpha    90
_cell_angle_beta     90
_cell_angle_gamma    90

_symmetry_space_group_name_H-M    "P 1"
_symmetry_int_tables_number       1

loop_
  _symmetry_equiv_pos_as_xyz
  'x, y, z'

loop_
  _atom_site_label
  _atom_site_occupancy
  _atom_site_fract_x
  _atom_site_fract_y
  _atom_site_fract_z
  _atom_site_thermal_displace_type
  _atom_site_B_iso_or_equiv
  _atom_site_type_symbol
  C1       1.0000 0.44050  0.10000  0.37240  Biso   1.000  C
  C2       1.0000 0.55950  0.90000  0.37240  Biso   1.000  C
  C3       1.0000 0.90000  0.44050  0.37240  Biso   1.000  C
  C4       1.0000 0.10000  0.55950  0.37240  Biso   1.000  C
  C5       1.0000 0.55950  0.10000  0.62760  Biso   1.000  C
  C6       1.0000 0.44050  0.90000  0.62760  Biso   1.000  C
  C7       1.0000 0.10000  0.44050  0.62760  Biso   1.000  C
  C8       1.0000 0.90000  0.55950  0.62760  Biso   1.000  C
  C9       1.0000 0.55950  0.90000  0.62760  Biso   1.000  C
  C10      1.0000 0.44050  0.10000  0.62760  Biso   1.000  C
  C11      1.0000 0.10000  0.55950  0.62760  Biso   1.000  C
  C12      1.0000 0.90000  0.44050  0.62760  Biso   1.000  C
  C13      1.0000 0.44050  0.90000  0.37240  Biso   1.000  C
  C14      1.0000 0.55950  0.10000  0.37240  Biso   1.000  C
  C15      1.0000 0.90000  0.55950  0.37240  Biso   1.000  C
  C16      1.0000 0.10000  0.44050  0.37240  Biso   1.000  C
  Cu1      1.0000 0.50000  0.50000  0.50000  Biso   1.000  Cu
  N1       1.0000 0.50000  0.20060  0.50000  Biso   1.000  N
  N2       1.0000 0.50000  0.79940  0.50000  Biso   1.000  N
  N3       1.0000 0.79940  0.50000  0.50000  Biso   1.000  N
  N4       1.0000 0.20060  0.50000  0.50000  Biso   1.000  N
  W1       1.0000 0.50000  0.50000  0.00000  Biso   1.000  W
  F1       1.0000 0.50000  0.50000  0.22960  Biso   1.000  F
  F2       1.0000 0.50000  0.50000  0.77040  Biso   1.000  F
  F3       1.0000 0.41810  0.24110  0.00000  Biso   1.000  F
  F4       1.0000 0.58190  0.75890  0.00000  Biso   1.000  F
  F5       1.0000 0.75890  0.41810  0.00000  Biso   1.000  F
  F6       1.0000 0.24110  0.58190  0.00000  Biso   1.000  F
  F7       1.0000 0.58190  0.24110  0.00000  Biso   1.000  F
  F8       1.0000 0.41810  0.75890  0.00000  Biso   1.000  F
  F9       1.0000 0.24110  0.41810  0.00000  Biso   1.000  F
  F10      1.0000 0.75890  0.58190  0.00000  Biso   1.000  F
