data_image0
_cell_length_a       9.764
_cell_length_b       12.198
_cell_length_c       12.564
_cell_angle_alpha    62.38
_cell_angle_beta     67.67
_cell_angle_gamma    73.032

_symmetry_space_group_name_H-M    "P 1"
_symmetry_int_tables_number       1

loop_
  _symmetry_equiv_pos_as_xyz
  'x, y, z'

loop_
  _atom_site_label
  _atom_site_occupancy
  _atom_site_fract_x
  _atom_site_fract_y
  _atom_site_fract_z
  _atom_site_thermal_displace_type
  _atom_site_B_iso_or_equiv
  _atom_site_type_symbol
  C1       1.0000 0.21360  0.32110  0.97900  Biso   1.000  C
  C2       1.0000 0.34700  0.26200  0.02120  Biso   1.000  C
  C3       1.0000 0.24020  0.45060  0.87440  Biso   1.000  C
  H1       1.0000 0.33090  0.48000  0.84570  Biso   1.000  H
  C4       1.0000 0.12250  0.52210  0.82440  Biso   1.000  C
  H2       1.0000 0.13260  0.60210  0.76190  Biso   1.000  H
  C5       1.0000 0.98970  0.47400  0.86780  Biso   1.000  C
  H3       1.0000 0.91100  0.52190  0.83430  Biso   1.000  H
  C6       1.0000 0.97470  0.35450  0.96110  Biso   1.000  C
  C7       1.0000 0.09240  0.28300  0.01110  Biso   1.000  C
  H4       1.0000 0.08030  0.20240  0.07180  Biso   1.000  H
  C8       1.0000 0.82670  0.30930  0.01090  Biso   1.000  C
  C9       1.0000 0.57200  0.88690  0.25610  Biso   1.000  C
  C10      1.0000 0.59390  0.77200  0.36810  Biso   1.000  C
  C11      1.0000 0.64100  0.65730  0.35790  Biso   1.000  C
  H5       1.0000 0.66020  0.65330  0.28120  Biso   1.000  H
  C12      1.0000 0.65800  0.54850  0.46220  Biso   1.000  C
  H6       1.0000 0.68900  0.47180  0.45530  Biso   1.000  H
  C13      1.0000 0.62800  0.55440  0.57680  Biso   1.000  C
  H7       1.0000 0.64000  0.48160  0.64660  Biso   1.000  H
  C14      1.0000 0.58180  0.66910  0.58710  Biso   1.000  C
  C15      1.0000 0.56450  0.77790  0.48280  Biso   1.000  C
  H8       1.0000 0.53330  0.85460  0.48970  Biso   1.000  H
  C16      1.0000 0.54500  0.67150  0.71410  Biso   1.000  C
  C17      1.0000 0.15700  0.30400  0.02600  Biso   1.000  C
  C18      1.0000 0.61000  0.76000  0.98000  Biso   1.000  C
  Mn1      1.0000 0.59120  0.17120  0.12500  Biso   1.000  Mn
  O1       1.0000 0.36050  0.14250  0.07930  Biso   1.000  O
  O2       1.0000 0.44350  0.31710  0.01830  Biso   1.000  O
  O3       1.0000 0.71450  0.38530  0.98740  Biso   1.000  O
  O4       1.0000 0.81710  0.19300  0.08120  Biso   1.000  O
  O5       1.0000 0.54240  0.87590  0.17180  Biso   1.000  O
  O6       1.0000 0.59150  0.98720  0.25190  Biso   1.000  O
  O7       1.0000 0.49760  0.77510  0.72190  Biso   1.000  O
  O8       1.0000 0.55930  0.56810  0.80480  Biso   1.000  O
  O9       1.0000 0.86200  0.22600  0.94800  Biso   1.000  O
  O10      1.0000 0.63900  0.93700  0.12200  Biso   1.000  O
  C19      1.0000 0.78640  0.67890  0.02100  Biso   1.000  C
  C20      1.0000 0.65300  0.73800  0.97880  Biso   1.000  C
  C21      1.0000 0.75980  0.54940  0.12560  Biso   1.000  C
  H9       1.0000 0.66910  0.52000  0.15430  Biso   1.000  H
  C22      1.0000 0.87750  0.47790  0.17560  Biso   1.000  C
  H10      1.0000 0.86740  0.39790  0.23810  Biso   1.000  H
  C23      1.0000 0.01030  0.52600  0.13220  Biso   1.000  C
  H11      1.0000 0.08900  0.47810  0.16570  Biso   1.000  H
  C24      1.0000 0.02530  0.64550  0.03890  Biso   1.000  C
  C25      1.0000 0.90760  0.71700  0.98890  Biso   1.000  C
  H12      1.0000 0.91970  0.79760  0.92820  Biso   1.000  H
  C26      1.0000 0.17330  0.69070  0.98910  Biso   1.000  C
  C27      1.0000 0.42800  0.11310  0.74390  Biso   1.000  C
  C28      1.0000 0.40610  0.22800  0.63190  Biso   1.000  C
  C29      1.0000 0.35900  0.34270  0.64210  Biso   1.000  C
  H13      1.0000 0.33980  0.34670  0.71880  Biso   1.000  H
  C30      1.0000 0.34200  0.45150  0.53780  Biso   1.000  C
  H14      1.0000 0.31100  0.52820  0.54470  Biso   1.000  H
  C31      1.0000 0.37200  0.44560  0.42320  Biso   1.000  C
  H15      1.0000 0.36000  0.51840  0.35340  Biso   1.000  H
  C32      1.0000 0.41820  0.33090  0.41290  Biso   1.000  C
  C33      1.0000 0.43550  0.22210  0.51720  Biso   1.000  C
  H16      1.0000 0.46670  0.14540  0.51030  Biso   1.000  H
  C34      1.0000 0.45500  0.32850  0.28590  Biso   1.000  C
  C35      1.0000 0.84300  0.69600  0.97400  Biso   1.000  C
  C36      1.0000 0.39000  0.24000  0.02000  Biso   1.000  C
  Mn2      1.0000 0.40880  0.82880  0.87500  Biso   1.000  Mn
  O11      1.0000 0.63950  0.85750  0.92070  Biso   1.000  O
  O12      1.0000 0.55650  0.68290  0.98170  Biso   1.000  O
  O13      1.0000 0.28550  0.61470  0.01260  Biso   1.000  O
  O14      1.0000 0.18290  0.80700  0.91880  Biso   1.000  O
  O15      1.0000 0.45760  0.12410  0.82820  Biso   1.000  O
  O16      1.0000 0.40850  0.01280  0.74810  Biso   1.000  O
  O17      1.0000 0.50240  0.22490  0.27810  Biso   1.000  O
  O18      1.0000 0.44070  0.43190  0.19520  Biso   1.000  O
  O19      1.0000 0.13800  0.77400  0.05200  Biso   1.000  O
  O20      1.0000 0.36100  0.06300  0.87800  Biso   1.000  O
  Mn3      1.0000 0.50000  0.00000  0.00000  Biso   1.000  Mn
  Mn4      1.0000 0.50000  0.50000  0.00000  Biso   1.000  Mn
