data_image0
_cell_length_a       15.4488
_cell_length_b       18.1141
_cell_length_c       17.5541
_cell_angle_alpha    90
_cell_angle_beta     103.171
_cell_angle_gamma    90

_symmetry_space_group_name_H-M    "P 1"
_symmetry_int_tables_number       1

loop_
  _symmetry_equiv_pos_as_xyz
  'x, y, z'

loop_
  _atom_site_label
  _atom_site_occupancy
  _atom_site_fract_x
  _atom_site_fract_y
  _atom_site_fract_z
  _atom_site_thermal_displace_type
  _atom_site_B_iso_or_equiv
  _atom_site_type_symbol
  C1       1.0000 0.96180  0.93460  0.66860  Biso   1.000  C
  C2       1.0000 0.97290  0.86260  0.71200  Biso   1.000  C
  C3       1.0000 0.06060  0.83880  0.74120  Biso   1.000  C
  H1       1.0000 0.10860  0.86770  0.73240  Biso   1.000  H
  C4       1.0000 0.07740  0.77400  0.78250  Biso   1.000  C
  H2       1.0000 0.13700  0.75830  0.80210  Biso   1.000  H
  C5       1.0000 0.00810  0.73160  0.79560  Biso   1.000  C
  C6       1.0000 0.92000  0.75380  0.76490  Biso   1.000  C
  H3       1.0000 0.87260  0.72330  0.77230  Biso   1.000  H
  C7       1.0000 0.90140  0.81870  0.72450  Biso   1.000  C
  C8       1.0000 0.73400  0.80790  0.69620  Biso   1.000  C
  C9       1.0000 0.65280  0.84900  0.66100  Biso   1.000  C
  H4       1.0000 0.65670  0.86520  0.60800  Biso   1.000  H
  H5       1.0000 0.65070  0.89400  0.69260  Biso   1.000  H
  C10      1.0000 0.56670  0.80710  0.65440  Biso   1.000  C
  H6       1.0000 0.51710  0.83690  0.62550  Biso   1.000  H
  H7       1.0000 0.55790  0.79660  0.70680  Biso   1.000  H
  H8       1.0000 0.56950  0.76060  0.62650  Biso   1.000  H
  C11      1.0000 0.02400  0.66020  0.84060  Biso   1.000  C
  C12      1.0000 0.69130  0.99600  0.52360  Biso   1.000  C
  C13      1.0000 0.59240  0.99560  0.51920  Biso   1.000  C
  C14      1.0000 0.54870  0.05670  0.54040  Biso   1.000  C
  C15      1.0000 0.45680  0.05580  0.53010  Biso   1.000  C
  H9       1.0000 0.42700  0.09760  0.54460  Biso   1.000  H
  C16      1.0000 0.40860  0.99380  0.49880  Biso   1.000  C
  C17      1.0000 0.45220  0.93270  0.47760  Biso   1.000  C
  H10      1.0000 0.41930  0.89030  0.45620  Biso   1.000  H
  C18      1.0000 0.54410  0.93360  0.48790  Biso   1.000  C
  H11      1.0000 0.57400  0.89180  0.47350  Biso   1.000  H
  C19      1.0000 0.56760  0.19570  0.59450  Biso   1.000  C
  C20      1.0000 0.64550  0.24750  0.62540  Biso   1.000  C
  H12      1.0000 0.69430  0.22000  0.66020  Biso   1.000  H
  H13      1.0000 0.66810  0.26760  0.58120  Biso   1.000  H
  C21      1.0000 0.61690  0.30660  0.66770  Biso   1.000  C
  H14      1.0000 0.66650  0.34070  0.68610  Biso   1.000  H
  H15      1.0000 0.59690  0.28660  0.71270  Biso   1.000  H
  H16      1.0000 0.56780  0.33300  0.63330  Biso   1.000  H
  N1       1.0000 0.81100  0.84000  0.69300  Biso   1.000  N
  H17      1.0000 0.80510  0.88180  0.66690  Biso   1.000  H
  N2       1.0000 0.59520  0.12780  0.56820  Biso   1.000  N
  H18      1.0000 0.65210  0.12710  0.56800  Biso   1.000  H
  O1       1.0000 0.02718  0.96178  0.64968  Biso   1.000  O
  O2       1.0000 0.88355  0.96327  0.65241  Biso   1.000  O
  O3       1.0000 0.72900  0.74700  0.72640  Biso   1.000  O
  O4       1.0000 0.95937  0.62947  0.85842  Biso   1.000  O
  O5       1.0000 0.10329  0.63753  0.85696  Biso   1.000  O
  O6       1.0000 0.72708  0.93789  0.51210  Biso   1.000  O
  O7       1.0000 0.73328  0.05633  0.54670  Biso   1.000  O
  O8       1.0000 0.49670  0.20660  0.60090  Biso   1.000  O
  O9       1.0000 0.93030  0.04500  0.50296  Biso   1.000  O
  Zn1      1.0000 0.06087  0.04038  0.57324  Biso   1.000  Zn
  Zn2      1.0000 0.86111  0.04729  0.58156  Biso   1.000  Zn
  H19      1.0000 0.92200  0.08500  0.48300  Biso   1.000  H
  C22      1.0000 0.03820  0.43460  0.83140  Biso   1.000  C
  C23      1.0000 0.02710  0.36260  0.78800  Biso   1.000  C
  C24      1.0000 0.93940  0.33880  0.75880  Biso   1.000  C
  H20      1.0000 0.89140  0.36770  0.76760  Biso   1.000  H
  C25      1.0000 0.92260  0.27400  0.71750  Biso   1.000  C
  H21      1.0000 0.86300  0.25830  0.69790  Biso   1.000  H
  C26      1.0000 0.99190  0.23160  0.70440  Biso   1.000  C
  C27      1.0000 0.08000  0.25380  0.73510  Biso   1.000  C
  H22      1.0000 0.12740  0.22330  0.72770  Biso   1.000  H
  C28      1.0000 0.09860  0.31870  0.77550  Biso   1.000  C
  C29      1.0000 0.26600  0.30790  0.80380  Biso   1.000  C
  C30      1.0000 0.34720  0.34900  0.83900  Biso   1.000  C
  H23      1.0000 0.34330  0.36520  0.89200  Biso   1.000  H
  H24      1.0000 0.34930  0.39400  0.80740  Biso   1.000  H
  C31      1.0000 0.43330  0.30710  0.84560  Biso   1.000  C
  H25      1.0000 0.48290  0.33690  0.87450  Biso   1.000  H
  H26      1.0000 0.44210  0.29660  0.79320  Biso   1.000  H
  H27      1.0000 0.43050  0.26060  0.87350  Biso   1.000  H
  C32      1.0000 0.97600  0.16020  0.65940  Biso   1.000  C
  C33      1.0000 0.30870  0.49600  0.97640  Biso   1.000  C
  C34      1.0000 0.40760  0.49560  0.98080  Biso   1.000  C
  C35      1.0000 0.45130  0.55670  0.95960  Biso   1.000  C
  C36      1.0000 0.54320  0.55580  0.96990  Biso   1.000  C
  H28      1.0000 0.57300  0.59760  0.95540  Biso   1.000  H
  C37      1.0000 0.59140  0.49380  0.00120  Biso   1.000  C
  C38      1.0000 0.54780  0.43270  0.02240  Biso   1.000  C
  H29      1.0000 0.58070  0.39030  0.04380  Biso   1.000  H
  C39      1.0000 0.45590  0.43360  0.01210  Biso   1.000  C
  H30      1.0000 0.42600  0.39180  0.02650  Biso   1.000  H
  C40      1.0000 0.43240  0.69570  0.90550  Biso   1.000  C
  C41      1.0000 0.35450  0.74750  0.87460  Biso   1.000  C
  H31      1.0000 0.30570  0.72000  0.83980  Biso   1.000  H
  H32      1.0000 0.33190  0.76760  0.91880  Biso   1.000  H
  C42      1.0000 0.38310  0.80660  0.83230  Biso   1.000  C
  H33      1.0000 0.33350  0.84070  0.81390  Biso   1.000  H
  H34      1.0000 0.40310  0.78660  0.78730  Biso   1.000  H
  H35      1.0000 0.43220  0.83300  0.86670  Biso   1.000  H
  N3       1.0000 0.18900  0.34000  0.80700  Biso   1.000  N
  H36      1.0000 0.19490  0.38180  0.83310  Biso   1.000  H
  N4       1.0000 0.40480  0.62780  0.93180  Biso   1.000  N
  H37      1.0000 0.34790  0.62710  0.93200  Biso   1.000  H
  O10      1.0000 0.97282  0.46178  0.85032  Biso   1.000  O
  O11      1.0000 0.11645  0.46327  0.84759  Biso   1.000  O
  O12      1.0000 0.27100  0.24700  0.77360  Biso   1.000  O
  O13      1.0000 0.04063  0.12947  0.64158  Biso   1.000  O
  O14      1.0000 0.89671  0.13753  0.64304  Biso   1.000  O
  O15      1.0000 0.27292  0.43789  0.98790  Biso   1.000  O
  O16      1.0000 0.26672  0.55633  0.95330  Biso   1.000  O
  O17      1.0000 0.50330  0.70660  0.89910  Biso   1.000  O
  O18      1.0000 0.06970  0.54500  0.99704  Biso   1.000  O
  Zn3      1.0000 0.93913  0.54038  0.92676  Biso   1.000  Zn
  Zn4      1.0000 0.13889  0.54729  0.91844  Biso   1.000  Zn
  H38      1.0000 0.07800  0.58500  0.01700  Biso   1.000  H
  C43      1.0000 0.03820  0.06540  0.33140  Biso   1.000  C
  C44      1.0000 0.02710  0.13740  0.28800  Biso   1.000  C
  C45      1.0000 0.93940  0.16120  0.25880  Biso   1.000  C
  H39      1.0000 0.89140  0.13230  0.26760  Biso   1.000  H
  C46      1.0000 0.92260  0.22600  0.21750  Biso   1.000  C
  H40      1.0000 0.86300  0.24170  0.19790  Biso   1.000  H
  C47      1.0000 0.99190  0.26840  0.20440  Biso   1.000  C
  C48      1.0000 0.08000  0.24620  0.23510  Biso   1.000  C
  H41      1.0000 0.12740  0.27670  0.22770  Biso   1.000  H
  C49      1.0000 0.09860  0.18130  0.27550  Biso   1.000  C
  C50      1.0000 0.26600  0.19210  0.30380  Biso   1.000  C
  C51      1.0000 0.34720  0.15100  0.33900  Biso   1.000  C
  H42      1.0000 0.34330  0.13480  0.39200  Biso   1.000  H
  H43      1.0000 0.34930  0.10600  0.30740  Biso   1.000  H
  C52      1.0000 0.43330  0.19290  0.34560  Biso   1.000  C
  H44      1.0000 0.48290  0.16310  0.37450  Biso   1.000  H
  H45      1.0000 0.44210  0.20340  0.29320  Biso   1.000  H
  H46      1.0000 0.43050  0.23940  0.37350  Biso   1.000  H
  C53      1.0000 0.97600  0.33980  0.15940  Biso   1.000  C
  C54      1.0000 0.30870  0.00400  0.47640  Biso   1.000  C
  C55      1.0000 0.40760  0.00440  0.48080  Biso   1.000  C
  C56      1.0000 0.45130  0.94330  0.45960  Biso   1.000  C
  C57      1.0000 0.54320  0.94420  0.46990  Biso   1.000  C
  H47      1.0000 0.57300  0.90240  0.45540  Biso   1.000  H
  C58      1.0000 0.59140  0.00620  0.50120  Biso   1.000  C
  C59      1.0000 0.54780  0.06730  0.52240  Biso   1.000  C
  H48      1.0000 0.58070  0.10970  0.54380  Biso   1.000  H
  C60      1.0000 0.45590  0.06640  0.51210  Biso   1.000  C
  H49      1.0000 0.42600  0.10820  0.52650  Biso   1.000  H
  C61      1.0000 0.43240  0.80430  0.40550  Biso   1.000  C
  C62      1.0000 0.35450  0.75250  0.37460  Biso   1.000  C
  H50      1.0000 0.30570  0.78000  0.33980  Biso   1.000  H
  H51      1.0000 0.33190  0.73240  0.41880  Biso   1.000  H
  C63      1.0000 0.38310  0.69340  0.33230  Biso   1.000  C
  H52      1.0000 0.33350  0.65930  0.31390  Biso   1.000  H
  H53      1.0000 0.40310  0.71340  0.28730  Biso   1.000  H
  H54      1.0000 0.43220  0.66700  0.36670  Biso   1.000  H
  N5       1.0000 0.18900  0.16000  0.30700  Biso   1.000  N
  H55      1.0000 0.19490  0.11820  0.33310  Biso   1.000  H
  N6       1.0000 0.40480  0.87220  0.43180  Biso   1.000  N
  H56      1.0000 0.34790  0.87290  0.43200  Biso   1.000  H
  O19      1.0000 0.97282  0.03822  0.35032  Biso   1.000  O
  O20      1.0000 0.11645  0.03673  0.34759  Biso   1.000  O
  O21      1.0000 0.27100  0.25300  0.27360  Biso   1.000  O
  O22      1.0000 0.04063  0.37053  0.14158  Biso   1.000  O
  O23      1.0000 0.89671  0.36247  0.14304  Biso   1.000  O
  O24      1.0000 0.27292  0.06211  0.48790  Biso   1.000  O
  O25      1.0000 0.26672  0.94367  0.45330  Biso   1.000  O
  O26      1.0000 0.50330  0.79340  0.39910  Biso   1.000  O
  O27      1.0000 0.06970  0.95500  0.49704  Biso   1.000  O
  Zn5      1.0000 0.93913  0.95962  0.42676  Biso   1.000  Zn
  Zn6      1.0000 0.13889  0.95271  0.41844  Biso   1.000  Zn
  H57      1.0000 0.07800  0.91500  0.51700  Biso   1.000  H
  C64      1.0000 0.96180  0.56540  0.16860  Biso   1.000  C
  C65      1.0000 0.97290  0.63740  0.21200  Biso   1.000  C
  C66      1.0000 0.06060  0.66120  0.24120  Biso   1.000  C
  H58      1.0000 0.10860  0.63230  0.23240  Biso   1.000  H
  C67      1.0000 0.07740  0.72600  0.28250  Biso   1.000  C
  H59      1.0000 0.13700  0.74170  0.30210  Biso   1.000  H
  C68      1.0000 0.00810  0.76840  0.29560  Biso   1.000  C
  C69      1.0000 0.92000  0.74620  0.26490  Biso   1.000  C
  H60      1.0000 0.87260  0.77670  0.27230  Biso   1.000  H
  C70      1.0000 0.90140  0.68130  0.22450  Biso   1.000  C
  C71      1.0000 0.73400  0.69210  0.19620  Biso   1.000  C
  C72      1.0000 0.65280  0.65100  0.16100  Biso   1.000  C
  H61      1.0000 0.65670  0.63480  0.10800  Biso   1.000  H
  H62      1.0000 0.65070  0.60600  0.19260  Biso   1.000  H
  C73      1.0000 0.56670  0.69290  0.15440  Biso   1.000  C
  H63      1.0000 0.51710  0.66310  0.12550  Biso   1.000  H
  H64      1.0000 0.55790  0.70340  0.20680  Biso   1.000  H
  H65      1.0000 0.56950  0.73940  0.12650  Biso   1.000  H
  C74      1.0000 0.02400  0.83980  0.34060  Biso   1.000  C
  C75      1.0000 0.69130  0.50400  0.02360  Biso   1.000  C
  C76      1.0000 0.59240  0.50440  0.01920  Biso   1.000  C
  C77      1.0000 0.54870  0.44330  0.04040  Biso   1.000  C
  C78      1.0000 0.45680  0.44420  0.03010  Biso   1.000  C
  H66      1.0000 0.42700  0.40240  0.04460  Biso   1.000  H
  C79      1.0000 0.40860  0.50620  0.99880  Biso   1.000  C
  C80      1.0000 0.45220  0.56730  0.97760  Biso   1.000  C
  H67      1.0000 0.41930  0.60970  0.95620  Biso   1.000  H
  C81      1.0000 0.54410  0.56640  0.98790  Biso   1.000  C
  H68      1.0000 0.57400  0.60820  0.97350  Biso   1.000  H
  C82      1.0000 0.56760  0.30430  0.09450  Biso   1.000  C
  C83      1.0000 0.64550  0.25250  0.12540  Biso   1.000  C
  H69      1.0000 0.69430  0.28000  0.16020  Biso   1.000  H
  H70      1.0000 0.66810  0.23240  0.08120  Biso   1.000  H
  C84      1.0000 0.61690  0.19340  0.16770  Biso   1.000  C
  H71      1.0000 0.66650  0.15930  0.18610  Biso   1.000  H
  H72      1.0000 0.59690  0.21340  0.21270  Biso   1.000  H
  H73      1.0000 0.56780  0.16700  0.13330  Biso   1.000  H
  N7       1.0000 0.81100  0.66000  0.19300  Biso   1.000  N
  H74      1.0000 0.80510  0.61820  0.16690  Biso   1.000  H
  N8       1.0000 0.59520  0.37220  0.06820  Biso   1.000  N
  H75      1.0000 0.65210  0.37290  0.06800  Biso   1.000  H
  O28      1.0000 0.02718  0.53822  0.14968  Biso   1.000  O
  O29      1.0000 0.88355  0.53673  0.15241  Biso   1.000  O
  O30      1.0000 0.72900  0.75300  0.22640  Biso   1.000  O
  O31      1.0000 0.95937  0.87053  0.35842  Biso   1.000  O
  O32      1.0000 0.10329  0.86247  0.35696  Biso   1.000  O
  O33      1.0000 0.72708  0.56211  0.01210  Biso   1.000  O
  O34      1.0000 0.73328  0.44367  0.04670  Biso   1.000  O
  O35      1.0000 0.49670  0.29340  0.10090  Biso   1.000  O
  O36      1.0000 0.93030  0.45500  0.00296  Biso   1.000  O
  Zn7      1.0000 0.06087  0.45962  0.07324  Biso   1.000  Zn
  Zn8      1.0000 0.86111  0.45271  0.08156  Biso   1.000  Zn
  H76      1.0000 0.92200  0.41500  0.98300  Biso   1.000  H
