data_image0
_cell_length_a       18.819
_cell_length_b       18.819
_cell_length_c       38.603
_cell_angle_alpha    90
_cell_angle_beta     90
_cell_angle_gamma    120

_symmetry_space_group_name_H-M    "P 1"
_symmetry_int_tables_number       1

loop_
  _symmetry_equiv_pos_as_xyz
  'x, y, z'

loop_
  _atom_site_label
  _atom_site_occupancy
  _atom_site_fract_x
  _atom_site_fract_y
  _atom_site_fract_z
  _atom_site_thermal_displace_type
  _atom_site_B_iso_or_equiv
  _atom_site_type_symbol
  C1       1.0000 0.76098  0.97274  0.30740  Biso   1.000  C
  C2       1.0000 0.81992  0.05228  0.29015  Biso   1.000  C
  C3       1.0000 0.80553  0.06680  0.25632  Biso   1.000  C
  H1       1.0000 0.75750  0.02900  0.24520  Biso   1.000  H
  C4       1.0000 0.91020  0.18700  0.17810  Biso   1.000  C
  C5       1.0000 0.86790  0.22980  0.19010  Biso   1.000  C
  N1       1.0000 0.99260  0.19700  0.18170  Biso   1.000  N
  O1       1.0000 0.77750  0.96167  0.33775  Biso   1.000  O
  O2       1.0000 0.69971  0.92281  0.28981  Biso   1.000  O
  S1       1.0000 0.04430  0.24360  0.14788  Biso   1.000  S
  N2       1.0000 0.89740  0.30190  0.21040  Biso   1.000  N
  C6       1.0000 0.42765  0.30607  0.64073  Biso   1.000  C
  C7       1.0000 0.48659  0.38561  0.62348  Biso   1.000  C
  C8       1.0000 0.47220  0.40013  0.58965  Biso   1.000  C
  H2       1.0000 0.42417  0.36233  0.57853  Biso   1.000  H
  C9       1.0000 0.57687  0.52033  0.51143  Biso   1.000  C
  C10      1.0000 0.53457  0.56313  0.52343  Biso   1.000  C
  N3       1.0000 0.65927  0.53033  0.51503  Biso   1.000  N
  O3       1.0000 0.44417  0.29500  0.67108  Biso   1.000  O
  O4       1.0000 0.36638  0.25614  0.62314  Biso   1.000  O
  S2       1.0000 0.71097  0.57693  0.48121  Biso   1.000  S
  N4       1.0000 0.56407  0.63523  0.54373  Biso   1.000  N
  C11      1.0000 0.09431  0.63941  0.97407  Biso   1.000  C
  C12      1.0000 0.15325  0.71895  0.95682  Biso   1.000  C
  C13      1.0000 0.13886  0.73347  0.92299  Biso   1.000  C
  H3       1.0000 0.09083  0.69567  0.91187  Biso   1.000  H
  C14      1.0000 0.24353  0.85367  0.84477  Biso   1.000  C
  C15      1.0000 0.20123  0.89647  0.85677  Biso   1.000  C
  N5       1.0000 0.32593  0.86367  0.84837  Biso   1.000  N
  O5       1.0000 0.11083  0.62834  0.00442  Biso   1.000  O
  O6       1.0000 0.03304  0.58948  0.95648  Biso   1.000  O
  S3       1.0000 0.37763  0.91027  0.81455  Biso   1.000  S
  N6       1.0000 0.23073  0.96857  0.87707  Biso   1.000  N
  C16      1.0000 0.02726  0.78824  0.30740  Biso   1.000  C
  C17      1.0000 0.94772  0.76764  0.29015  Biso   1.000  C
  C18      1.0000 0.93320  0.73873  0.25632  Biso   1.000  C
  H4       1.0000 0.97100  0.72850  0.24520  Biso   1.000  H
  C19      1.0000 0.81300  0.72320  0.17810  Biso   1.000  C
  C20      1.0000 0.77020  0.63810  0.19010  Biso   1.000  C
  N7       1.0000 0.80300  0.79560  0.18170  Biso   1.000  N
  O7       1.0000 0.03833  0.81583  0.33775  Biso   1.000  O
  O8       1.0000 0.07719  0.77690  0.28981  Biso   1.000  O
  S4       1.0000 0.75640  0.80070  0.14788  Biso   1.000  S
  N8       1.0000 0.69810  0.59550  0.21040  Biso   1.000  N
  C21      1.0000 0.69393  0.12157  0.64073  Biso   1.000  C
  C22      1.0000 0.61439  0.10097  0.62348  Biso   1.000  C
  C23      1.0000 0.59987  0.07206  0.58965  Biso   1.000  C
  H5       1.0000 0.63767  0.06183  0.57853  Biso   1.000  H
  C24      1.0000 0.47967  0.05653  0.51143  Biso   1.000  C
  C25      1.0000 0.43687  0.97143  0.52343  Biso   1.000  C
  N9       1.0000 0.46967  0.12893  0.51503  Biso   1.000  N
  O9       1.0000 0.70500  0.14916  0.67108  Biso   1.000  O
  O10      1.0000 0.74386  0.11023  0.62314  Biso   1.000  O
  S5       1.0000 0.42307  0.13403  0.48121  Biso   1.000  S
  N10      1.0000 0.36477  0.92883  0.54373  Biso   1.000  N
  C26      1.0000 0.36059  0.45491  0.97407  Biso   1.000  C
  C27      1.0000 0.28105  0.43431  0.95682  Biso   1.000  C
  C28      1.0000 0.26653  0.40540  0.92299  Biso   1.000  C
  H6       1.0000 0.30433  0.39517  0.91187  Biso   1.000  H
  C29      1.0000 0.14633  0.38987  0.84477  Biso   1.000  C
  C30      1.0000 0.10353  0.30477  0.85677  Biso   1.000  C
  N11      1.0000 0.13633  0.46227  0.84837  Biso   1.000  N
  O11      1.0000 0.37166  0.48250  0.00442  Biso   1.000  O
  O12      1.0000 0.41052  0.44357  0.95648  Biso   1.000  O
  S6       1.0000 0.08973  0.46737  0.81455  Biso   1.000  S
  N12      1.0000 0.03143  0.26217  0.87707  Biso   1.000  N
  C31      1.0000 0.21176  0.23902  0.30740  Biso   1.000  C
  C32      1.0000 0.23236  0.18008  0.29015  Biso   1.000  C
  C33      1.0000 0.26127  0.19447  0.25632  Biso   1.000  C
  H7       1.0000 0.27150  0.24250  0.24520  Biso   1.000  H
  C34      1.0000 0.27680  0.08980  0.17810  Biso   1.000  C
  C35      1.0000 0.36190  0.13210  0.19010  Biso   1.000  C
  N13      1.0000 0.20440  0.00740  0.18170  Biso   1.000  N
  O13      1.0000 0.18417  0.22250  0.33775  Biso   1.000  O
  O14      1.0000 0.22310  0.30029  0.28981  Biso   1.000  O
  S7       1.0000 0.19930  0.95570  0.14788  Biso   1.000  S
  N14      1.0000 0.40450  0.10260  0.21040  Biso   1.000  N
  C36      1.0000 0.87843  0.57235  0.64073  Biso   1.000  C
  C37      1.0000 0.89903  0.51341  0.62348  Biso   1.000  C
  C38      1.0000 0.92794  0.52780  0.58965  Biso   1.000  C
  H8       1.0000 0.93817  0.57583  0.57853  Biso   1.000  H
  C39      1.0000 0.94347  0.42313  0.51143  Biso   1.000  C
  C40      1.0000 0.02857  0.46543  0.52343  Biso   1.000  C
  N15      1.0000 0.87107  0.34073  0.51503  Biso   1.000  N
  O15      1.0000 0.85084  0.55583  0.67108  Biso   1.000  O
  O16      1.0000 0.88977  0.63362  0.62314  Biso   1.000  O
  S8       1.0000 0.86597  0.28903  0.48121  Biso   1.000  S
  N16      1.0000 0.07117  0.43593  0.54373  Biso   1.000  N
  C41      1.0000 0.54509  0.90569  0.97407  Biso   1.000  C
  C42      1.0000 0.56569  0.84675  0.95682  Biso   1.000  C
  C43      1.0000 0.59460  0.86114  0.92299  Biso   1.000  C
  H9       1.0000 0.60483  0.90917  0.91187  Biso   1.000  H
  C44      1.0000 0.61013  0.75647  0.84477  Biso   1.000  C
  C45      1.0000 0.69523  0.79877  0.85677  Biso   1.000  C
  N17      1.0000 0.53773  0.67407  0.84837  Biso   1.000  N
  O17      1.0000 0.51750  0.88917  0.00442  Biso   1.000  O
  O18      1.0000 0.55643  0.96696  0.95648  Biso   1.000  O
  S9       1.0000 0.53263  0.62237  0.81455  Biso   1.000  S
  N18      1.0000 0.73783  0.76927  0.87707  Biso   1.000  N
  C46      1.0000 0.97274  0.76098  0.69260  Biso   1.000  C
  C47      1.0000 0.05228  0.81992  0.70985  Biso   1.000  C
  C48      1.0000 0.06680  0.80553  0.74368  Biso   1.000  C
  H10      1.0000 0.02900  0.75750  0.75480  Biso   1.000  H
  C49      1.0000 0.18700  0.91020  0.82190  Biso   1.000  C
  C50      1.0000 0.22980  0.86790  0.80990  Biso   1.000  C
  N19      1.0000 0.19700  0.99260  0.81830  Biso   1.000  N
  O19      1.0000 0.96167  0.77750  0.66225  Biso   1.000  O
  O20      1.0000 0.92281  0.69971  0.71019  Biso   1.000  O
  S10      1.0000 0.24360  0.04430  0.85212  Biso   1.000  S
  N20      1.0000 0.30190  0.89740  0.78960  Biso   1.000  N
  C51      1.0000 0.63941  0.09431  0.02593  Biso   1.000  C
  C52      1.0000 0.71895  0.15325  0.04318  Biso   1.000  C
  C53      1.0000 0.73347  0.13886  0.07701  Biso   1.000  C
  H11      1.0000 0.69567  0.09083  0.08813  Biso   1.000  H
  C54      1.0000 0.85367  0.24353  0.15523  Biso   1.000  C
  C55      1.0000 0.89647  0.20123  0.14323  Biso   1.000  C
  N21      1.0000 0.86367  0.32593  0.15163  Biso   1.000  N
  O21      1.0000 0.62834  0.11083  0.99558  Biso   1.000  O
  O22      1.0000 0.58948  0.03304  0.04352  Biso   1.000  O
  S11      1.0000 0.91027  0.37763  0.18545  Biso   1.000  S
  N22      1.0000 0.96857  0.23073  0.12293  Biso   1.000  N
  C56      1.0000 0.30607  0.42765  0.35927  Biso   1.000  C
  C57      1.0000 0.38561  0.48659  0.37652  Biso   1.000  C
  C58      1.0000 0.40013  0.47220  0.41035  Biso   1.000  C
  H12      1.0000 0.36233  0.42417  0.42147  Biso   1.000  H
  C59      1.0000 0.52033  0.57687  0.48857  Biso   1.000  C
  C60      1.0000 0.56313  0.53457  0.47657  Biso   1.000  C
  N23      1.0000 0.53033  0.65927  0.48497  Biso   1.000  N
  O23      1.0000 0.29500  0.44417  0.32892  Biso   1.000  O
  O24      1.0000 0.25614  0.36638  0.37686  Biso   1.000  O
  S12      1.0000 0.57693  0.71097  0.51879  Biso   1.000  S
  N24      1.0000 0.63523  0.56407  0.45627  Biso   1.000  N
  C61      1.0000 0.78824  0.02726  0.69260  Biso   1.000  C
  C62      1.0000 0.76764  0.94772  0.70985  Biso   1.000  C
  C63      1.0000 0.73873  0.93320  0.74368  Biso   1.000  C
  H13      1.0000 0.72850  0.97100  0.75480  Biso   1.000  H
  C64      1.0000 0.72320  0.81300  0.82190  Biso   1.000  C
  C65      1.0000 0.63810  0.77020  0.80990  Biso   1.000  C
  N25      1.0000 0.79560  0.80300  0.81830  Biso   1.000  N
  O25      1.0000 0.81583  0.03833  0.66225  Biso   1.000  O
  O26      1.0000 0.77690  0.07719  0.71019  Biso   1.000  O
  S13      1.0000 0.80070  0.75640  0.85212  Biso   1.000  S
  N26      1.0000 0.59550  0.69810  0.78960  Biso   1.000  N
  C66      1.0000 0.45491  0.36059  0.02593  Biso   1.000  C
  C67      1.0000 0.43431  0.28105  0.04318  Biso   1.000  C
  C68      1.0000 0.40540  0.26653  0.07701  Biso   1.000  C
  H14      1.0000 0.39517  0.30433  0.08813  Biso   1.000  H
  C69      1.0000 0.38987  0.14633  0.15523  Biso   1.000  C
  C70      1.0000 0.30477  0.10353  0.14323  Biso   1.000  C
  N27      1.0000 0.46227  0.13633  0.15163  Biso   1.000  N
  O27      1.0000 0.48250  0.37166  0.99558  Biso   1.000  O
  O28      1.0000 0.44357  0.41052  0.04352  Biso   1.000  O
  S14      1.0000 0.46737  0.08973  0.18545  Biso   1.000  S
  N28      1.0000 0.26217  0.03143  0.12293  Biso   1.000  N
  C71      1.0000 0.12157  0.69393  0.35927  Biso   1.000  C
  C72      1.0000 0.10097  0.61439  0.37652  Biso   1.000  C
  C73      1.0000 0.07206  0.59987  0.41035  Biso   1.000  C
  H15      1.0000 0.06183  0.63767  0.42147  Biso   1.000  H
  C74      1.0000 0.05653  0.47967  0.48857  Biso   1.000  C
  C75      1.0000 0.97143  0.43687  0.47657  Biso   1.000  C
  N29      1.0000 0.12893  0.46967  0.48497  Biso   1.000  N
  O29      1.0000 0.14916  0.70500  0.32892  Biso   1.000  O
  O30      1.0000 0.11023  0.74386  0.37686  Biso   1.000  O
  S15      1.0000 0.13403  0.42307  0.51879  Biso   1.000  S
  N30      1.0000 0.92883  0.36477  0.45627  Biso   1.000  N
  C76      1.0000 0.23902  0.21176  0.69260  Biso   1.000  C
  C77      1.0000 0.18008  0.23236  0.70985  Biso   1.000  C
  C78      1.0000 0.19447  0.26127  0.74368  Biso   1.000  C
  H16      1.0000 0.24250  0.27150  0.75480  Biso   1.000  H
  C79      1.0000 0.08980  0.27680  0.82190  Biso   1.000  C
  C80      1.0000 0.13210  0.36190  0.80990  Biso   1.000  C
  N31      1.0000 0.00740  0.20440  0.81830  Biso   1.000  N
  O31      1.0000 0.22250  0.18417  0.66225  Biso   1.000  O
  O32      1.0000 0.30029  0.22310  0.71019  Biso   1.000  O
  S16      1.0000 0.95570  0.19930  0.85212  Biso   1.000  S
  N32      1.0000 0.10260  0.40450  0.78960  Biso   1.000  N
  C81      1.0000 0.90569  0.54509  0.02593  Biso   1.000  C
  C82      1.0000 0.84675  0.56569  0.04318  Biso   1.000  C
  C83      1.0000 0.86114  0.59460  0.07701  Biso   1.000  C
  H17      1.0000 0.90917  0.60483  0.08813  Biso   1.000  H
  C84      1.0000 0.75647  0.61013  0.15523  Biso   1.000  C
  C85      1.0000 0.79877  0.69523  0.14323  Biso   1.000  C
  N33      1.0000 0.67407  0.53773  0.15163  Biso   1.000  N
  O33      1.0000 0.88917  0.51750  0.99558  Biso   1.000  O
  O34      1.0000 0.96696  0.55643  0.04352  Biso   1.000  O
  S17      1.0000 0.62237  0.53263  0.18545  Biso   1.000  S
  N34      1.0000 0.76927  0.73783  0.12293  Biso   1.000  N
  C86      1.0000 0.57235  0.87843  0.35927  Biso   1.000  C
  C87      1.0000 0.51341  0.89903  0.37652  Biso   1.000  C
  C88      1.0000 0.52780  0.92794  0.41035  Biso   1.000  C
  H18      1.0000 0.57583  0.93817  0.42147  Biso   1.000  H
  C89      1.0000 0.42313  0.94347  0.48857  Biso   1.000  C
  C90      1.0000 0.46543  0.02857  0.47657  Biso   1.000  C
  N35      1.0000 0.34073  0.87107  0.48497  Biso   1.000  N
  O35      1.0000 0.55583  0.85084  0.32892  Biso   1.000  O
  O36      1.0000 0.63362  0.88977  0.37686  Biso   1.000  O
  S18      1.0000 0.28903  0.86597  0.51879  Biso   1.000  S
  N36      1.0000 0.43593  0.07117  0.45627  Biso   1.000  N
  C91      1.0000 0.23902  0.02726  0.69260  Biso   1.000  C
  C92      1.0000 0.18008  0.94772  0.70985  Biso   1.000  C
  C93      1.0000 0.19447  0.93320  0.74368  Biso   1.000  C
  H19      1.0000 0.24250  0.97100  0.75480  Biso   1.000  H
  C94      1.0000 0.08980  0.81300  0.82190  Biso   1.000  C
  C95      1.0000 0.13210  0.77020  0.80990  Biso   1.000  C
  N37      1.0000 0.00740  0.80300  0.81830  Biso   1.000  N
  O37      1.0000 0.22250  0.03833  0.66225  Biso   1.000  O
  O38      1.0000 0.30029  0.07719  0.71019  Biso   1.000  O
  S19      1.0000 0.95570  0.75640  0.85212  Biso   1.000  S
  N38      1.0000 0.10260  0.69810  0.78960  Biso   1.000  N
  C96      1.0000 0.90569  0.36059  0.02593  Biso   1.000  C
  C97      1.0000 0.84675  0.28105  0.04318  Biso   1.000  C
  C98      1.0000 0.86114  0.26653  0.07701  Biso   1.000  C
  H20      1.0000 0.90917  0.30433  0.08813  Biso   1.000  H
  C99      1.0000 0.75647  0.14633  0.15523  Biso   1.000  C
  C100     1.0000 0.79877  0.10353  0.14323  Biso   1.000  C
  N39      1.0000 0.67407  0.13633  0.15163  Biso   1.000  N
  O39      1.0000 0.88917  0.37166  0.99558  Biso   1.000  O
  O40      1.0000 0.96696  0.41052  0.04352  Biso   1.000  O
  S20      1.0000 0.62237  0.08973  0.18545  Biso   1.000  S
  N40      1.0000 0.76927  0.03143  0.12293  Biso   1.000  N
  C101     1.0000 0.57235  0.69393  0.35927  Biso   1.000  C
  C102     1.0000 0.51341  0.61439  0.37652  Biso   1.000  C
  C103     1.0000 0.52780  0.59987  0.41035  Biso   1.000  C
  H21      1.0000 0.57583  0.63767  0.42147  Biso   1.000  H
  C104     1.0000 0.42313  0.47967  0.48857  Biso   1.000  C
  C105     1.0000 0.46543  0.43687  0.47657  Biso   1.000  C
  N41      1.0000 0.34073  0.46967  0.48497  Biso   1.000  N
  O41      1.0000 0.55583  0.70500  0.32892  Biso   1.000  O
  O42      1.0000 0.63362  0.74386  0.37686  Biso   1.000  O
  S21      1.0000 0.28903  0.42307  0.51879  Biso   1.000  S
  N42      1.0000 0.43593  0.36477  0.45627  Biso   1.000  N
  C106     1.0000 0.97274  0.21176  0.69260  Biso   1.000  C
  C107     1.0000 0.05228  0.23236  0.70985  Biso   1.000  C
  C108     1.0000 0.06680  0.26127  0.74368  Biso   1.000  C
  H22      1.0000 0.02900  0.27150  0.75480  Biso   1.000  H
  C109     1.0000 0.18700  0.27680  0.82190  Biso   1.000  C
  C110     1.0000 0.22980  0.36190  0.80990  Biso   1.000  C
  N43      1.0000 0.19700  0.20440  0.81830  Biso   1.000  N
  O43      1.0000 0.96167  0.18417  0.66225  Biso   1.000  O
  O44      1.0000 0.92281  0.22310  0.71019  Biso   1.000  O
  S22      1.0000 0.24360  0.19930  0.85212  Biso   1.000  S
  N44      1.0000 0.30190  0.40450  0.78960  Biso   1.000  N
  C111     1.0000 0.63941  0.54509  0.02593  Biso   1.000  C
  C112     1.0000 0.71895  0.56569  0.04318  Biso   1.000  C
  C113     1.0000 0.73347  0.59460  0.07701  Biso   1.000  C
  H23      1.0000 0.69567  0.60483  0.08813  Biso   1.000  H
  C114     1.0000 0.85367  0.61013  0.15523  Biso   1.000  C
  C115     1.0000 0.89647  0.69523  0.14323  Biso   1.000  C
  N45      1.0000 0.86367  0.53773  0.15163  Biso   1.000  N
  O45      1.0000 0.62834  0.51750  0.99558  Biso   1.000  O
  O46      1.0000 0.58948  0.55643  0.04352  Biso   1.000  O
  S23      1.0000 0.91027  0.53263  0.18545  Biso   1.000  S
  N46      1.0000 0.96857  0.73783  0.12293  Biso   1.000  N
  C116     1.0000 0.30607  0.87843  0.35927  Biso   1.000  C
  C117     1.0000 0.38561  0.89903  0.37652  Biso   1.000  C
  C118     1.0000 0.40013  0.92794  0.41035  Biso   1.000  C
  H24      1.0000 0.36233  0.93817  0.42147  Biso   1.000  H
  C119     1.0000 0.52033  0.94347  0.48857  Biso   1.000  C
  C120     1.0000 0.56313  0.02857  0.47657  Biso   1.000  C
  N47      1.0000 0.53033  0.87107  0.48497  Biso   1.000  N
  O47      1.0000 0.29500  0.85084  0.32892  Biso   1.000  O
  O48      1.0000 0.25614  0.88977  0.37686  Biso   1.000  O
  S24      1.0000 0.57693  0.86597  0.51879  Biso   1.000  S
  N48      1.0000 0.63523  0.07117  0.45627  Biso   1.000  N
  C121     1.0000 0.78824  0.76098  0.69260  Biso   1.000  C
  C122     1.0000 0.76764  0.81992  0.70985  Biso   1.000  C
  C123     1.0000 0.73873  0.80553  0.74368  Biso   1.000  C
  H25      1.0000 0.72850  0.75750  0.75480  Biso   1.000  H
  C124     1.0000 0.72320  0.91020  0.82190  Biso   1.000  C
  C125     1.0000 0.63810  0.86790  0.80990  Biso   1.000  C
  N49      1.0000 0.79560  0.99260  0.81830  Biso   1.000  N
  O49      1.0000 0.81583  0.77750  0.66225  Biso   1.000  O
  O50      1.0000 0.77690  0.69971  0.71019  Biso   1.000  O
  S25      1.0000 0.80070  0.04430  0.85212  Biso   1.000  S
  N50      1.0000 0.59550  0.89740  0.78960  Biso   1.000  N
  C126     1.0000 0.45491  0.09431  0.02593  Biso   1.000  C
  C127     1.0000 0.43431  0.15325  0.04318  Biso   1.000  C
  C128     1.0000 0.40540  0.13886  0.07701  Biso   1.000  C
  H26      1.0000 0.39517  0.09083  0.08813  Biso   1.000  H
  C129     1.0000 0.38987  0.24353  0.15523  Biso   1.000  C
  C130     1.0000 0.30477  0.20123  0.14323  Biso   1.000  C
  N51      1.0000 0.46227  0.32593  0.15163  Biso   1.000  N
  O51      1.0000 0.48250  0.11083  0.99558  Biso   1.000  O
  O52      1.0000 0.44357  0.03304  0.04352  Biso   1.000  O
  S26      1.0000 0.46737  0.37763  0.18545  Biso   1.000  S
  N52      1.0000 0.26217  0.23073  0.12293  Biso   1.000  N
  C131     1.0000 0.12157  0.42765  0.35927  Biso   1.000  C
  C132     1.0000 0.10097  0.48659  0.37652  Biso   1.000  C
  C133     1.0000 0.07206  0.47220  0.41035  Biso   1.000  C
  H27      1.0000 0.06183  0.42417  0.42147  Biso   1.000  H
  C134     1.0000 0.05653  0.57687  0.48857  Biso   1.000  C
  C135     1.0000 0.97143  0.53457  0.47657  Biso   1.000  C
  N53      1.0000 0.12893  0.65927  0.48497  Biso   1.000  N
  O53      1.0000 0.14916  0.44417  0.32892  Biso   1.000  O
  O54      1.0000 0.11023  0.36638  0.37686  Biso   1.000  O
  S27      1.0000 0.13403  0.71097  0.51879  Biso   1.000  S
  N54      1.0000 0.92883  0.56407  0.45627  Biso   1.000  N
  C136     1.0000 0.02726  0.23902  0.30740  Biso   1.000  C
  C137     1.0000 0.94772  0.18008  0.29015  Biso   1.000  C
  C138     1.0000 0.93320  0.19447  0.25632  Biso   1.000  C
  H28      1.0000 0.97100  0.24250  0.24520  Biso   1.000  H
  C139     1.0000 0.81300  0.08980  0.17810  Biso   1.000  C
  C140     1.0000 0.77020  0.13210  0.19010  Biso   1.000  C
  N55      1.0000 0.80300  0.00740  0.18170  Biso   1.000  N
  O55      1.0000 0.03833  0.22250  0.33775  Biso   1.000  O
  O56      1.0000 0.07719  0.30029  0.28981  Biso   1.000  O
  S28      1.0000 0.75640  0.95570  0.14788  Biso   1.000  S
  N56      1.0000 0.69810  0.10260  0.21040  Biso   1.000  N
  C141     1.0000 0.69393  0.57235  0.64073  Biso   1.000  C
  C142     1.0000 0.61439  0.51341  0.62348  Biso   1.000  C
  C143     1.0000 0.59987  0.52780  0.58965  Biso   1.000  C
  H29      1.0000 0.63767  0.57583  0.57853  Biso   1.000  H
  C144     1.0000 0.47967  0.42313  0.51143  Biso   1.000  C
  C145     1.0000 0.43687  0.46543  0.52343  Biso   1.000  C
  N57      1.0000 0.46967  0.34073  0.51503  Biso   1.000  N
  O57      1.0000 0.70500  0.55583  0.67108  Biso   1.000  O
  O58      1.0000 0.74386  0.63362  0.62314  Biso   1.000  O
  S29      1.0000 0.42307  0.28903  0.48121  Biso   1.000  S
  N58      1.0000 0.36477  0.43593  0.54373  Biso   1.000  N
  C146     1.0000 0.36059  0.90569  0.97407  Biso   1.000  C
  C147     1.0000 0.28105  0.84675  0.95682  Biso   1.000  C
  C148     1.0000 0.26653  0.86114  0.92299  Biso   1.000  C
  H30      1.0000 0.30433  0.90917  0.91187  Biso   1.000  H
  C149     1.0000 0.14633  0.75647  0.84477  Biso   1.000  C
  C150     1.0000 0.10353  0.79877  0.85677  Biso   1.000  C
  N59      1.0000 0.13633  0.67407  0.84837  Biso   1.000  N
  O59      1.0000 0.37166  0.88917  0.00442  Biso   1.000  O
  O60      1.0000 0.41052  0.96696  0.95648  Biso   1.000  O
  S30      1.0000 0.08973  0.62237  0.81455  Biso   1.000  S
  N60      1.0000 0.03143  0.76927  0.87707  Biso   1.000  N
  C151     1.0000 0.21176  0.97274  0.30740  Biso   1.000  C
  C152     1.0000 0.23236  0.05228  0.29015  Biso   1.000  C
  C153     1.0000 0.26127  0.06680  0.25632  Biso   1.000  C
  H31      1.0000 0.27150  0.02900  0.24520  Biso   1.000  H
  C154     1.0000 0.27680  0.18700  0.17810  Biso   1.000  C
  C155     1.0000 0.36190  0.22980  0.19010  Biso   1.000  C
  N61      1.0000 0.20440  0.19700  0.18170  Biso   1.000  N
  O61      1.0000 0.18417  0.96167  0.33775  Biso   1.000  O
  O62      1.0000 0.22310  0.92281  0.28981  Biso   1.000  O
  S31      1.0000 0.19930  0.24360  0.14788  Biso   1.000  S
  N62      1.0000 0.40450  0.30190  0.21040  Biso   1.000  N
  C156     1.0000 0.87843  0.30607  0.64073  Biso   1.000  C
  C157     1.0000 0.89903  0.38561  0.62348  Biso   1.000  C
  C158     1.0000 0.92794  0.40013  0.58965  Biso   1.000  C
  H32      1.0000 0.93817  0.36233  0.57853  Biso   1.000  H
  C159     1.0000 0.94347  0.52033  0.51143  Biso   1.000  C
  C160     1.0000 0.02857  0.56313  0.52343  Biso   1.000  C
  N63      1.0000 0.87107  0.53033  0.51503  Biso   1.000  N
  O63      1.0000 0.85084  0.29500  0.67108  Biso   1.000  O
  O64      1.0000 0.88977  0.25614  0.62314  Biso   1.000  O
  S32      1.0000 0.86597  0.57693  0.48121  Biso   1.000  S
  N64      1.0000 0.07117  0.63523  0.54373  Biso   1.000  N
  C161     1.0000 0.54509  0.63941  0.97407  Biso   1.000  C
  C162     1.0000 0.56569  0.71895  0.95682  Biso   1.000  C
  C163     1.0000 0.59460  0.73347  0.92299  Biso   1.000  C
  H33      1.0000 0.60483  0.69567  0.91187  Biso   1.000  H
  C164     1.0000 0.61013  0.85367  0.84477  Biso   1.000  C
  C165     1.0000 0.69523  0.89647  0.85677  Biso   1.000  C
  N65      1.0000 0.53773  0.86367  0.84837  Biso   1.000  N
  O65      1.0000 0.51750  0.62834  0.00442  Biso   1.000  O
  O66      1.0000 0.55643  0.58948  0.95648  Biso   1.000  O
  S33      1.0000 0.53263  0.91027  0.81455  Biso   1.000  S
  N66      1.0000 0.73783  0.96857  0.87707  Biso   1.000  N
  C166     1.0000 0.76098  0.78824  0.30740  Biso   1.000  C
  C167     1.0000 0.81992  0.76764  0.29015  Biso   1.000  C
  C168     1.0000 0.80553  0.73873  0.25632  Biso   1.000  C
  H34      1.0000 0.75750  0.72850  0.24520  Biso   1.000  H
  C169     1.0000 0.91020  0.72320  0.17810  Biso   1.000  C
  C170     1.0000 0.86790  0.63810  0.19010  Biso   1.000  C
  N67      1.0000 0.99260  0.79560  0.18170  Biso   1.000  N
  O67      1.0000 0.77750  0.81583  0.33775  Biso   1.000  O
  O68      1.0000 0.69971  0.77690  0.28981  Biso   1.000  O
  S34      1.0000 0.04430  0.80070  0.14788  Biso   1.000  S
  N68      1.0000 0.89740  0.59550  0.21040  Biso   1.000  N
  C171     1.0000 0.42765  0.12157  0.64073  Biso   1.000  C
  C172     1.0000 0.48659  0.10097  0.62348  Biso   1.000  C
  C173     1.0000 0.47220  0.07206  0.58965  Biso   1.000  C
  H35      1.0000 0.42417  0.06183  0.57853  Biso   1.000  H
  C174     1.0000 0.57687  0.05653  0.51143  Biso   1.000  C
  C175     1.0000 0.53457  0.97143  0.52343  Biso   1.000  C
  N69      1.0000 0.65927  0.12893  0.51503  Biso   1.000  N
  O69      1.0000 0.44417  0.14916  0.67108  Biso   1.000  O
  O70      1.0000 0.36638  0.11023  0.62314  Biso   1.000  O
  S35      1.0000 0.71097  0.13403  0.48121  Biso   1.000  S
  N70      1.0000 0.56407  0.92883  0.54373  Biso   1.000  N
  C176     1.0000 0.09431  0.45491  0.97407  Biso   1.000  C
  C177     1.0000 0.15325  0.43431  0.95682  Biso   1.000  C
  C178     1.0000 0.13886  0.40540  0.92299  Biso   1.000  C
  H36      1.0000 0.09083  0.39517  0.91187  Biso   1.000  H
  C179     1.0000 0.24353  0.38987  0.84477  Biso   1.000  C
  C180     1.0000 0.20123  0.30477  0.85677  Biso   1.000  C
  N71      1.0000 0.32593  0.46227  0.84837  Biso   1.000  N
  O71      1.0000 0.11083  0.48250  0.00442  Biso   1.000  O
  O72      1.0000 0.03304  0.44357  0.95648  Biso   1.000  O
  S36      1.0000 0.37763  0.46737  0.81455  Biso   1.000  S
  N72      1.0000 0.23073  0.26217  0.87707  Biso   1.000  N
  C181     1.0000 0.89135  0.10865  0.30705  Biso   1.000  C
  H37      1.0000 0.90140  0.09860  0.32960  Biso   1.000  H
  C182     1.0000 0.86235  0.13765  0.23871  Biso   1.000  C
  C183     1.0000 0.84740  0.15260  0.20237  Biso   1.000  C
  C184     1.0000 0.55802  0.44198  0.64038  Biso   1.000  C
  H38      1.0000 0.56807  0.43193  0.66293  Biso   1.000  H
  C185     1.0000 0.52902  0.47098  0.57204  Biso   1.000  C
  C186     1.0000 0.51407  0.48593  0.53570  Biso   1.000  C
  C187     1.0000 0.22468  0.77532  0.97372  Biso   1.000  C
  H39      1.0000 0.23473  0.76527  0.99627  Biso   1.000  H
  C188     1.0000 0.19568  0.80432  0.90538  Biso   1.000  C
  C189     1.0000 0.18073  0.81927  0.86904  Biso   1.000  C
  C190     1.0000 0.89135  0.78270  0.30705  Biso   1.000  C
  H40      1.0000 0.90140  0.80280  0.32960  Biso   1.000  H
  C191     1.0000 0.86235  0.72470  0.23871  Biso   1.000  C
  C192     1.0000 0.84740  0.69480  0.20237  Biso   1.000  C
  C193     1.0000 0.55802  0.11603  0.64038  Biso   1.000  C
  H41      1.0000 0.56807  0.13613  0.66293  Biso   1.000  H
  C194     1.0000 0.52902  0.05803  0.57204  Biso   1.000  C
  C195     1.0000 0.51407  0.02813  0.53570  Biso   1.000  C
  C196     1.0000 0.22468  0.44937  0.97372  Biso   1.000  C
  H42      1.0000 0.23473  0.46947  0.99627  Biso   1.000  H
  C197     1.0000 0.19568  0.39137  0.90538  Biso   1.000  C
  C198     1.0000 0.18073  0.36147  0.86904  Biso   1.000  C
  C199     1.0000 0.21730  0.10865  0.30705  Biso   1.000  C
  H43      1.0000 0.19720  0.09860  0.32960  Biso   1.000  H
  C200     1.0000 0.27530  0.13765  0.23871  Biso   1.000  C
  C201     1.0000 0.30520  0.15260  0.20237  Biso   1.000  C
  C202     1.0000 0.88397  0.44198  0.64038  Biso   1.000  C
  H44      1.0000 0.86387  0.43193  0.66293  Biso   1.000  H
  C203     1.0000 0.94197  0.47098  0.57204  Biso   1.000  C
  C204     1.0000 0.97187  0.48593  0.53570  Biso   1.000  C
  C205     1.0000 0.55063  0.77532  0.97372  Biso   1.000  C
  H45      1.0000 0.53053  0.76527  0.99627  Biso   1.000  H
  C206     1.0000 0.60863  0.80432  0.90538  Biso   1.000  C
  C207     1.0000 0.63853  0.81927  0.86904  Biso   1.000  C
  C208     1.0000 0.10865  0.89135  0.69295  Biso   1.000  C
  H46      1.0000 0.09860  0.90140  0.67040  Biso   1.000  H
  C209     1.0000 0.13765  0.86235  0.76129  Biso   1.000  C
  C210     1.0000 0.15260  0.84740  0.79763  Biso   1.000  C
  C211     1.0000 0.77532  0.22468  0.02628  Biso   1.000  C
  H47      1.0000 0.76527  0.23473  0.00373  Biso   1.000  H
  C212     1.0000 0.80432  0.19568  0.09462  Biso   1.000  C
  C213     1.0000 0.81927  0.18073  0.13096  Biso   1.000  C
  C214     1.0000 0.44198  0.55802  0.35962  Biso   1.000  C
  H48      1.0000 0.43193  0.56807  0.33707  Biso   1.000  H
  C215     1.0000 0.47098  0.52902  0.42796  Biso   1.000  C
  C216     1.0000 0.48593  0.51407  0.46430  Biso   1.000  C
  C217     1.0000 0.78270  0.89135  0.69295  Biso   1.000  C
  H49      1.0000 0.80280  0.90140  0.67040  Biso   1.000  H
  C218     1.0000 0.72470  0.86235  0.76129  Biso   1.000  C
  C219     1.0000 0.69480  0.84740  0.79763  Biso   1.000  C
  C220     1.0000 0.44937  0.22468  0.02628  Biso   1.000  C
  H50      1.0000 0.46947  0.23473  0.00373  Biso   1.000  H
  C221     1.0000 0.39137  0.19568  0.09462  Biso   1.000  C
  C222     1.0000 0.36147  0.18073  0.13096  Biso   1.000  C
  C223     1.0000 0.11603  0.55802  0.35962  Biso   1.000  C
  H51      1.0000 0.13613  0.56807  0.33707  Biso   1.000  H
  C224     1.0000 0.05803  0.52902  0.42796  Biso   1.000  C
  C225     1.0000 0.02813  0.51407  0.46430  Biso   1.000  C
  C226     1.0000 0.10865  0.21730  0.69295  Biso   1.000  C
  H52      1.0000 0.09860  0.19720  0.67040  Biso   1.000  H
  C227     1.0000 0.13765  0.27530  0.76129  Biso   1.000  C
  C228     1.0000 0.15260  0.30520  0.79763  Biso   1.000  C
  C229     1.0000 0.77532  0.55063  0.02628  Biso   1.000  C
  H53      1.0000 0.76527  0.53053  0.00373  Biso   1.000  H
  C230     1.0000 0.80432  0.60863  0.09462  Biso   1.000  C
  C231     1.0000 0.81927  0.63853  0.13096  Biso   1.000  C
  C232     1.0000 0.44198  0.88397  0.35962  Biso   1.000  C
  H54      1.0000 0.43193  0.86387  0.33707  Biso   1.000  H
  C233     1.0000 0.47098  0.94197  0.42796  Biso   1.000  C
  C234     1.0000 0.48593  0.97187  0.46430  Biso   1.000  C
  O73      1.0000 0.78030  0.89015  0.40982  Biso   1.000  O
  H55      1.0000 0.74990  0.87495  0.42770  Biso   1.000  H
  Cu1      1.0000 0.71230  0.85615  0.36169  Biso   1.000  Cu
  O74      1.0000 0.44697  0.22348  0.74315  Biso   1.000  O
  H56      1.0000 0.41657  0.20828  0.76103  Biso   1.000  H
  Cu2      1.0000 0.37897  0.18948  0.69502  Biso   1.000  Cu
  O75      1.0000 0.11363  0.55682  0.07649  Biso   1.000  O
  H57      1.0000 0.08323  0.54162  0.09437  Biso   1.000  H
  Cu3      1.0000 0.04563  0.52282  0.02835  Biso   1.000  Cu
  O76      1.0000 0.10985  0.89015  0.40982  Biso   1.000  O
  H58      1.0000 0.12505  0.87495  0.42770  Biso   1.000  H
  Cu4      1.0000 0.14385  0.85615  0.36169  Biso   1.000  Cu
  O77      1.0000 0.77652  0.22348  0.74315  Biso   1.000  O
  H59      1.0000 0.79172  0.20828  0.76103  Biso   1.000  H
  Cu5      1.0000 0.81052  0.18948  0.69502  Biso   1.000  Cu
  O78      1.0000 0.44318  0.55682  0.07649  Biso   1.000  O
  H60      1.0000 0.45838  0.54162  0.09437  Biso   1.000  H
  Cu6      1.0000 0.47718  0.52282  0.02835  Biso   1.000  Cu
  O79      1.0000 0.10985  0.21970  0.40982  Biso   1.000  O
  H61      1.0000 0.12505  0.25010  0.42770  Biso   1.000  H
  Cu7      1.0000 0.14385  0.28770  0.36169  Biso   1.000  Cu
  O80      1.0000 0.77652  0.55303  0.74315  Biso   1.000  O
  H62      1.0000 0.79172  0.58343  0.76103  Biso   1.000  H
  Cu8      1.0000 0.81052  0.62103  0.69502  Biso   1.000  Cu
  O81      1.0000 0.44318  0.88637  0.07649  Biso   1.000  O
  H63      1.0000 0.45838  0.91677  0.09437  Biso   1.000  H
  Cu9      1.0000 0.47718  0.95437  0.02835  Biso   1.000  Cu
  O82      1.0000 0.89015  0.78030  0.59018  Biso   1.000  O
  H64      1.0000 0.87495  0.74990  0.57230  Biso   1.000  H
  Cu10     1.0000 0.85615  0.71230  0.63831  Biso   1.000  Cu
  O83      1.0000 0.55682  0.11363  0.92351  Biso   1.000  O
  H65      1.0000 0.54162  0.08323  0.90563  Biso   1.000  H
  Cu11     1.0000 0.52282  0.04563  0.97165  Biso   1.000  Cu
  O84      1.0000 0.22348  0.44697  0.25685  Biso   1.000  O
  H66      1.0000 0.20828  0.41657  0.23897  Biso   1.000  H
  Cu12     1.0000 0.18948  0.37897  0.30498  Biso   1.000  Cu
  O85      1.0000 0.89015  0.10985  0.59018  Biso   1.000  O
  H67      1.0000 0.87495  0.12505  0.57230  Biso   1.000  H
  Cu13     1.0000 0.85615  0.14385  0.63831  Biso   1.000  Cu
  O86      1.0000 0.55682  0.44318  0.92351  Biso   1.000  O
  H68      1.0000 0.54162  0.45838  0.90563  Biso   1.000  H
  Cu14     1.0000 0.52282  0.47718  0.97165  Biso   1.000  Cu
  O87      1.0000 0.22348  0.77652  0.25685  Biso   1.000  O
  H69      1.0000 0.20828  0.79172  0.23897  Biso   1.000  H
  Cu15     1.0000 0.18948  0.81052  0.30498  Biso   1.000  Cu
  O88      1.0000 0.21970  0.10985  0.59018  Biso   1.000  O
  H70      1.0000 0.25010  0.12505  0.57230  Biso   1.000  H
  Cu16     1.0000 0.28770  0.14385  0.63831  Biso   1.000  Cu
  O89      1.0000 0.88637  0.44318  0.92351  Biso   1.000  O
  H71      1.0000 0.91677  0.45838  0.90563  Biso   1.000  H
  Cu17     1.0000 0.95437  0.47718  0.97165  Biso   1.000  Cu
  O90      1.0000 0.55303  0.77652  0.25685  Biso   1.000  O
  H72      1.0000 0.58343  0.79172  0.23897  Biso   1.000  H
  Cu18     1.0000 0.62103  0.81052  0.30498  Biso   1.000  Cu
