data_image0
_cell_length_a       19.2119
_cell_length_b       16.1935
_cell_length_c       14.0617
_cell_angle_alpha    90
_cell_angle_beta     130.113
_cell_angle_gamma    90

_symmetry_space_group_name_H-M    "P 1"
_symmetry_int_tables_number       1

loop_
  _symmetry_equiv_pos_as_xyz
  'x, y, z'

loop_
  _atom_site_label
  _atom_site_occupancy
  _atom_site_fract_x
  _atom_site_fract_y
  _atom_site_fract_z
  _atom_site_thermal_displace_type
  _atom_site_B_iso_or_equiv
  _atom_site_type_symbol
  O1       1.0000 0.07099  0.39078  0.05620  Biso   1.000  O
  O2       1.0000 0.03863  0.35074  0.87910  Biso   1.000  O
  O3       1.0000 0.37458  0.05536  0.19680  Biso   1.000  O
  O4       1.0000 0.38196  0.06386  0.36150  Biso   1.000  O
  O5       1.0000 0.96237  0.53026  0.61270  Biso   1.000  O
  N1       1.0000 0.90350  0.59090  0.57940  Biso   1.000  N
  C1       1.0000 0.14110  0.27030  0.05740  Biso   1.000  C
  C2       1.0000 0.20340  0.26760  0.19190  Biso   1.000  C
  C3       1.0000 0.26660  0.20600  0.25210  Biso   1.000  C
  C4       1.0000 0.27200  0.14400  0.18280  Biso   1.000  C
  C5       1.0000 0.22530  0.15970  0.05810  Biso   1.000  C
  C6       1.0000 0.16010  0.22140  0.99610  Biso   1.000  C
  C7       1.0000 0.07740  0.34260  0.99150  Biso   1.000  C
  C8       1.0000 0.34830  0.08220  0.25270  Biso   1.000  C
  C9       1.0000 0.93080  0.66910  0.59860  Biso   1.000  C
  H1       1.0000 0.99000  0.68110  0.63200  Biso   1.000  H
  C10      1.0000 0.87200  0.73250  0.56950  Biso   1.000  C
  H2       1.0000 0.89250  0.78680  0.58520  Biso   1.000  H
  C11      1.0000 0.78290  0.71630  0.51720  Biso   1.000  C
  C12      1.0000 0.75630  0.63370  0.49460  Biso   1.000  C
  H3       1.0000 0.69680  0.61990  0.45860  Biso   1.000  H
  C13      1.0000 0.81740  0.57220  0.52530  Biso   1.000  C
  H4       1.0000 0.79850  0.51730  0.50830  Biso   1.000  H
  C14      1.0000 0.16940  0.23920  0.17090  Biso   1.000  C
  C15      1.0000 0.23180  0.17610  0.23040  Biso   1.000  C
  O6       1.0000 0.57099  0.89078  0.05620  Biso   1.000  O
  O7       1.0000 0.53863  0.85074  0.87910  Biso   1.000  O
  O8       1.0000 0.87458  0.55536  0.19680  Biso   1.000  O
  O9       1.0000 0.88196  0.56386  0.36150  Biso   1.000  O
  O10      1.0000 0.46237  0.03026  0.61270  Biso   1.000  O
  N2       1.0000 0.40350  0.09090  0.57940  Biso   1.000  N
  C16      1.0000 0.64110  0.77030  0.05740  Biso   1.000  C
  C17      1.0000 0.70340  0.76760  0.19190  Biso   1.000  C
  C18      1.0000 0.76660  0.70600  0.25210  Biso   1.000  C
  C19      1.0000 0.77200  0.64400  0.18280  Biso   1.000  C
  C20      1.0000 0.72530  0.65970  0.05810  Biso   1.000  C
  C21      1.0000 0.66010  0.72140  0.99610  Biso   1.000  C
  C22      1.0000 0.57740  0.84260  0.99150  Biso   1.000  C
  C23      1.0000 0.84830  0.58220  0.25270  Biso   1.000  C
  C24      1.0000 0.43080  0.16910  0.59860  Biso   1.000  C
  H5       1.0000 0.49000  0.18110  0.63200  Biso   1.000  H
  C25      1.0000 0.37200  0.23250  0.56950  Biso   1.000  C
  H6       1.0000 0.39250  0.28680  0.58520  Biso   1.000  H
  C26      1.0000 0.28290  0.21630  0.51720  Biso   1.000  C
  C27      1.0000 0.25630  0.13370  0.49460  Biso   1.000  C
  H7       1.0000 0.19680  0.11990  0.45860  Biso   1.000  H
  C28      1.0000 0.31740  0.07220  0.52530  Biso   1.000  C
  H8       1.0000 0.29850  0.01730  0.50830  Biso   1.000  H
  C29      1.0000 0.66940  0.73920  0.17090  Biso   1.000  C
  C30      1.0000 0.73180  0.67610  0.23040  Biso   1.000  C
  O11      1.0000 0.92901  0.39078  0.44380  Biso   1.000  O
  O12      1.0000 0.96137  0.35074  0.62090  Biso   1.000  O
  O13      1.0000 0.62542  0.05536  0.30320  Biso   1.000  O
  O14      1.0000 0.61804  0.06386  0.13850  Biso   1.000  O
  O15      1.0000 0.03763  0.53026  0.88730  Biso   1.000  O
  N3       1.0000 0.09650  0.59090  0.92060  Biso   1.000  N
  C31      1.0000 0.85890  0.27030  0.44260  Biso   1.000  C
  C32      1.0000 0.79660  0.26760  0.30810  Biso   1.000  C
  C33      1.0000 0.73340  0.20600  0.24790  Biso   1.000  C
  C34      1.0000 0.72800  0.14400  0.31720  Biso   1.000  C
  C35      1.0000 0.77470  0.15970  0.44190  Biso   1.000  C
  C36      1.0000 0.83990  0.22140  0.50390  Biso   1.000  C
  C37      1.0000 0.92260  0.34260  0.50850  Biso   1.000  C
  C38      1.0000 0.65170  0.08220  0.24730  Biso   1.000  C
  C39      1.0000 0.06920  0.66910  0.90140  Biso   1.000  C
  H9       1.0000 0.01000  0.68110  0.86800  Biso   1.000  H
  C40      1.0000 0.12800  0.73250  0.93050  Biso   1.000  C
  H10      1.0000 0.10750  0.78680  0.91480  Biso   1.000  H
  C41      1.0000 0.21710  0.71630  0.98280  Biso   1.000  C
  C42      1.0000 0.24370  0.63370  0.00540  Biso   1.000  C
  H11      1.0000 0.30320  0.61990  0.04140  Biso   1.000  H
  C43      1.0000 0.18260  0.57220  0.97470  Biso   1.000  C
  H12      1.0000 0.20150  0.51730  0.99170  Biso   1.000  H
  C44      1.0000 0.83060  0.23920  0.32910  Biso   1.000  C
  C45      1.0000 0.76820  0.17610  0.26960  Biso   1.000  C
  O16      1.0000 0.42901  0.89078  0.44380  Biso   1.000  O
  O17      1.0000 0.46137  0.85074  0.62090  Biso   1.000  O
  O18      1.0000 0.12542  0.55536  0.30320  Biso   1.000  O
  O19      1.0000 0.11804  0.56386  0.13850  Biso   1.000  O
  O20      1.0000 0.53763  0.03026  0.88730  Biso   1.000  O
  N4       1.0000 0.59650  0.09090  0.92060  Biso   1.000  N
  C46      1.0000 0.35890  0.77030  0.44260  Biso   1.000  C
  C47      1.0000 0.29660  0.76760  0.30810  Biso   1.000  C
  C48      1.0000 0.23340  0.70600  0.24790  Biso   1.000  C
  C49      1.0000 0.22800  0.64400  0.31720  Biso   1.000  C
  C50      1.0000 0.27470  0.65970  0.44190  Biso   1.000  C
  C51      1.0000 0.33990  0.72140  0.50390  Biso   1.000  C
  C52      1.0000 0.42260  0.84260  0.50850  Biso   1.000  C
  C53      1.0000 0.15170  0.58220  0.24730  Biso   1.000  C
  C54      1.0000 0.56920  0.16910  0.90140  Biso   1.000  C
  H13      1.0000 0.51000  0.18110  0.86800  Biso   1.000  H
  C55      1.0000 0.62800  0.23250  0.93050  Biso   1.000  C
  H14      1.0000 0.60750  0.28680  0.91480  Biso   1.000  H
  C56      1.0000 0.71710  0.21630  0.98280  Biso   1.000  C
  C57      1.0000 0.74370  0.13370  0.00540  Biso   1.000  C
  H15      1.0000 0.80320  0.11990  0.04140  Biso   1.000  H
  C58      1.0000 0.68260  0.07220  0.97470  Biso   1.000  C
  H16      1.0000 0.70150  0.01730  0.99170  Biso   1.000  H
  C59      1.0000 0.33060  0.73920  0.32910  Biso   1.000  C
  C60      1.0000 0.26820  0.67610  0.26960  Biso   1.000  C
  O21      1.0000 0.92901  0.60922  0.94380  Biso   1.000  O
  O22      1.0000 0.96137  0.64926  0.12090  Biso   1.000  O
  O23      1.0000 0.62542  0.94464  0.80320  Biso   1.000  O
  O24      1.0000 0.61804  0.93614  0.63850  Biso   1.000  O
  O25      1.0000 0.03763  0.46974  0.38730  Biso   1.000  O
  N5       1.0000 0.09650  0.40910  0.42060  Biso   1.000  N
  C61      1.0000 0.85890  0.72970  0.94260  Biso   1.000  C
  C62      1.0000 0.79660  0.73240  0.80810  Biso   1.000  C
  C63      1.0000 0.73340  0.79400  0.74790  Biso   1.000  C
  C64      1.0000 0.72800  0.85600  0.81720  Biso   1.000  C
  C65      1.0000 0.77470  0.84030  0.94190  Biso   1.000  C
  C66      1.0000 0.83990  0.77860  0.00390  Biso   1.000  C
  C67      1.0000 0.92260  0.65740  0.00850  Biso   1.000  C
  C68      1.0000 0.65170  0.91780  0.74730  Biso   1.000  C
  C69      1.0000 0.06920  0.33090  0.40140  Biso   1.000  C
  H17      1.0000 0.01000  0.31890  0.36800  Biso   1.000  H
  C70      1.0000 0.12800  0.26750  0.43050  Biso   1.000  C
  H18      1.0000 0.10750  0.21320  0.41480  Biso   1.000  H
  C71      1.0000 0.21710  0.28370  0.48280  Biso   1.000  C
  C72      1.0000 0.24370  0.36630  0.50540  Biso   1.000  C
  H19      1.0000 0.30320  0.38010  0.54140  Biso   1.000  H
  C73      1.0000 0.18260  0.42780  0.47470  Biso   1.000  C
  H20      1.0000 0.20150  0.48270  0.49170  Biso   1.000  H
  C74      1.0000 0.83060  0.76080  0.82910  Biso   1.000  C
  C75      1.0000 0.76820  0.82390  0.76960  Biso   1.000  C
  O26      1.0000 0.42901  0.10922  0.94380  Biso   1.000  O
  O27      1.0000 0.46137  0.14926  0.12090  Biso   1.000  O
  O28      1.0000 0.12542  0.44464  0.80320  Biso   1.000  O
  O29      1.0000 0.11804  0.43614  0.63850  Biso   1.000  O
  O30      1.0000 0.53763  0.96974  0.38730  Biso   1.000  O
  N6       1.0000 0.59650  0.90910  0.42060  Biso   1.000  N
  C76      1.0000 0.35890  0.22970  0.94260  Biso   1.000  C
  C77      1.0000 0.29660  0.23240  0.80810  Biso   1.000  C
  C78      1.0000 0.23340  0.29400  0.74790  Biso   1.000  C
  C79      1.0000 0.22800  0.35600  0.81720  Biso   1.000  C
  C80      1.0000 0.27470  0.34030  0.94190  Biso   1.000  C
  C81      1.0000 0.33990  0.27860  0.00390  Biso   1.000  C
  C82      1.0000 0.42260  0.15740  0.00850  Biso   1.000  C
  C83      1.0000 0.15170  0.41780  0.74730  Biso   1.000  C
  C84      1.0000 0.56920  0.83090  0.40140  Biso   1.000  C
  H21      1.0000 0.51000  0.81890  0.36800  Biso   1.000  H
  C85      1.0000 0.62800  0.76750  0.43050  Biso   1.000  C
  H22      1.0000 0.60750  0.71320  0.41480  Biso   1.000  H
  C86      1.0000 0.71710  0.78370  0.48280  Biso   1.000  C
  C87      1.0000 0.74370  0.86630  0.50540  Biso   1.000  C
  H23      1.0000 0.80320  0.88010  0.54140  Biso   1.000  H
  C88      1.0000 0.68260  0.92780  0.47470  Biso   1.000  C
  H24      1.0000 0.70150  0.98270  0.49170  Biso   1.000  H
  C89      1.0000 0.33060  0.26080  0.82910  Biso   1.000  C
  C90      1.0000 0.26820  0.32390  0.76960  Biso   1.000  C
  O31      1.0000 0.07099  0.60922  0.55620  Biso   1.000  O
  O32      1.0000 0.03863  0.64926  0.37910  Biso   1.000  O
  O33      1.0000 0.37458  0.94464  0.69680  Biso   1.000  O
  O34      1.0000 0.38196  0.93614  0.86150  Biso   1.000  O
  O35      1.0000 0.96237  0.46974  0.11270  Biso   1.000  O
  N7       1.0000 0.90350  0.40910  0.07940  Biso   1.000  N
  C91      1.0000 0.14110  0.72970  0.55740  Biso   1.000  C
  C92      1.0000 0.20340  0.73240  0.69190  Biso   1.000  C
  C93      1.0000 0.26660  0.79400  0.75210  Biso   1.000  C
  C94      1.0000 0.27200  0.85600  0.68280  Biso   1.000  C
  C95      1.0000 0.22530  0.84030  0.55810  Biso   1.000  C
  C96      1.0000 0.16010  0.77860  0.49610  Biso   1.000  C
  C97      1.0000 0.07740  0.65740  0.49150  Biso   1.000  C
  C98      1.0000 0.34830  0.91780  0.75270  Biso   1.000  C
  C99      1.0000 0.93080  0.33090  0.09860  Biso   1.000  C
  H25      1.0000 0.99000  0.31890  0.13200  Biso   1.000  H
  C100     1.0000 0.87200  0.26750  0.06950  Biso   1.000  C
  H26      1.0000 0.89250  0.21320  0.08520  Biso   1.000  H
  C101     1.0000 0.78290  0.28370  0.01720  Biso   1.000  C
  C102     1.0000 0.75630  0.36630  0.99460  Biso   1.000  C
  H27      1.0000 0.69680  0.38010  0.95860  Biso   1.000  H
  C103     1.0000 0.81740  0.42780  0.02530  Biso   1.000  C
  H28      1.0000 0.79850  0.48270  0.00830  Biso   1.000  H
  C104     1.0000 0.16940  0.76080  0.67090  Biso   1.000  C
  C105     1.0000 0.23180  0.82390  0.73040  Biso   1.000  C
  O36      1.0000 0.57099  0.10922  0.55620  Biso   1.000  O
  O37      1.0000 0.53863  0.14926  0.37910  Biso   1.000  O
  O38      1.0000 0.87458  0.44464  0.69680  Biso   1.000  O
  O39      1.0000 0.88196  0.43614  0.86150  Biso   1.000  O
  O40      1.0000 0.46237  0.96974  0.11270  Biso   1.000  O
  N8       1.0000 0.40350  0.90910  0.07940  Biso   1.000  N
  C106     1.0000 0.64110  0.22970  0.55740  Biso   1.000  C
  C107     1.0000 0.70340  0.23240  0.69190  Biso   1.000  C
  C108     1.0000 0.76660  0.29400  0.75210  Biso   1.000  C
  C109     1.0000 0.77200  0.35600  0.68280  Biso   1.000  C
  C110     1.0000 0.72530  0.34030  0.55810  Biso   1.000  C
  C111     1.0000 0.66010  0.27860  0.49610  Biso   1.000  C
  C112     1.0000 0.57740  0.15740  0.49150  Biso   1.000  C
  C113     1.0000 0.84830  0.41780  0.75270  Biso   1.000  C
  C114     1.0000 0.43080  0.83090  0.09860  Biso   1.000  C
  H29      1.0000 0.49000  0.81890  0.13200  Biso   1.000  H
  C115     1.0000 0.37200  0.76750  0.06950  Biso   1.000  C
  H30      1.0000 0.39250  0.71320  0.08520  Biso   1.000  H
  C116     1.0000 0.28290  0.78370  0.01720  Biso   1.000  C
  C117     1.0000 0.25630  0.86630  0.99460  Biso   1.000  C
  H31      1.0000 0.19680  0.88010  0.95860  Biso   1.000  H
  C118     1.0000 0.31740  0.92780  0.02530  Biso   1.000  C
  H32      1.0000 0.29850  0.98270  0.00830  Biso   1.000  H
  C119     1.0000 0.66940  0.26080  0.67090  Biso   1.000  C
  C120     1.0000 0.73180  0.32390  0.73040  Biso   1.000  C
  Mg1      1.0000 0.00000  0.43811  0.75000  Biso   1.000  Mg
  Mg2      1.0000 0.50000  0.93811  0.75000  Biso   1.000  Mg
  Mg3      1.0000 0.00000  0.56189  0.25000  Biso   1.000  Mg
  Mg4      1.0000 0.50000  0.06189  0.25000  Biso   1.000  Mg
  Mg5      1.0000 0.00000  0.50000  0.00000  Biso   1.000  Mg
  Mg6      1.0000 0.50000  0.00000  0.00000  Biso   1.000  Mg
  Mg7      1.0000 0.00000  0.50000  0.50000  Biso   1.000  Mg
  Mg8      1.0000 0.50000  0.00000  0.50000  Biso   1.000  Mg
