data_image0
_cell_length_a       23.5728
_cell_length_b       6.4248
_cell_length_c       31.1276
_cell_angle_alpha    90
_cell_angle_beta     94.773
_cell_angle_gamma    90

_symmetry_space_group_name_H-M    "P 1"
_symmetry_int_tables_number       1

loop_
  _symmetry_equiv_pos_as_xyz
  'x, y, z'

loop_
  _atom_site_label
  _atom_site_occupancy
  _atom_site_fract_x
  _atom_site_fract_y
  _atom_site_fract_z
  _atom_site_thermal_displace_type
  _atom_site_B_iso_or_equiv
  _atom_site_type_symbol
  Zn1      1.0000 0.30005  0.69690  0.67207  Biso   1.000  Zn
  O1       1.0000 0.30130  0.77370  0.60550  Biso   1.000  O
  O2       1.0000 0.58310  0.26970  0.37360  Biso   1.000  O
  O3       1.0000 0.33740  0.58350  0.20200  Biso   1.000  O
  H1       1.0000 0.33080  0.59190  0.22830  Biso   1.000  H
  Zn2      1.0000 0.33566  0.39580  0.59272  Biso   1.000  Zn
  Zn3      1.0000 0.19263  0.52361  0.18978  Biso   1.000  Zn
  Zn4      1.0000 0.19722  0.05751  0.21089  Biso   1.000  Zn
  Zn5      1.0000 0.32676  0.30872  0.18804  Biso   1.000  Zn
  C1       1.0000 0.22470  0.43010  0.56230  Biso   1.000  C
  C2       1.0000 0.17650  0.47360  0.52850  Biso   1.000  C
  C3       1.0000 0.12590  0.54810  0.54060  Biso   1.000  C
  H2       1.0000 0.12110  0.56330  0.56980  Biso   1.000  H
  C4       1.0000 0.08160  0.60180  0.51060  Biso   1.000  C
  H3       1.0000 0.04740  0.65060  0.51970  Biso   1.000  H
  C5       1.0000 0.08830  0.58250  0.46630  Biso   1.000  C
  C6       1.0000 0.14110  0.50620  0.45370  Biso   1.000  C
  C7       1.0000 0.18340  0.45560  0.48530  Biso   1.000  C
  H4       1.0000 0.21810  0.40740  0.47690  Biso   1.000  H
  C8       1.0000 0.03990  0.63360  0.43540  Biso   1.000  C
  C9       1.0000 0.01420  0.82270  0.43510  Biso   1.000  C
  H5       1.0000 0.02770  0.92310  0.45490  Biso   1.000  H
  C10      1.0000 0.96990  0.86840  0.40720  Biso   1.000  C
  H6       1.0000 0.95250  0.99790  0.40860  Biso   1.000  H
  C11      1.0000 0.94900  0.72410  0.37570  Biso   1.000  C
  C12      1.0000 0.97510  0.53750  0.37610  Biso   1.000  C
  H7       1.0000 0.96150  0.43700  0.35640  Biso   1.000  H
  C13      1.0000 0.02080  0.48970  0.40440  Biso   1.000  C
  H8       1.0000 0.03890  0.36170  0.40270  Biso   1.000  H
  C14      1.0000 0.89930  0.77200  0.34480  Biso   1.000  C
  C15      1.0000 0.15250  0.48480  0.40820  Biso   1.000  C
  C16      1.0000 0.14420  0.65100  0.37960  Biso   1.000  C
  H9       1.0000 0.13180  0.77950  0.38880  Biso   1.000  H
  C17      1.0000 0.15570  0.61800  0.33480  Biso   1.000  C
  H10      1.0000 0.15110  0.72340  0.31440  Biso   1.000  H
  C18      1.0000 0.17390  0.41800  0.32430  Biso   1.000  C
  C19      1.0000 0.18020  0.26500  0.35220  Biso   1.000  C
  H11      1.0000 0.18960  0.13260  0.34280  Biso   1.000  H
  C20      1.0000 0.17330  0.29500  0.39350  Biso   1.000  C
  H12      1.0000 0.18240  0.18900  0.41320  Biso   1.000  H
  C21      1.0000 0.18140  0.39200  0.27600  Biso   1.000  C
  C22      1.0000 0.31400  0.94340  0.58700  Biso   1.000  C
  C23      1.0000 0.31510  0.95680  0.53940  Biso   1.000  C
  C24      1.0000 0.27010  0.88620  0.51310  Biso   1.000  C
  H13      1.0000 0.23880  0.82860  0.52500  Biso   1.000  H
  C25      1.0000 0.27050  0.89940  0.46860  Biso   1.000  C
  H14      1.0000 0.23880  0.85520  0.45110  Biso   1.000  H
  C26      1.0000 0.31780  0.97820  0.44950  Biso   1.000  C
  C27      1.0000 0.36450  0.04840  0.47670  Biso   1.000  C
  C28      1.0000 0.36210  0.03800  0.52080  Biso   1.000  C
  H15      1.0000 0.39280  0.08670  0.53860  Biso   1.000  H
  C29      1.0000 0.31440  0.99870  0.40170  Biso   1.000  C
  C30      1.0000 0.29690  0.83730  0.37610  Biso   1.000  C
  H16      1.0000 0.28660  0.71160  0.38800  Biso   1.000  H
  C31      1.0000 0.29450  0.86170  0.33190  Biso   1.000  C
  H17      1.0000 0.28290  0.75000  0.31430  Biso   1.000  H
  C32      1.0000 0.30890  0.04710  0.31310  Biso   1.000  C
  C33      1.0000 0.32840  0.20780  0.33980  Biso   1.000  C
  H18      1.0000 0.34080  0.33110  0.32810  Biso   1.000  H
  C34      1.0000 0.32950  0.18560  0.38350  Biso   1.000  C
  H19      1.0000 0.34050  0.29730  0.40130  Biso   1.000  H
  C35      1.0000 0.30580  0.07380  0.26510  Biso   1.000  C
  C36      1.0000 0.41710  0.12870  0.45870  Biso   1.000  C
  C37      1.0000 0.44730  0.00890  0.43140  Biso   1.000  C
  H20      1.0000 0.43530  0.87390  0.42480  Biso   1.000  H
  C38      1.0000 0.49470  0.08510  0.41380  Biso   1.000  C
  H21      1.0000 0.51470  0.00170  0.39590  Biso   1.000  H
  C39      1.0000 0.51250  0.28690  0.42280  Biso   1.000  C
  C40      1.0000 0.48350  0.40090  0.45080  Biso   1.000  C
  H22      1.0000 0.49610  0.53440  0.45810  Biso   1.000  H
  C41      1.0000 0.43630  0.32510  0.46850  Biso   1.000  C
  H23      1.0000 0.41730  0.40750  0.48730  Biso   1.000  H
  C42      1.0000 0.56220  0.37260  0.40330  Biso   1.000  C
  O4       1.0000 0.21410  0.42400  0.60060  Biso   1.000  O
  O5       1.0000 0.27330  0.40910  0.54930  Biso   1.000  O
  O6       1.0000 0.87930  0.95550  0.34400  Biso   1.000  O
  O7       1.0000 0.87990  0.62760  0.32100  Biso   1.000  O
  O8       1.0000 0.18450  0.52990  0.25230  Biso   1.000  O
  O9       1.0000 0.19010  0.19400  0.26530  Biso   1.000  O
  O10      1.0000 0.33400  0.09210  0.61010  Biso   1.000  O
  O11      1.0000 0.27630  0.94760  0.24180  Biso   1.000  O
  O12      1.0000 0.33320  0.22310  0.24990  Biso   1.000  O
  O13      1.0000 0.59150  0.50740  0.42430  Biso   1.000  O
  O14      1.0000 0.33740  0.45740  0.65590  Biso   1.000  O
  H24      1.0000 0.37750  0.49060  0.66350  Biso   1.000  H
  O15      1.0000 0.23890  0.27740  0.17650  Biso   1.000  O
  H25      1.0000 0.23070  0.24600  0.14580  Biso   1.000  H
  O16      1.0000 0.20830  0.80440  0.17180  Biso   1.000  O
  H26      1.0000 0.19070  0.83010  0.14260  Biso   1.000  H
  Zn6      1.0000 0.27173  0.68610  0.65034  Biso   1.000  Zn
  O17      1.0000 0.27460  0.82660  0.59770  Biso   1.000  O
  O18      1.0000 0.56450  0.36000  0.36270  Biso   1.000  O
  O19      1.0000 0.29240  0.60800  0.19570  Biso   1.000  O
  H27      1.0000 0.30930  0.57870  0.22020  Biso   1.000  H
  Zn7      1.0000 0.69995  0.19690  0.82793  Biso   1.000  Zn
  O20      1.0000 0.69870  0.27370  0.89450  Biso   1.000  O
  O21      1.0000 0.41690  0.76970  0.12640  Biso   1.000  O
  O22      1.0000 0.66260  0.08350  0.29800  Biso   1.000  O
  H28      1.0000 0.66920  0.09190  0.27170  Biso   1.000  H
  Zn8      1.0000 0.66434  0.89580  0.90728  Biso   1.000  Zn
  Zn9      1.0000 0.80737  0.02361  0.31022  Biso   1.000  Zn
  Zn10     1.0000 0.80278  0.55751  0.28911  Biso   1.000  Zn
  Zn11     1.0000 0.67324  0.80872  0.31196  Biso   1.000  Zn
  C43      1.0000 0.77530  0.93010  0.93770  Biso   1.000  C
  C44      1.0000 0.82350  0.97360  0.97150  Biso   1.000  C
  C45      1.0000 0.87410  0.04810  0.95940  Biso   1.000  C
  H29      1.0000 0.87890  0.06330  0.93020  Biso   1.000  H
  C46      1.0000 0.91840  0.10180  0.98940  Biso   1.000  C
  H30      1.0000 0.95260  0.15060  0.98030  Biso   1.000  H
  C47      1.0000 0.91170  0.08250  0.03370  Biso   1.000  C
  C48      1.0000 0.85890  0.00620  0.04630  Biso   1.000  C
  C49      1.0000 0.81660  0.95560  0.01470  Biso   1.000  C
  H31      1.0000 0.78190  0.90740  0.02310  Biso   1.000  H
  C50      1.0000 0.96010  0.13360  0.06460  Biso   1.000  C
  C51      1.0000 0.98580  0.32270  0.06490  Biso   1.000  C
  H32      1.0000 0.97230  0.42310  0.04510  Biso   1.000  H
  C52      1.0000 0.03010  0.36840  0.09280  Biso   1.000  C
  H33      1.0000 0.04750  0.49790  0.09140  Biso   1.000  H
  C53      1.0000 0.05100  0.22410  0.12430  Biso   1.000  C
  C54      1.0000 0.02490  0.03750  0.12390  Biso   1.000  C
  H34      1.0000 0.03850  0.93700  0.14360  Biso   1.000  H
  C55      1.0000 0.97920  0.98970  0.09560  Biso   1.000  C
  H35      1.0000 0.96110  0.86170  0.09730  Biso   1.000  H
  C56      1.0000 0.10070  0.27200  0.15520  Biso   1.000  C
  C57      1.0000 0.84750  0.98480  0.09180  Biso   1.000  C
  C58      1.0000 0.85580  0.15100  0.12040  Biso   1.000  C
  H36      1.0000 0.86820  0.27950  0.11120  Biso   1.000  H
  C59      1.0000 0.84430  0.11800  0.16520  Biso   1.000  C
  H37      1.0000 0.84890  0.22340  0.18560  Biso   1.000  H
  C60      1.0000 0.82610  0.91800  0.17570  Biso   1.000  C
  C61      1.0000 0.81980  0.76500  0.14780  Biso   1.000  C
  H38      1.0000 0.81040  0.63260  0.15720  Biso   1.000  H
  C62      1.0000 0.82670  0.79500  0.10650  Biso   1.000  C
  H39      1.0000 0.81760  0.68900  0.08680  Biso   1.000  H
  C63      1.0000 0.81860  0.89200  0.22400  Biso   1.000  C
  C64      1.0000 0.68600  0.44340  0.91300  Biso   1.000  C
  C65      1.0000 0.68490  0.45680  0.96060  Biso   1.000  C
  C66      1.0000 0.72990  0.38620  0.98690  Biso   1.000  C
  H40      1.0000 0.76120  0.32860  0.97500  Biso   1.000  H
  C67      1.0000 0.72950  0.39940  0.03140  Biso   1.000  C
  H41      1.0000 0.76120  0.35520  0.04890  Biso   1.000  H
  C68      1.0000 0.68220  0.47820  0.05050  Biso   1.000  C
  C69      1.0000 0.63550  0.54840  0.02330  Biso   1.000  C
  C70      1.0000 0.63790  0.53800  0.97920  Biso   1.000  C
  H42      1.0000 0.60720  0.58670  0.96140  Biso   1.000  H
  C71      1.0000 0.68560  0.49870  0.09830  Biso   1.000  C
  C72      1.0000 0.70310  0.33730  0.12390  Biso   1.000  C
  H43      1.0000 0.71340  0.21160  0.11200  Biso   1.000  H
  C73      1.0000 0.70550  0.36170  0.16810  Biso   1.000  C
  H44      1.0000 0.71710  0.25000  0.18570  Biso   1.000  H
  C74      1.0000 0.69110  0.54710  0.18690  Biso   1.000  C
  C75      1.0000 0.67160  0.70780  0.16020  Biso   1.000  C
  H45      1.0000 0.65920  0.83110  0.17190  Biso   1.000  H
  C76      1.0000 0.67050  0.68560  0.11650  Biso   1.000  C
  H46      1.0000 0.65950  0.79730  0.09870  Biso   1.000  H
  C77      1.0000 0.69420  0.57380  0.23490  Biso   1.000  C
  C78      1.0000 0.58290  0.62870  0.04130  Biso   1.000  C
  C79      1.0000 0.55270  0.50890  0.06860  Biso   1.000  C
  H47      1.0000 0.56470  0.37390  0.07520  Biso   1.000  H
  C80      1.0000 0.50530  0.58510  0.08620  Biso   1.000  C
  H48      1.0000 0.48530  0.50170  0.10410  Biso   1.000  H
  C81      1.0000 0.48750  0.78690  0.07720  Biso   1.000  C
  C82      1.0000 0.51650  0.90090  0.04920  Biso   1.000  C
  H49      1.0000 0.50390  0.03440  0.04190  Biso   1.000  H
  C83      1.0000 0.56370  0.82510  0.03150  Biso   1.000  C
  H50      1.0000 0.58270  0.90750  0.01270  Biso   1.000  H
  C84      1.0000 0.43780  0.87260  0.09670  Biso   1.000  C
  O23      1.0000 0.78590  0.92400  0.89940  Biso   1.000  O
  O24      1.0000 0.72670  0.90910  0.95070  Biso   1.000  O
  O25      1.0000 0.12070  0.45550  0.15600  Biso   1.000  O
  O26      1.0000 0.12010  0.12760  0.17900  Biso   1.000  O
  O27      1.0000 0.81550  0.02990  0.24770  Biso   1.000  O
  O28      1.0000 0.80990  0.69400  0.23470  Biso   1.000  O
  O29      1.0000 0.66600  0.59210  0.88990  Biso   1.000  O
  O30      1.0000 0.72370  0.44760  0.25820  Biso   1.000  O
  O31      1.0000 0.66680  0.72310  0.25010  Biso   1.000  O
  O32      1.0000 0.40850  0.00740  0.07570  Biso   1.000  O
  O33      1.0000 0.66260  0.95740  0.84410  Biso   1.000  O
  H51      1.0000 0.62250  0.99060  0.83650  Biso   1.000  H
  O34      1.0000 0.76110  0.77740  0.32350  Biso   1.000  O
  H52      1.0000 0.76930  0.74600  0.35420  Biso   1.000  H
  O35      1.0000 0.79170  0.30440  0.32820  Biso   1.000  O
  H53      1.0000 0.80930  0.33010  0.35740  Biso   1.000  H
  Zn12     1.0000 0.72827  0.18610  0.84966  Biso   1.000  Zn
  O36      1.0000 0.72540  0.32660  0.90230  Biso   1.000  O
  O37      1.0000 0.43550  0.86000  0.13730  Biso   1.000  O
  O38      1.0000 0.70760  0.10800  0.30430  Biso   1.000  O
  H54      1.0000 0.69070  0.07870  0.27980  Biso   1.000  H
  Zn13     1.0000 0.69995  0.30310  0.32793  Biso   1.000  Zn
  O39      1.0000 0.69870  0.22630  0.39450  Biso   1.000  O
  O40      1.0000 0.41690  0.73030  0.62640  Biso   1.000  O
  O41      1.0000 0.66260  0.41650  0.79800  Biso   1.000  O
  H55      1.0000 0.66920  0.40810  0.77170  Biso   1.000  H
  Zn14     1.0000 0.66434  0.60420  0.40728  Biso   1.000  Zn
  Zn15     1.0000 0.80737  0.47639  0.81022  Biso   1.000  Zn
  Zn16     1.0000 0.80278  0.94249  0.78911  Biso   1.000  Zn
  Zn17     1.0000 0.67324  0.69128  0.81196  Biso   1.000  Zn
  C85      1.0000 0.77530  0.56990  0.43770  Biso   1.000  C
  C86      1.0000 0.82350  0.52640  0.47150  Biso   1.000  C
  C87      1.0000 0.87410  0.45190  0.45940  Biso   1.000  C
  H56      1.0000 0.87890  0.43670  0.43020  Biso   1.000  H
  C88      1.0000 0.91840  0.39820  0.48940  Biso   1.000  C
  H57      1.0000 0.95260  0.34940  0.48030  Biso   1.000  H
  C89      1.0000 0.91170  0.41750  0.53370  Biso   1.000  C
  C90      1.0000 0.85890  0.49380  0.54630  Biso   1.000  C
  C91      1.0000 0.81660  0.54440  0.51470  Biso   1.000  C
  H58      1.0000 0.78190  0.59260  0.52310  Biso   1.000  H
  C92      1.0000 0.96010  0.36640  0.56460  Biso   1.000  C
  C93      1.0000 0.98580  0.17730  0.56490  Biso   1.000  C
  H59      1.0000 0.97230  0.07690  0.54510  Biso   1.000  H
  C94      1.0000 0.03010  0.13160  0.59280  Biso   1.000  C
  H60      1.0000 0.04750  0.00210  0.59140  Biso   1.000  H
  C95      1.0000 0.05100  0.27590  0.62430  Biso   1.000  C
  C96      1.0000 0.02490  0.46250  0.62390  Biso   1.000  C
  H61      1.0000 0.03850  0.56300  0.64360  Biso   1.000  H
  C97      1.0000 0.97920  0.51030  0.59560  Biso   1.000  C
  H62      1.0000 0.96110  0.63830  0.59730  Biso   1.000  H
  C98      1.0000 0.10070  0.22800  0.65520  Biso   1.000  C
  C99      1.0000 0.84750  0.51520  0.59180  Biso   1.000  C
  C100     1.0000 0.85580  0.34900  0.62040  Biso   1.000  C
  H63      1.0000 0.86820  0.22050  0.61120  Biso   1.000  H
  C101     1.0000 0.84430  0.38200  0.66520  Biso   1.000  C
  H64      1.0000 0.84890  0.27660  0.68560  Biso   1.000  H
  C102     1.0000 0.82610  0.58200  0.67570  Biso   1.000  C
  C103     1.0000 0.81980  0.73500  0.64780  Biso   1.000  C
  H65      1.0000 0.81040  0.86740  0.65720  Biso   1.000  H
  C104     1.0000 0.82670  0.70500  0.60650  Biso   1.000  C
  H66      1.0000 0.81760  0.81100  0.58680  Biso   1.000  H
  C105     1.0000 0.81860  0.60800  0.72400  Biso   1.000  C
  C106     1.0000 0.68600  0.05660  0.41300  Biso   1.000  C
  C107     1.0000 0.68490  0.04320  0.46060  Biso   1.000  C
  C108     1.0000 0.72990  0.11380  0.48690  Biso   1.000  C
  H67      1.0000 0.76120  0.17140  0.47500  Biso   1.000  H
  C109     1.0000 0.72950  0.10060  0.53140  Biso   1.000  C
  H68      1.0000 0.76120  0.14480  0.54890  Biso   1.000  H
  C110     1.0000 0.68220  0.02180  0.55050  Biso   1.000  C
  C111     1.0000 0.63550  0.95160  0.52330  Biso   1.000  C
  C112     1.0000 0.63790  0.96200  0.47920  Biso   1.000  C
  H69      1.0000 0.60720  0.91330  0.46140  Biso   1.000  H
  C113     1.0000 0.68560  0.00130  0.59830  Biso   1.000  C
  C114     1.0000 0.70310  0.16270  0.62390  Biso   1.000  C
  H70      1.0000 0.71340  0.28840  0.61200  Biso   1.000  H
  C115     1.0000 0.70550  0.13830  0.66810  Biso   1.000  C
  H71      1.0000 0.71710  0.25000  0.68570  Biso   1.000  H
  C116     1.0000 0.69110  0.95290  0.68690  Biso   1.000  C
  C117     1.0000 0.67160  0.79220  0.66020  Biso   1.000  C
  H72      1.0000 0.65920  0.66890  0.67190  Biso   1.000  H
  C118     1.0000 0.67050  0.81440  0.61650  Biso   1.000  C
  H73      1.0000 0.65950  0.70270  0.59870  Biso   1.000  H
  C119     1.0000 0.69420  0.92620  0.73490  Biso   1.000  C
  C120     1.0000 0.58290  0.87130  0.54130  Biso   1.000  C
  C121     1.0000 0.55270  0.99110  0.56860  Biso   1.000  C
  H74      1.0000 0.56470  0.12610  0.57520  Biso   1.000  H
  C122     1.0000 0.50530  0.91490  0.58620  Biso   1.000  C
  H75      1.0000 0.48530  0.99830  0.60410  Biso   1.000  H
  C123     1.0000 0.48750  0.71310  0.57720  Biso   1.000  C
  C124     1.0000 0.51650  0.59910  0.54920  Biso   1.000  C
  H76      1.0000 0.50390  0.46560  0.54190  Biso   1.000  H
  C125     1.0000 0.56370  0.67490  0.53150  Biso   1.000  C
  H77      1.0000 0.58270  0.59250  0.51270  Biso   1.000  H
  C126     1.0000 0.43780  0.62740  0.59670  Biso   1.000  C
  O42      1.0000 0.78590  0.57600  0.39940  Biso   1.000  O
  O43      1.0000 0.72670  0.59090  0.45070  Biso   1.000  O
  O44      1.0000 0.12070  0.04450  0.65600  Biso   1.000  O
  O45      1.0000 0.12010  0.37240  0.67900  Biso   1.000  O
  O46      1.0000 0.81550  0.47010  0.74770  Biso   1.000  O
  O47      1.0000 0.80990  0.80600  0.73470  Biso   1.000  O
  O48      1.0000 0.66600  0.90790  0.38990  Biso   1.000  O
  O49      1.0000 0.72370  0.05240  0.75820  Biso   1.000  O
  O50      1.0000 0.66680  0.77690  0.75010  Biso   1.000  O
  O51      1.0000 0.40850  0.49260  0.57570  Biso   1.000  O
  O52      1.0000 0.66260  0.54260  0.34410  Biso   1.000  O
  H78      1.0000 0.62250  0.50940  0.33650  Biso   1.000  H
  O53      1.0000 0.76110  0.72260  0.82350  Biso   1.000  O
  H79      1.0000 0.76930  0.75400  0.85420  Biso   1.000  H
  O54      1.0000 0.79170  0.19560  0.82820  Biso   1.000  O
  H80      1.0000 0.80930  0.16990  0.85740  Biso   1.000  H
  Zn18     1.0000 0.72827  0.31390  0.34966  Biso   1.000  Zn
  O55      1.0000 0.72540  0.17340  0.40230  Biso   1.000  O
  O56      1.0000 0.43550  0.64000  0.63730  Biso   1.000  O
  O57      1.0000 0.70760  0.39200  0.80430  Biso   1.000  O
  H81      1.0000 0.69070  0.42130  0.77980  Biso   1.000  H
  Zn19     1.0000 0.30005  0.80310  0.17207  Biso   1.000  Zn
  O58      1.0000 0.30130  0.72630  0.10550  Biso   1.000  O
  O59      1.0000 0.58310  0.23030  0.87360  Biso   1.000  O
  O60      1.0000 0.33740  0.91650  0.70200  Biso   1.000  O
  H82      1.0000 0.33080  0.90810  0.72830  Biso   1.000  H
  Zn20     1.0000 0.33566  0.10420  0.09272  Biso   1.000  Zn
  Zn21     1.0000 0.19263  0.97639  0.68978  Biso   1.000  Zn
  Zn22     1.0000 0.19722  0.44249  0.71089  Biso   1.000  Zn
  Zn23     1.0000 0.32676  0.19128  0.68804  Biso   1.000  Zn
  C127     1.0000 0.22470  0.06990  0.06230  Biso   1.000  C
  C128     1.0000 0.17650  0.02640  0.02850  Biso   1.000  C
  C129     1.0000 0.12590  0.95190  0.04060  Biso   1.000  C
  H83      1.0000 0.12110  0.93670  0.06980  Biso   1.000  H
  C130     1.0000 0.08160  0.89820  0.01060  Biso   1.000  C
  H84      1.0000 0.04740  0.84940  0.01970  Biso   1.000  H
  C131     1.0000 0.08830  0.91750  0.96630  Biso   1.000  C
  C132     1.0000 0.14110  0.99380  0.95370  Biso   1.000  C
  C133     1.0000 0.18340  0.04440  0.98530  Biso   1.000  C
  H85      1.0000 0.21810  0.09260  0.97690  Biso   1.000  H
  C134     1.0000 0.03990  0.86640  0.93540  Biso   1.000  C
  C135     1.0000 0.01420  0.67730  0.93510  Biso   1.000  C
  H86      1.0000 0.02770  0.57690  0.95490  Biso   1.000  H
  C136     1.0000 0.96990  0.63160  0.90720  Biso   1.000  C
  H87      1.0000 0.95250  0.50210  0.90860  Biso   1.000  H
  C137     1.0000 0.94900  0.77590  0.87570  Biso   1.000  C
  C138     1.0000 0.97510  0.96250  0.87610  Biso   1.000  C
  H88      1.0000 0.96150  0.06300  0.85640  Biso   1.000  H
  C139     1.0000 0.02080  0.01030  0.90440  Biso   1.000  C
  H89      1.0000 0.03890  0.13830  0.90270  Biso   1.000  H
  C140     1.0000 0.89930  0.72800  0.84480  Biso   1.000  C
  C141     1.0000 0.15250  0.01520  0.90820  Biso   1.000  C
  C142     1.0000 0.14420  0.84900  0.87960  Biso   1.000  C
  H90      1.0000 0.13180  0.72050  0.88880  Biso   1.000  H
  C143     1.0000 0.15570  0.88200  0.83480  Biso   1.000  C
  H91      1.0000 0.15110  0.77660  0.81440  Biso   1.000  H
  C144     1.0000 0.17390  0.08200  0.82430  Biso   1.000  C
  C145     1.0000 0.18020  0.23500  0.85220  Biso   1.000  C
  H92      1.0000 0.18960  0.36740  0.84280  Biso   1.000  H
  C146     1.0000 0.17330  0.20500  0.89350  Biso   1.000  C
  H93      1.0000 0.18240  0.31100  0.91320  Biso   1.000  H
  C147     1.0000 0.18140  0.10800  0.77600  Biso   1.000  C
  C148     1.0000 0.31400  0.55660  0.08700  Biso   1.000  C
  C149     1.0000 0.31510  0.54320  0.03940  Biso   1.000  C
  C150     1.0000 0.27010  0.61380  0.01310  Biso   1.000  C
  H94      1.0000 0.23880  0.67140  0.02500  Biso   1.000  H
  C151     1.0000 0.27050  0.60060  0.96860  Biso   1.000  C
  H95      1.0000 0.23880  0.64480  0.95110  Biso   1.000  H
  C152     1.0000 0.31780  0.52180  0.94950  Biso   1.000  C
  C153     1.0000 0.36450  0.45160  0.97670  Biso   1.000  C
  C154     1.0000 0.36210  0.46200  0.02080  Biso   1.000  C
  H96      1.0000 0.39280  0.41330  0.03860  Biso   1.000  H
  C155     1.0000 0.31440  0.50130  0.90170  Biso   1.000  C
  C156     1.0000 0.29690  0.66270  0.87610  Biso   1.000  C
  H97      1.0000 0.28660  0.78840  0.88800  Biso   1.000  H
  C157     1.0000 0.29450  0.63830  0.83190  Biso   1.000  C
  H98      1.0000 0.28290  0.75000  0.81430  Biso   1.000  H
  C158     1.0000 0.30890  0.45290  0.81310  Biso   1.000  C
  C159     1.0000 0.32840  0.29220  0.83980  Biso   1.000  C
  H99      1.0000 0.34080  0.16890  0.82810  Biso   1.000  H
  C160     1.0000 0.32950  0.31440  0.88350  Biso   1.000  C
  H100     1.0000 0.34050  0.20270  0.90130  Biso   1.000  H
  C161     1.0000 0.30580  0.42620  0.76510  Biso   1.000  C
  C162     1.0000 0.41710  0.37130  0.95870  Biso   1.000  C
  C163     1.0000 0.44730  0.49110  0.93140  Biso   1.000  C
  H101     1.0000 0.43530  0.62610  0.92480  Biso   1.000  H
  C164     1.0000 0.49470  0.41490  0.91380  Biso   1.000  C
  H102     1.0000 0.51470  0.49830  0.89590  Biso   1.000  H
  C165     1.0000 0.51250  0.21310  0.92280  Biso   1.000  C
  C166     1.0000 0.48350  0.09910  0.95080  Biso   1.000  C
  H103     1.0000 0.49610  0.96560  0.95810  Biso   1.000  H
  C167     1.0000 0.43630  0.17490  0.96850  Biso   1.000  C
  H104     1.0000 0.41730  0.09250  0.98730  Biso   1.000  H
  C168     1.0000 0.56220  0.12740  0.90330  Biso   1.000  C
  O61      1.0000 0.21410  0.07600  0.10060  Biso   1.000  O
  O62      1.0000 0.27330  0.09090  0.04930  Biso   1.000  O
  O63      1.0000 0.87930  0.54450  0.84400  Biso   1.000  O
  O64      1.0000 0.87990  0.87240  0.82100  Biso   1.000  O
  O65      1.0000 0.18450  0.97010  0.75230  Biso   1.000  O
  O66      1.0000 0.19010  0.30600  0.76530  Biso   1.000  O
  O67      1.0000 0.33400  0.40790  0.11010  Biso   1.000  O
  O68      1.0000 0.27630  0.55240  0.74180  Biso   1.000  O
  O69      1.0000 0.33320  0.27690  0.74990  Biso   1.000  O
  O70      1.0000 0.59150  0.99260  0.92430  Biso   1.000  O
  O71      1.0000 0.33740  0.04260  0.15590  Biso   1.000  O
  H105     1.0000 0.37750  0.00940  0.16350  Biso   1.000  H
  O72      1.0000 0.23890  0.22260  0.67650  Biso   1.000  O
  H106     1.0000 0.23070  0.25400  0.64580  Biso   1.000  H
  O73      1.0000 0.20830  0.69560  0.67180  Biso   1.000  O
  H107     1.0000 0.19070  0.66990  0.64260  Biso   1.000  H
  Zn24     1.0000 0.27173  0.81390  0.15034  Biso   1.000  Zn
  O74      1.0000 0.27460  0.67340  0.09770  Biso   1.000  O
  O75      1.0000 0.56450  0.14000  0.86270  Biso   1.000  O
  O76      1.0000 0.29240  0.89200  0.69570  Biso   1.000  O
  H108     1.0000 0.30930  0.92130  0.72020  Biso   1.000  H
