data_image0
_cell_length_a       15.385
_cell_length_b       6.726
_cell_length_c       14.241
_cell_angle_alpha    90
_cell_angle_beta     90
_cell_angle_gamma    90

_symmetry_space_group_name_H-M    "P 1"
_symmetry_int_tables_number       1

loop_
  _symmetry_equiv_pos_as_xyz
  'x, y, z'

loop_
  _atom_site_label
  _atom_site_occupancy
  _atom_site_fract_x
  _atom_site_fract_y
  _atom_site_fract_z
  _atom_site_thermal_displace_type
  _atom_site_B_iso_or_equiv
  _atom_site_type_symbol
  O1       1.0000 0.14660  0.58580  0.64020  Biso   1.000  O
  O2       1.0000 0.21030  0.59010  0.25000  Biso   1.000  O
  O3       1.0000 0.31680  0.06900  0.56910  Biso   1.000  O
  H1       1.0000 0.31530  0.95630  0.59090  Biso   1.000  H
  H2       1.0000 0.29040  0.90190  0.56030  Biso   1.000  H
  O4       1.0000 0.29220  0.01100  0.53500  Biso   1.000  O
  O5       1.0000 0.35340  0.41420  0.14020  Biso   1.000  O
  O6       1.0000 0.28970  0.40990  0.75000  Biso   1.000  O
  O7       1.0000 0.18320  0.93100  0.06910  Biso   1.000  O
  H3       1.0000 0.18470  0.04370  0.09090  Biso   1.000  H
  H4       1.0000 0.20960  0.09810  0.06030  Biso   1.000  H
  O8       1.0000 0.20780  0.98900  0.03500  Biso   1.000  O
  O9       1.0000 0.85340  0.08580  0.35980  Biso   1.000  O
  O10      1.0000 0.78970  0.09010  0.75000  Biso   1.000  O
  O11      1.0000 0.68320  0.56900  0.43090  Biso   1.000  O
  H5       1.0000 0.68470  0.45630  0.40910  Biso   1.000  H
  H6       1.0000 0.70960  0.40190  0.43970  Biso   1.000  H
  O12      1.0000 0.70780  0.51100  0.46500  Biso   1.000  O
  O13      1.0000 0.64660  0.91420  0.85980  Biso   1.000  O
  O14      1.0000 0.71030  0.90990  0.25000  Biso   1.000  O
  O15      1.0000 0.81680  0.43100  0.93090  Biso   1.000  O
  H7       1.0000 0.81530  0.54370  0.90910  Biso   1.000  H
  H8       1.0000 0.79040  0.59810  0.93970  Biso   1.000  H
  O16      1.0000 0.79220  0.48900  0.96500  Biso   1.000  O
  O17      1.0000 0.85340  0.41420  0.35980  Biso   1.000  O
  O18      1.0000 0.78970  0.40990  0.75000  Biso   1.000  O
  O19      1.0000 0.68320  0.93100  0.43090  Biso   1.000  O
  H9       1.0000 0.68470  0.04370  0.40910  Biso   1.000  H
  H10      1.0000 0.70960  0.09810  0.43970  Biso   1.000  H
  O20      1.0000 0.70780  0.98900  0.46500  Biso   1.000  O
  O21      1.0000 0.64660  0.58580  0.85980  Biso   1.000  O
  O22      1.0000 0.71030  0.59010  0.25000  Biso   1.000  O
  O23      1.0000 0.81680  0.06900  0.93090  Biso   1.000  O
  H11      1.0000 0.81530  0.95630  0.90910  Biso   1.000  H
  H12      1.0000 0.79040  0.90190  0.93970  Biso   1.000  H
  O24      1.0000 0.79220  0.01100  0.96500  Biso   1.000  O
  O25      1.0000 0.14660  0.91420  0.64020  Biso   1.000  O
  O26      1.0000 0.21030  0.90990  0.25000  Biso   1.000  O
  O27      1.0000 0.31680  0.43100  0.56910  Biso   1.000  O
  H13      1.0000 0.31530  0.54370  0.59090  Biso   1.000  H
  H14      1.0000 0.29040  0.59810  0.56030  Biso   1.000  H
  O28      1.0000 0.29220  0.48900  0.53500  Biso   1.000  O
  O29      1.0000 0.35340  0.08580  0.14020  Biso   1.000  O
  O30      1.0000 0.28970  0.09010  0.75000  Biso   1.000  O
  O31      1.0000 0.18320  0.56900  0.06910  Biso   1.000  O
  H15      1.0000 0.18470  0.45630  0.09090  Biso   1.000  H
  H16      1.0000 0.20960  0.40190  0.06030  Biso   1.000  H
  O32      1.0000 0.20780  0.51100  0.03500  Biso   1.000  O
  C1       1.0000 0.92780  0.75000  0.56770  Biso   1.000  C
  C2       1.0000 0.99750  0.75000  0.49310  Biso   1.000  C
  C3       1.0000 0.08550  0.75000  0.50850  Biso   1.000  C
  C4       1.0000 0.12850  0.75000  0.60450  Biso   1.000  C
  C5       1.0000 0.17640  0.75000  0.27340  Biso   1.000  C
  C6       1.0000 0.10880  0.75000  0.34770  Biso   1.000  C
  C7       1.0000 0.02110  0.75000  0.33300  Biso   1.000  C
  C8       1.0000 0.97470  0.75000  0.23730  Biso   1.000  C
  N1       1.0000 0.96670  0.75000  0.40450  Biso   1.000  N
  N2       1.0000 0.14220  0.75000  0.43740  Biso   1.000  N
  O33      1.0000 0.84860  0.75000  0.53590  Biso   1.000  O
  O34      1.0000 0.95020  0.75000  0.65050  Biso   1.000  O
  O35      1.0000 0.02140  0.75000  0.16580  Biso   1.000  O
  O36      1.0000 0.89330  0.75000  0.23840  Biso   1.000  O
  C9       1.0000 0.57220  0.25000  0.06770  Biso   1.000  C
  C10      1.0000 0.50250  0.25000  0.99310  Biso   1.000  C
  C11      1.0000 0.41450  0.25000  0.00850  Biso   1.000  C
  C12      1.0000 0.37150  0.25000  0.10450  Biso   1.000  C
  C13      1.0000 0.32360  0.25000  0.77340  Biso   1.000  C
  C14      1.0000 0.39120  0.25000  0.84770  Biso   1.000  C
  C15      1.0000 0.47890  0.25000  0.83300  Biso   1.000  C
  C16      1.0000 0.52530  0.25000  0.73730  Biso   1.000  C
  N3       1.0000 0.53330  0.25000  0.90450  Biso   1.000  N
  N4       1.0000 0.35780  0.25000  0.93740  Biso   1.000  N
  O37      1.0000 0.65140  0.25000  0.03590  Biso   1.000  O
  O38      1.0000 0.54980  0.25000  0.15050  Biso   1.000  O
  O39      1.0000 0.47860  0.25000  0.66580  Biso   1.000  O
  O40      1.0000 0.60670  0.25000  0.73840  Biso   1.000  O
  C17      1.0000 0.07220  0.25000  0.43230  Biso   1.000  C
  C18      1.0000 0.00250  0.25000  0.50690  Biso   1.000  C
  C19      1.0000 0.91450  0.25000  0.49150  Biso   1.000  C
  C20      1.0000 0.87150  0.25000  0.39550  Biso   1.000  C
  C21      1.0000 0.82360  0.25000  0.72660  Biso   1.000  C
  C22      1.0000 0.89120  0.25000  0.65230  Biso   1.000  C
  C23      1.0000 0.97890  0.25000  0.66700  Biso   1.000  C
  C24      1.0000 0.02530  0.25000  0.76270  Biso   1.000  C
  N5       1.0000 0.03330  0.25000  0.59550  Biso   1.000  N
  N6       1.0000 0.85780  0.25000  0.56260  Biso   1.000  N
  O41      1.0000 0.15140  0.25000  0.46410  Biso   1.000  O
  O42      1.0000 0.04980  0.25000  0.34950  Biso   1.000  O
  O43      1.0000 0.97860  0.25000  0.83420  Biso   1.000  O
  O44      1.0000 0.10670  0.25000  0.76160  Biso   1.000  O
  C25      1.0000 0.42780  0.75000  0.93230  Biso   1.000  C
  C26      1.0000 0.49750  0.75000  0.00690  Biso   1.000  C
  C27      1.0000 0.58550  0.75000  0.99150  Biso   1.000  C
  C28      1.0000 0.62850  0.75000  0.89550  Biso   1.000  C
  C29      1.0000 0.67640  0.75000  0.22660  Biso   1.000  C
  C30      1.0000 0.60880  0.75000  0.15230  Biso   1.000  C
  C31      1.0000 0.52110  0.75000  0.16700  Biso   1.000  C
  C32      1.0000 0.47470  0.75000  0.26270  Biso   1.000  C
  N7       1.0000 0.46670  0.75000  0.09550  Biso   1.000  N
  N8       1.0000 0.64220  0.75000  0.06260  Biso   1.000  N
  O45      1.0000 0.34860  0.75000  0.96410  Biso   1.000  O
  O46      1.0000 0.45020  0.75000  0.84950  Biso   1.000  O
  O47      1.0000 0.52140  0.75000  0.33420  Biso   1.000  O
  O48      1.0000 0.39330  0.75000  0.26160  Biso   1.000  O
  Eu1      1.0000 0.19677  0.25000  0.62385  Biso   1.000  Eu
  K1       1.0000 0.26830  0.25000  0.31010  Biso   1.000  K
  Eu2      1.0000 0.30323  0.75000  0.12385  Biso   1.000  Eu
  K2       1.0000 0.23170  0.75000  0.81010  Biso   1.000  K
  Eu3      1.0000 0.80323  0.75000  0.37615  Biso   1.000  Eu
  K3       1.0000 0.73170  0.75000  0.68990  Biso   1.000  K
  Eu4      1.0000 0.69677  0.25000  0.87615  Biso   1.000  Eu
  K4       1.0000 0.76830  0.25000  0.18990  Biso   1.000  K
