data_image0
_cell_length_a       18.6108
_cell_length_b       18.6108
_cell_length_c       19.3734
_cell_angle_alpha    90
_cell_angle_beta     90
_cell_angle_gamma    120

_symmetry_space_group_name_H-M    "P 1"
_symmetry_int_tables_number       1

loop_
  _symmetry_equiv_pos_as_xyz
  'x, y, z'

loop_
  _atom_site_label
  _atom_site_occupancy
  _atom_site_fract_x
  _atom_site_fract_y
  _atom_site_fract_z
  _atom_site_thermal_displace_type
  _atom_site_B_iso_or_equiv
  _atom_site_type_symbol
  Li1      1.0000 0.16760  0.50670  0.14122  Biso   1.000  Li
  O1       1.0000 0.89797  0.34892  0.56221  Biso   1.000  O
  O2       1.0000 0.03250  0.42767  0.58573  Biso   1.000  O
  H1       1.0000 0.02810  0.43200  0.63620  Biso   1.000  H
  C1       1.0000 0.97028  0.38985  0.54400  Biso   1.000  C
  C2       1.0000 0.99288  0.40023  0.46915  Biso   1.000  C
  C3       1.0000 0.93101  0.35869  0.42070  Biso   1.000  C
  H2       1.0000 0.87540  0.32300  0.43510  Biso   1.000  H
  C4       1.0000 0.95061  0.36939  0.35100  Biso   1.000  C
  H3       1.0000 0.90780  0.34150  0.31790  Biso   1.000  H
  C5       1.0000 0.03220  0.42042  0.32865  Biso   1.000  C
  C6       1.0000 0.09463  0.46098  0.37775  Biso   1.000  C
  C7       1.0000 0.07450  0.45119  0.44784  Biso   1.000  C
  H4       1.0000 0.11680  0.47950  0.48120  Biso   1.000  H
  C8       1.0000 0.04913  0.43189  0.25189  Biso   1.000  C
  O3       1.0000 0.98692  0.40551  0.21347  Biso   1.000  O
  O4       1.0000 0.12232  0.46648  0.23151  Biso   1.000  O
  C9       1.0000 0.18580  0.51524  0.36142  Biso   1.000  C
  O5       1.0000 0.21701  0.59195  0.36965  Biso   1.000  O
  O6       1.0000 0.22604  0.47975  0.34665  Biso   1.000  O
  Li2      1.0000 0.49330  0.66090  0.14122  Biso   1.000  Li
  O7       1.0000 0.65108  0.54905  0.56221  Biso   1.000  O
  O8       1.0000 0.57233  0.60483  0.58573  Biso   1.000  O
  H5       1.0000 0.56800  0.59610  0.63620  Biso   1.000  H
  C10      1.0000 0.61015  0.58043  0.54400  Biso   1.000  C
  C11      1.0000 0.59977  0.59265  0.46915  Biso   1.000  C
  C12      1.0000 0.64131  0.57232  0.42070  Biso   1.000  C
  H6       1.0000 0.67700  0.55240  0.43510  Biso   1.000  H
  C13      1.0000 0.63061  0.58122  0.35100  Biso   1.000  C
  H7       1.0000 0.65850  0.56630  0.31790  Biso   1.000  H
  C14      1.0000 0.57958  0.61178  0.32865  Biso   1.000  C
  C15      1.0000 0.53902  0.63365  0.37775  Biso   1.000  C
  C16      1.0000 0.54881  0.62331  0.44784  Biso   1.000  C
  H8       1.0000 0.52050  0.63730  0.48120  Biso   1.000  H
  C17      1.0000 0.56811  0.61724  0.25189  Biso   1.000  C
  O9       1.0000 0.59449  0.58141  0.21347  Biso   1.000  O
  O10      1.0000 0.53352  0.65584  0.23151  Biso   1.000  O
  C18      1.0000 0.48476  0.67056  0.36142  Biso   1.000  C
  O11      1.0000 0.40805  0.62506  0.36965  Biso   1.000  O
  O12      1.0000 0.52025  0.74629  0.34665  Biso   1.000  O
  Li3      1.0000 0.33910  0.83240  0.14122  Biso   1.000  Li
  O13      1.0000 0.45095  0.10203  0.56221  Biso   1.000  O
  O14      1.0000 0.39517  0.96750  0.58573  Biso   1.000  O
  H9       1.0000 0.40390  0.97190  0.63620  Biso   1.000  H
  C19      1.0000 0.41957  0.02972  0.54400  Biso   1.000  C
  C20      1.0000 0.40735  0.00712  0.46915  Biso   1.000  C
  C21      1.0000 0.42768  0.06899  0.42070  Biso   1.000  C
  H10      1.0000 0.44760  0.12460  0.43510  Biso   1.000  H
  C22      1.0000 0.41878  0.04939  0.35100  Biso   1.000  C
  H11      1.0000 0.43370  0.09220  0.31790  Biso   1.000  H
  C23      1.0000 0.38822  0.96780  0.32865  Biso   1.000  C
  C24      1.0000 0.36635  0.90537  0.37775  Biso   1.000  C
  C25      1.0000 0.37669  0.92550  0.44784  Biso   1.000  C
  H12      1.0000 0.36270  0.88320  0.48120  Biso   1.000  H
  C26      1.0000 0.38276  0.95087  0.25189  Biso   1.000  C
  O15      1.0000 0.41859  0.01308  0.21347  Biso   1.000  O
  O16      1.0000 0.34416  0.87768  0.23151  Biso   1.000  O
  C27      1.0000 0.32944  0.81420  0.36142  Biso   1.000  C
  O17      1.0000 0.37494  0.78299  0.36965  Biso   1.000  O
  O18      1.0000 0.25371  0.77396  0.34665  Biso   1.000  O
  Li4      1.0000 0.49330  0.83240  0.35878  Biso   1.000  Li
  O19      1.0000 0.65108  0.10203  0.93779  Biso   1.000  O
  O20      1.0000 0.57233  0.96750  0.91427  Biso   1.000  O
  H13      1.0000 0.56800  0.97190  0.86380  Biso   1.000  H
  C28      1.0000 0.61015  0.02972  0.95600  Biso   1.000  C
  C29      1.0000 0.59977  0.00712  0.03085  Biso   1.000  C
  C30      1.0000 0.64131  0.06899  0.07930  Biso   1.000  C
  H14      1.0000 0.67700  0.12460  0.06490  Biso   1.000  H
  C31      1.0000 0.63061  0.04939  0.14900  Biso   1.000  C
  H15      1.0000 0.65850  0.09220  0.18210  Biso   1.000  H
  C32      1.0000 0.57958  0.96780  0.17135  Biso   1.000  C
  C33      1.0000 0.53902  0.90537  0.12225  Biso   1.000  C
  C34      1.0000 0.54881  0.92550  0.05216  Biso   1.000  C
  H16      1.0000 0.52050  0.88320  0.01880  Biso   1.000  H
  C35      1.0000 0.56811  0.95087  0.24811  Biso   1.000  C
  O21      1.0000 0.59449  0.01308  0.28653  Biso   1.000  O
  O22      1.0000 0.53352  0.87768  0.26849  Biso   1.000  O
  C36      1.0000 0.48476  0.81420  0.13858  Biso   1.000  C
  O23      1.0000 0.40805  0.78299  0.13035  Biso   1.000  O
  O24      1.0000 0.52025  0.77396  0.15335  Biso   1.000  O
  Li5      1.0000 0.33910  0.50670  0.35878  Biso   1.000  Li
  O25      1.0000 0.45095  0.34892  0.93779  Biso   1.000  O
  O26      1.0000 0.39517  0.42767  0.91427  Biso   1.000  O
  H17      1.0000 0.40390  0.43200  0.86380  Biso   1.000  H
  C37      1.0000 0.41957  0.38985  0.95600  Biso   1.000  C
  C38      1.0000 0.40735  0.40023  0.03085  Biso   1.000  C
  C39      1.0000 0.42768  0.35869  0.07930  Biso   1.000  C
  H18      1.0000 0.44760  0.32300  0.06490  Biso   1.000  H
  C40      1.0000 0.41878  0.36939  0.14900  Biso   1.000  C
  H19      1.0000 0.43370  0.34150  0.18210  Biso   1.000  H
  C41      1.0000 0.38822  0.42042  0.17135  Biso   1.000  C
  C42      1.0000 0.36635  0.46098  0.12225  Biso   1.000  C
  C43      1.0000 0.37669  0.45119  0.05216  Biso   1.000  C
  H20      1.0000 0.36270  0.47950  0.01880  Biso   1.000  H
  C44      1.0000 0.38276  0.43189  0.24811  Biso   1.000  C
  O27      1.0000 0.41859  0.40551  0.28653  Biso   1.000  O
  O28      1.0000 0.34416  0.46648  0.26849  Biso   1.000  O
  C45      1.0000 0.32944  0.51524  0.13858  Biso   1.000  C
  O29      1.0000 0.37494  0.59195  0.13035  Biso   1.000  O
  O30      1.0000 0.25371  0.47975  0.15335  Biso   1.000  O
  Li6      1.0000 0.16760  0.66090  0.35878  Biso   1.000  Li
  O31      1.0000 0.89797  0.54905  0.93779  Biso   1.000  O
  O32      1.0000 0.03250  0.60483  0.91427  Biso   1.000  O
  H21      1.0000 0.02810  0.59610  0.86380  Biso   1.000  H
  C46      1.0000 0.97028  0.58043  0.95600  Biso   1.000  C
  C47      1.0000 0.99288  0.59265  0.03085  Biso   1.000  C
  C48      1.0000 0.93101  0.57232  0.07930  Biso   1.000  C
  H22      1.0000 0.87540  0.55240  0.06490  Biso   1.000  H
  C49      1.0000 0.95061  0.58122  0.14900  Biso   1.000  C
  H23      1.0000 0.90780  0.56630  0.18210  Biso   1.000  H
  C50      1.0000 0.03220  0.61178  0.17135  Biso   1.000  C
  C51      1.0000 0.09463  0.63365  0.12225  Biso   1.000  C
  C52      1.0000 0.07450  0.62331  0.05216  Biso   1.000  C
  H24      1.0000 0.11680  0.63730  0.01880  Biso   1.000  H
  C53      1.0000 0.04913  0.61724  0.24811  Biso   1.000  C
  O33      1.0000 0.98692  0.58141  0.28653  Biso   1.000  O
  O34      1.0000 0.12232  0.65584  0.26849  Biso   1.000  O
  C54      1.0000 0.18580  0.67056  0.13858  Biso   1.000  C
  O35      1.0000 0.21701  0.62506  0.13035  Biso   1.000  O
  O36      1.0000 0.22604  0.74629  0.15335  Biso   1.000  O
  Li7      1.0000 0.83240  0.49330  0.85878  Biso   1.000  Li
  O37      1.0000 0.10203  0.65108  0.43779  Biso   1.000  O
  O38      1.0000 0.96750  0.57233  0.41427  Biso   1.000  O
  H25      1.0000 0.97190  0.56800  0.36380  Biso   1.000  H
  C55      1.0000 0.02972  0.61015  0.45600  Biso   1.000  C
  C56      1.0000 0.00712  0.59977  0.53085  Biso   1.000  C
  C57      1.0000 0.06899  0.64131  0.57930  Biso   1.000  C
  H26      1.0000 0.12460  0.67700  0.56490  Biso   1.000  H
  C58      1.0000 0.04939  0.63061  0.64900  Biso   1.000  C
  H27      1.0000 0.09220  0.65850  0.68210  Biso   1.000  H
  C59      1.0000 0.96780  0.57958  0.67135  Biso   1.000  C
  C60      1.0000 0.90537  0.53902  0.62225  Biso   1.000  C
  C61      1.0000 0.92550  0.54881  0.55216  Biso   1.000  C
  H28      1.0000 0.88320  0.52050  0.51880  Biso   1.000  H
  C62      1.0000 0.95087  0.56811  0.74811  Biso   1.000  C
  O39      1.0000 0.01308  0.59449  0.78653  Biso   1.000  O
  O40      1.0000 0.87768  0.53352  0.76849  Biso   1.000  O
  C63      1.0000 0.81420  0.48476  0.63858  Biso   1.000  C
  O41      1.0000 0.78299  0.40805  0.63035  Biso   1.000  O
  O42      1.0000 0.77396  0.52025  0.65335  Biso   1.000  O
  Li8      1.0000 0.50670  0.33910  0.85878  Biso   1.000  Li
  O43      1.0000 0.34892  0.45095  0.43779  Biso   1.000  O
  O44      1.0000 0.42767  0.39517  0.41427  Biso   1.000  O
  H29      1.0000 0.43200  0.40390  0.36380  Biso   1.000  H
  C64      1.0000 0.38985  0.41957  0.45600  Biso   1.000  C
  C65      1.0000 0.40023  0.40735  0.53085  Biso   1.000  C
  C66      1.0000 0.35869  0.42768  0.57930  Biso   1.000  C
  H30      1.0000 0.32300  0.44760  0.56490  Biso   1.000  H
  C67      1.0000 0.36939  0.41878  0.64900  Biso   1.000  C
  H31      1.0000 0.34150  0.43370  0.68210  Biso   1.000  H
  C68      1.0000 0.42042  0.38822  0.67135  Biso   1.000  C
  C69      1.0000 0.46098  0.36635  0.62225  Biso   1.000  C
  C70      1.0000 0.45119  0.37669  0.55216  Biso   1.000  C
  H32      1.0000 0.47950  0.36270  0.51880  Biso   1.000  H
  C71      1.0000 0.43189  0.38276  0.74811  Biso   1.000  C
  O45      1.0000 0.40551  0.41859  0.78653  Biso   1.000  O
  O46      1.0000 0.46648  0.34416  0.76849  Biso   1.000  O
  C72      1.0000 0.51524  0.32944  0.63858  Biso   1.000  C
  O47      1.0000 0.59195  0.37494  0.63035  Biso   1.000  O
  O48      1.0000 0.47975  0.25371  0.65335  Biso   1.000  O
  Li9      1.0000 0.66090  0.16760  0.85878  Biso   1.000  Li
  O49      1.0000 0.54905  0.89797  0.43779  Biso   1.000  O
  O50      1.0000 0.60483  0.03250  0.41427  Biso   1.000  O
  H33      1.0000 0.59610  0.02810  0.36380  Biso   1.000  H
  C73      1.0000 0.58043  0.97028  0.45600  Biso   1.000  C
  C74      1.0000 0.59265  0.99288  0.53085  Biso   1.000  C
  C75      1.0000 0.57232  0.93101  0.57930  Biso   1.000  C
  H34      1.0000 0.55240  0.87540  0.56490  Biso   1.000  H
  C76      1.0000 0.58122  0.95061  0.64900  Biso   1.000  C
  H35      1.0000 0.56630  0.90780  0.68210  Biso   1.000  H
  C77      1.0000 0.61178  0.03220  0.67135  Biso   1.000  C
  C78      1.0000 0.63365  0.09463  0.62225  Biso   1.000  C
  C79      1.0000 0.62331  0.07450  0.55216  Biso   1.000  C
  H36      1.0000 0.63730  0.11680  0.51880  Biso   1.000  H
  C80      1.0000 0.61724  0.04913  0.74811  Biso   1.000  C
  O51      1.0000 0.58141  0.98692  0.78653  Biso   1.000  O
  O52      1.0000 0.65584  0.12232  0.76849  Biso   1.000  O
  C81      1.0000 0.67056  0.18580  0.63858  Biso   1.000  C
  O53      1.0000 0.62506  0.21701  0.63035  Biso   1.000  O
  O54      1.0000 0.74629  0.22604  0.65335  Biso   1.000  O
  Li10     1.0000 0.50670  0.16760  0.64122  Biso   1.000  Li
  O55      1.0000 0.34892  0.89797  0.06221  Biso   1.000  O
  O56      1.0000 0.42767  0.03250  0.08573  Biso   1.000  O
  H37      1.0000 0.43200  0.02810  0.13620  Biso   1.000  H
  C82      1.0000 0.38985  0.97028  0.04400  Biso   1.000  C
  C83      1.0000 0.40023  0.99288  0.96915  Biso   1.000  C
  C84      1.0000 0.35869  0.93101  0.92070  Biso   1.000  C
  H38      1.0000 0.32300  0.87540  0.93510  Biso   1.000  H
  C85      1.0000 0.36939  0.95061  0.85100  Biso   1.000  C
  H39      1.0000 0.34150  0.90780  0.81790  Biso   1.000  H
  C86      1.0000 0.42042  0.03220  0.82865  Biso   1.000  C
  C87      1.0000 0.46098  0.09463  0.87775  Biso   1.000  C
  C88      1.0000 0.45119  0.07450  0.94784  Biso   1.000  C
  H40      1.0000 0.47950  0.11680  0.98120  Biso   1.000  H
  C89      1.0000 0.43189  0.04913  0.75189  Biso   1.000  C
  O57      1.0000 0.40551  0.98692  0.71347  Biso   1.000  O
  O58      1.0000 0.46648  0.12232  0.73151  Biso   1.000  O
  C90      1.0000 0.51524  0.18580  0.86142  Biso   1.000  C
  O59      1.0000 0.59195  0.21701  0.86965  Biso   1.000  O
  O60      1.0000 0.47975  0.22604  0.84665  Biso   1.000  O
  Li11     1.0000 0.66090  0.49330  0.64122  Biso   1.000  Li
  O61      1.0000 0.54905  0.65108  0.06221  Biso   1.000  O
  O62      1.0000 0.60483  0.57233  0.08573  Biso   1.000  O
  H41      1.0000 0.59610  0.56800  0.13620  Biso   1.000  H
  C91      1.0000 0.58043  0.61015  0.04400  Biso   1.000  C
  C92      1.0000 0.59265  0.59977  0.96915  Biso   1.000  C
  C93      1.0000 0.57232  0.64131  0.92070  Biso   1.000  C
  H42      1.0000 0.55240  0.67700  0.93510  Biso   1.000  H
  C94      1.0000 0.58122  0.63061  0.85100  Biso   1.000  C
  H43      1.0000 0.56630  0.65850  0.81790  Biso   1.000  H
  C95      1.0000 0.61178  0.57958  0.82865  Biso   1.000  C
  C96      1.0000 0.63365  0.53902  0.87775  Biso   1.000  C
  C97      1.0000 0.62331  0.54881  0.94784  Biso   1.000  C
  H44      1.0000 0.63730  0.52050  0.98120  Biso   1.000  H
  C98      1.0000 0.61724  0.56811  0.75189  Biso   1.000  C
  O63      1.0000 0.58141  0.59449  0.71347  Biso   1.000  O
  O64      1.0000 0.65584  0.53352  0.73151  Biso   1.000  O
  C99      1.0000 0.67056  0.48476  0.86142  Biso   1.000  C
  O65      1.0000 0.62506  0.40805  0.86965  Biso   1.000  O
  O66      1.0000 0.74629  0.52025  0.84665  Biso   1.000  O
  Li12     1.0000 0.83240  0.33910  0.64122  Biso   1.000  Li
  O67      1.0000 0.10203  0.45095  0.06221  Biso   1.000  O
  O68      1.0000 0.96750  0.39517  0.08573  Biso   1.000  O
  H45      1.0000 0.97190  0.40390  0.13620  Biso   1.000  H
  C100     1.0000 0.02972  0.41957  0.04400  Biso   1.000  C
  C101     1.0000 0.00712  0.40735  0.96915  Biso   1.000  C
  C102     1.0000 0.06899  0.42768  0.92070  Biso   1.000  C
  H46      1.0000 0.12460  0.44760  0.93510  Biso   1.000  H
  C103     1.0000 0.04939  0.41878  0.85100  Biso   1.000  C
  H47      1.0000 0.09220  0.43370  0.81790  Biso   1.000  H
  C104     1.0000 0.96780  0.38822  0.82865  Biso   1.000  C
  C105     1.0000 0.90537  0.36635  0.87775  Biso   1.000  C
  C106     1.0000 0.92550  0.37669  0.94784  Biso   1.000  C
  H48      1.0000 0.88320  0.36270  0.98120  Biso   1.000  H
  C107     1.0000 0.95087  0.38276  0.75189  Biso   1.000  C
  O69      1.0000 0.01308  0.41859  0.71347  Biso   1.000  O
  O70      1.0000 0.87768  0.34416  0.73151  Biso   1.000  O
  C108     1.0000 0.81420  0.32944  0.86142  Biso   1.000  C
  O71      1.0000 0.78299  0.37494  0.86965  Biso   1.000  O
  O72      1.0000 0.77396  0.25371  0.84665  Biso   1.000  O
  Li13     1.0000 0.21785  0.43570  0.25000  Biso   1.000  Li
  Li14     1.0000 0.56430  0.78215  0.25000  Biso   1.000  Li
  Li15     1.0000 0.21785  0.78215  0.25000  Biso   1.000  Li
  Li16     1.0000 0.78215  0.56430  0.75000  Biso   1.000  Li
  Li17     1.0000 0.43570  0.21785  0.75000  Biso   1.000  Li
  Li18     1.0000 0.78215  0.21785  0.75000  Biso   1.000  Li
  Li19     1.0000 0.33333  0.66667  0.34640  Biso   1.000  Li
  Li20     1.0000 0.33333  0.66667  0.39200  Biso   1.000  Li
  Li21     1.0000 0.33333  0.66667  0.15360  Biso   1.000  Li
  Li22     1.0000 0.33333  0.66667  0.10800  Biso   1.000  Li
  Li23     1.0000 0.66667  0.33333  0.65360  Biso   1.000  Li
  Li24     1.0000 0.66667  0.33333  0.60800  Biso   1.000  Li
  Li25     1.0000 0.66667  0.33333  0.84640  Biso   1.000  Li
  Li26     1.0000 0.66667  0.33333  0.89200  Biso   1.000  Li
  O73      1.0000 0.33333  0.66667  0.25000  Biso   1.000  O
  O74      1.0000 0.66667  0.33333  0.75000  Biso   1.000  O
