data_image0
_cell_length_a       22.2807
_cell_length_b       22.2807
_cell_length_c       12.6044
_cell_angle_alpha    90
_cell_angle_beta     90
_cell_angle_gamma    120

_symmetry_space_group_name_H-M    "P 1"
_symmetry_int_tables_number       1

loop_
  _symmetry_equiv_pos_as_xyz
  'x, y, z'

loop_
  _atom_site_label
  _atom_site_occupancy
  _atom_site_fract_x
  _atom_site_fract_y
  _atom_site_fract_z
  _atom_site_thermal_displace_type
  _atom_site_B_iso_or_equiv
  _atom_site_type_symbol
  Cu1      1.0000 0.20851  0.36943  0.83003  Biso   1.000  Cu
  N1       1.0000 0.15230  0.29670  0.52160  Biso   1.000  N
  N2       1.0000 0.19480  0.33150  0.68300  Biso   1.000  N
  N3       1.0000 0.17140  0.37010  0.15040  Biso   1.000  N
  N4       1.0000 0.21060  0.38580  0.98520  Biso   1.000  N
  N5       1.0000 0.03840  0.39850  0.81240  Biso   1.000  N
  N6       1.0000 0.11530  0.36410  0.82200  Biso   1.000  N
  N7       1.0000 0.01940  0.58760  0.76530  Biso   1.000  N
  N8       1.0000 0.08330  0.69200  0.82830  Biso   1.000  N
  C1       1.0000 0.11350  0.28920  0.42420  Biso   1.000  C
  H1       1.0000 0.08150  0.30600  0.43580  Biso   1.000  H
  H2       1.0000 0.08690  0.24060  0.40470  Biso   1.000  H
  C2       1.0000 0.16340  0.33020  0.33460  Biso   1.000  C
  H3       1.0000 0.19680  0.37610  0.36000  Biso   1.000  H
  H4       1.0000 0.18850  0.30710  0.31280  Biso   1.000  H
  C3       1.0000 0.12520  0.33650  0.24110  Biso   1.000  C
  H5       1.0000 0.08880  0.29080  0.22030  Biso   1.000  H
  H6       1.0000 0.10370  0.36340  0.26150  Biso   1.000  H
  C4       1.0000 0.15760  0.33740  0.60480  Biso   1.000  C
  H7       1.0000 0.13810  0.36570  0.60720  Biso   1.000  H
  C5       1.0000 0.20970  0.28210  0.64700  Biso   1.000  C
  H8       1.0000 0.23290  0.26450  0.68580  Biso   1.000  H
  C6       1.0000 0.18560  0.26280  0.54600  Biso   1.000  C
  H9       1.0000 0.19120  0.23210  0.50290  Biso   1.000  H
  C7       1.0000 0.16090  0.34350  0.04970  Biso   1.000  C
  H10      1.0000 0.12340  0.30120  0.02950  Biso   1.000  H
  C8       1.0000 0.25510  0.44140  0.04300  Biso   1.000  C
  H11      1.0000 0.29500  0.47980  0.01760  Biso   1.000  H
  C9       1.0000 0.23120  0.43170  0.14720  Biso   1.000  C
  H12      1.0000 0.25230  0.46190  0.20370  Biso   1.000  H
  C10      1.0000 0.00810  0.44400  0.80570  Biso   1.000  C
  H13      1.0000 0.02360  0.47580  0.86540  Biso   1.000  H
  H14      1.0000 0.95790  0.41630  0.80880  Biso   1.000  H
  C11      1.0000 0.02920  0.48370  0.70510  Biso   1.000  C
  H15      1.0000 0.01600  0.45180  0.64590  Biso   1.000  H
  H16      1.0000 0.07920  0.51310  0.70400  Biso   1.000  H
  C12      1.0000 0.99530  0.52870  0.69270  Biso   1.000  C
  H17      1.0000 0.00300  0.54620  0.62060  Biso   1.000  H
  H18      1.0000 0.94570  0.49920  0.70220  Biso   1.000  H
  C13      1.0000 0.10330  0.41550  0.82990  Biso   1.000  C
  H19      1.0000 0.13770  0.46040  0.84660  Biso   1.000  H
  C14      1.0000 0.05250  0.30830  0.80300  Biso   1.000  C
  H20      1.0000 0.04250  0.26260  0.79690  Biso   1.000  H
  C15      1.0000 0.00620  0.33150  0.79440  Biso   1.000  C
  H21      1.0000 0.95940  0.30410  0.77840  Biso   1.000  H
  C16      1.0000 0.07470  0.65010  0.74800  Biso   1.000  C
  H22      1.0000 0.10300  0.66240  0.68830  Biso   1.000  H
  C17      1.0000 0.02950  0.65370  0.89570  Biso   1.000  C
  H23      1.0000 0.02140  0.66970  0.95920  Biso   1.000  H
  C18      1.0000 0.99060  0.59010  0.85690  Biso   1.000  C
  H24      1.0000 0.95090  0.55420  0.88770  Biso   1.000  H
  Cu2      1.0000 0.63057  0.83908  0.83003  Biso   1.000  Cu
  N9       1.0000 0.70330  0.85560  0.52160  Biso   1.000  N
  N10      1.0000 0.66850  0.86330  0.68300  Biso   1.000  N
  N11      1.0000 0.62990  0.80130  0.15040  Biso   1.000  N
  N12      1.0000 0.61420  0.82480  0.98520  Biso   1.000  N
  N13      1.0000 0.60150  0.63990  0.81240  Biso   1.000  N
  N14      1.0000 0.63590  0.75120  0.82200  Biso   1.000  N
  N15      1.0000 0.41240  0.43180  0.76530  Biso   1.000  N
  N16      1.0000 0.30800  0.39130  0.82830  Biso   1.000  N
  C19      1.0000 0.71080  0.82430  0.42420  Biso   1.000  C
  H25      1.0000 0.69400  0.77550  0.43580  Biso   1.000  H
  H26      1.0000 0.75940  0.84630  0.40470  Biso   1.000  H
  C20      1.0000 0.66980  0.83320  0.33460  Biso   1.000  C
  H27      1.0000 0.62390  0.82070  0.36000  Biso   1.000  H
  H28      1.0000 0.69290  0.88140  0.31280  Biso   1.000  H
  C21      1.0000 0.66350  0.78870  0.24110  Biso   1.000  C
  H29      1.0000 0.70920  0.79800  0.22030  Biso   1.000  H
  H30      1.0000 0.63660  0.74030  0.26150  Biso   1.000  H
  C22      1.0000 0.66260  0.82020  0.60480  Biso   1.000  C
  H31      1.0000 0.63430  0.77240  0.60720  Biso   1.000  H
  C23      1.0000 0.71790  0.92760  0.64700  Biso   1.000  C
  H32      1.0000 0.73550  0.96840  0.68580  Biso   1.000  H
  C24      1.0000 0.73720  0.92280  0.54600  Biso   1.000  C
  H33      1.0000 0.76790  0.95910  0.50290  Biso   1.000  H
  C25      1.0000 0.65650  0.81740  0.04970  Biso   1.000  C
  H34      1.0000 0.69880  0.82220  0.02950  Biso   1.000  H
  C26      1.0000 0.55860  0.81370  0.04300  Biso   1.000  C
  H35      1.0000 0.52020  0.81520  0.01760  Biso   1.000  H
  C27      1.0000 0.56830  0.79950  0.14720  Biso   1.000  C
  H36      1.0000 0.53810  0.79040  0.20370  Biso   1.000  H
  C28      1.0000 0.55600  0.56410  0.80570  Biso   1.000  C
  H37      1.0000 0.52420  0.54780  0.86540  Biso   1.000  H
  H38      1.0000 0.58370  0.54160  0.80880  Biso   1.000  H
  C29      1.0000 0.51630  0.54550  0.70510  Biso   1.000  C
  H39      1.0000 0.54820  0.56420  0.64590  Biso   1.000  H
  H40      1.0000 0.48690  0.56610  0.70400  Biso   1.000  H
  C30      1.0000 0.47130  0.46660  0.69270  Biso   1.000  C
  H41      1.0000 0.45380  0.45680  0.62060  Biso   1.000  H
  H42      1.0000 0.50080  0.44650  0.70220  Biso   1.000  H
  C31      1.0000 0.58450  0.68780  0.82990  Biso   1.000  C
  H43      1.0000 0.53960  0.67730  0.84660  Biso   1.000  H
  C32      1.0000 0.69170  0.74420  0.80300  Biso   1.000  C
  H44      1.0000 0.73740  0.77990  0.79690  Biso   1.000  H
  C33      1.0000 0.66850  0.67470  0.79440  Biso   1.000  C
  H45      1.0000 0.69590  0.65530  0.77840  Biso   1.000  H
  C34      1.0000 0.34990  0.42460  0.74800  Biso   1.000  C
  H46      1.0000 0.33760  0.44060  0.68830  Biso   1.000  H
  C35      1.0000 0.34630  0.37580  0.89570  Biso   1.000  C
  H47      1.0000 0.33030  0.35170  0.95920  Biso   1.000  H
  C36      1.0000 0.40990  0.40050  0.85690  Biso   1.000  C
  H48      1.0000 0.44580  0.39670  0.88770  Biso   1.000  H
  Cu3      1.0000 0.16092  0.79149  0.83003  Biso   1.000  Cu
  N17      1.0000 0.14440  0.84770  0.52160  Biso   1.000  N
  N18      1.0000 0.13670  0.80520  0.68300  Biso   1.000  N
  N19      1.0000 0.19870  0.82860  0.15040  Biso   1.000  N
  N20      1.0000 0.17520  0.78940  0.98520  Biso   1.000  N
  N21      1.0000 0.36010  0.96160  0.81240  Biso   1.000  N
  N22      1.0000 0.24880  0.88470  0.82200  Biso   1.000  N
  N23      1.0000 0.56820  0.98060  0.76530  Biso   1.000  N
  N24      1.0000 0.60870  0.91670  0.82830  Biso   1.000  N
  C37      1.0000 0.17570  0.88650  0.42420  Biso   1.000  C
  H49      1.0000 0.22450  0.91850  0.43580  Biso   1.000  H
  H50      1.0000 0.15370  0.91310  0.40470  Biso   1.000  H
  C38      1.0000 0.16680  0.83660  0.33460  Biso   1.000  C
  H51      1.0000 0.17930  0.80320  0.36000  Biso   1.000  H
  H52      1.0000 0.11860  0.81150  0.31280  Biso   1.000  H
  C39      1.0000 0.21130  0.87480  0.24110  Biso   1.000  C
  H53      1.0000 0.20200  0.91120  0.22030  Biso   1.000  H
  H54      1.0000 0.25970  0.89630  0.26150  Biso   1.000  H
  C40      1.0000 0.17980  0.84240  0.60480  Biso   1.000  C
  H55      1.0000 0.22760  0.86190  0.60720  Biso   1.000  H
  C41      1.0000 0.07240  0.79030  0.64700  Biso   1.000  C
  H56      1.0000 0.03160  0.76710  0.68580  Biso   1.000  H
  C42      1.0000 0.07720  0.81440  0.54600  Biso   1.000  C
  H57      1.0000 0.04090  0.80880  0.50290  Biso   1.000  H
  C43      1.0000 0.18260  0.83910  0.04970  Biso   1.000  C
  H58      1.0000 0.17780  0.87660  0.02950  Biso   1.000  H
  C44      1.0000 0.18630  0.74490  0.04300  Biso   1.000  C
  H59      1.0000 0.18480  0.70500  0.01760  Biso   1.000  H
  C45      1.0000 0.20050  0.76880  0.14720  Biso   1.000  C
  H60      1.0000 0.20960  0.74770  0.20370  Biso   1.000  H
  C46      1.0000 0.43590  0.99190  0.80570  Biso   1.000  C
  H61      1.0000 0.45220  0.97640  0.86540  Biso   1.000  H
  H62      1.0000 0.45840  0.04210  0.80880  Biso   1.000  H
  C47      1.0000 0.45450  0.97080  0.70510  Biso   1.000  C
  H63      1.0000 0.43580  0.98400  0.64590  Biso   1.000  H
  H64      1.0000 0.43390  0.92080  0.70400  Biso   1.000  H
  C48      1.0000 0.53340  0.00470  0.69270  Biso   1.000  C
  H65      1.0000 0.54320  0.99700  0.62060  Biso   1.000  H
  H66      1.0000 0.55350  0.05430  0.70220  Biso   1.000  H
  C49      1.0000 0.31220  0.89670  0.82990  Biso   1.000  C
  H67      1.0000 0.32270  0.86230  0.84660  Biso   1.000  H
  C50      1.0000 0.25580  0.94750  0.80300  Biso   1.000  C
  H68      1.0000 0.22010  0.95750  0.79690  Biso   1.000  H
  C51      1.0000 0.32530  0.99380  0.79440  Biso   1.000  C
  H69      1.0000 0.34470  0.04060  0.77840  Biso   1.000  H
  C52      1.0000 0.57540  0.92530  0.74800  Biso   1.000  C
  H70      1.0000 0.55940  0.89700  0.68830  Biso   1.000  H
  C53      1.0000 0.62420  0.97050  0.89570  Biso   1.000  C
  H71      1.0000 0.64830  0.97860  0.95920  Biso   1.000  H
  C54      1.0000 0.59950  0.00940  0.85690  Biso   1.000  C
  H72      1.0000 0.60330  0.04910  0.88770  Biso   1.000  H
  Cu4      1.0000 0.79149  0.63057  0.16997  Biso   1.000  Cu
  N25      1.0000 0.84770  0.70330  0.47840  Biso   1.000  N
  N26      1.0000 0.80520  0.66850  0.31700  Biso   1.000  N
  N27      1.0000 0.82860  0.62990  0.84960  Biso   1.000  N
  N28      1.0000 0.78940  0.61420  0.01480  Biso   1.000  N
  N29      1.0000 0.96160  0.60150  0.18760  Biso   1.000  N
  N30      1.0000 0.88470  0.63590  0.17800  Biso   1.000  N
  N31      1.0000 0.98060  0.41240  0.23470  Biso   1.000  N
  N32      1.0000 0.91670  0.30800  0.17170  Biso   1.000  N
  C55      1.0000 0.88650  0.71080  0.57580  Biso   1.000  C
  H73      1.0000 0.91850  0.69400  0.56420  Biso   1.000  H
  H74      1.0000 0.91310  0.75940  0.59530  Biso   1.000  H
  C56      1.0000 0.83660  0.66980  0.66540  Biso   1.000  C
  H75      1.0000 0.80320  0.62390  0.64000  Biso   1.000  H
  H76      1.0000 0.81150  0.69290  0.68720  Biso   1.000  H
  C57      1.0000 0.87480  0.66350  0.75890  Biso   1.000  C
  H77      1.0000 0.91120  0.70920  0.77970  Biso   1.000  H
  H78      1.0000 0.89630  0.63660  0.73850  Biso   1.000  H
  C58      1.0000 0.84240  0.66260  0.39520  Biso   1.000  C
  H79      1.0000 0.86190  0.63430  0.39280  Biso   1.000  H
  C59      1.0000 0.79030  0.71790  0.35300  Biso   1.000  C
  H80      1.0000 0.76710  0.73550  0.31420  Biso   1.000  H
  C60      1.0000 0.81440  0.73720  0.45400  Biso   1.000  C
  H81      1.0000 0.80880  0.76790  0.49710  Biso   1.000  H
  C61      1.0000 0.83910  0.65650  0.95030  Biso   1.000  C
  H82      1.0000 0.87660  0.69880  0.97050  Biso   1.000  H
  C62      1.0000 0.74490  0.55860  0.95700  Biso   1.000  C
  H83      1.0000 0.70500  0.52020  0.98240  Biso   1.000  H
  C63      1.0000 0.76880  0.56830  0.85280  Biso   1.000  C
  H84      1.0000 0.74770  0.53810  0.79630  Biso   1.000  H
  C64      1.0000 0.99190  0.55600  0.19430  Biso   1.000  C
  H85      1.0000 0.97640  0.52420  0.13460  Biso   1.000  H
  H86      1.0000 0.04210  0.58370  0.19120  Biso   1.000  H
  C65      1.0000 0.97080  0.51630  0.29490  Biso   1.000  C
  H87      1.0000 0.98400  0.54820  0.35410  Biso   1.000  H
  H88      1.0000 0.92080  0.48690  0.29600  Biso   1.000  H
  C66      1.0000 0.00470  0.47130  0.30730  Biso   1.000  C
  H89      1.0000 0.99700  0.45380  0.37940  Biso   1.000  H
  H90      1.0000 0.05430  0.50080  0.29780  Biso   1.000  H
  C67      1.0000 0.89670  0.58450  0.17010  Biso   1.000  C
  H91      1.0000 0.86230  0.53960  0.15340  Biso   1.000  H
  C68      1.0000 0.94750  0.69170  0.19700  Biso   1.000  C
  H92      1.0000 0.95750  0.73740  0.20310  Biso   1.000  H
  C69      1.0000 0.99380  0.66850  0.20560  Biso   1.000  C
  H93      1.0000 0.04060  0.69590  0.22160  Biso   1.000  H
  C70      1.0000 0.92530  0.34990  0.25200  Biso   1.000  C
  H94      1.0000 0.89700  0.33760  0.31170  Biso   1.000  H
  C71      1.0000 0.97050  0.34630  0.10430  Biso   1.000  C
  H95      1.0000 0.97860  0.33030  0.04080  Biso   1.000  H
  C72      1.0000 0.00940  0.40990  0.14310  Biso   1.000  C
  H96      1.0000 0.04910  0.44580  0.11230  Biso   1.000  H
  Cu5      1.0000 0.36943  0.16092  0.16997  Biso   1.000  Cu
  N33      1.0000 0.29670  0.14440  0.47840  Biso   1.000  N
  N34      1.0000 0.33150  0.13670  0.31700  Biso   1.000  N
  N35      1.0000 0.37010  0.19870  0.84960  Biso   1.000  N
  N36      1.0000 0.38580  0.17520  0.01480  Biso   1.000  N
  N37      1.0000 0.39850  0.36010  0.18760  Biso   1.000  N
  N38      1.0000 0.36410  0.24880  0.17800  Biso   1.000  N
  N39      1.0000 0.58760  0.56820  0.23470  Biso   1.000  N
  N40      1.0000 0.69200  0.60870  0.17170  Biso   1.000  N
  C73      1.0000 0.28920  0.17570  0.57580  Biso   1.000  C
  H97      1.0000 0.30600  0.22450  0.56420  Biso   1.000  H
  H98      1.0000 0.24060  0.15370  0.59530  Biso   1.000  H
  C74      1.0000 0.33020  0.16680  0.66540  Biso   1.000  C
  H99      1.0000 0.37610  0.17930  0.64000  Biso   1.000  H
  H100     1.0000 0.30710  0.11860  0.68720  Biso   1.000  H
  C75      1.0000 0.33650  0.21130  0.75890  Biso   1.000  C
  H101     1.0000 0.29080  0.20200  0.77970  Biso   1.000  H
  H102     1.0000 0.36340  0.25970  0.73850  Biso   1.000  H
  C76      1.0000 0.33740  0.17980  0.39520  Biso   1.000  C
  H103     1.0000 0.36570  0.22760  0.39280  Biso   1.000  H
  C77      1.0000 0.28210  0.07240  0.35300  Biso   1.000  C
  H104     1.0000 0.26450  0.03160  0.31420  Biso   1.000  H
  C78      1.0000 0.26280  0.07720  0.45400  Biso   1.000  C
  H105     1.0000 0.23210  0.04090  0.49710  Biso   1.000  H
  C79      1.0000 0.34350  0.18260  0.95030  Biso   1.000  C
  H106     1.0000 0.30120  0.17780  0.97050  Biso   1.000  H
  C80      1.0000 0.44140  0.18630  0.95700  Biso   1.000  C
  H107     1.0000 0.47980  0.18480  0.98240  Biso   1.000  H
  C81      1.0000 0.43170  0.20050  0.85280  Biso   1.000  C
  H108     1.0000 0.46190  0.20960  0.79630  Biso   1.000  H
  C82      1.0000 0.44400  0.43590  0.19430  Biso   1.000  C
  H109     1.0000 0.47580  0.45220  0.13460  Biso   1.000  H
  H110     1.0000 0.41630  0.45840  0.19120  Biso   1.000  H
  C83      1.0000 0.48370  0.45450  0.29490  Biso   1.000  C
  H111     1.0000 0.45180  0.43580  0.35410  Biso   1.000  H
  H112     1.0000 0.51310  0.43390  0.29600  Biso   1.000  H
  C84      1.0000 0.52870  0.53340  0.30730  Biso   1.000  C
  H113     1.0000 0.54620  0.54320  0.37940  Biso   1.000  H
  H114     1.0000 0.49920  0.55350  0.29780  Biso   1.000  H
  C85      1.0000 0.41550  0.31220  0.17010  Biso   1.000  C
  H115     1.0000 0.46040  0.32270  0.15340  Biso   1.000  H
  C86      1.0000 0.30830  0.25580  0.19700  Biso   1.000  C
  H116     1.0000 0.26260  0.22010  0.20310  Biso   1.000  H
  C87      1.0000 0.33150  0.32530  0.20560  Biso   1.000  C
  H117     1.0000 0.30410  0.34470  0.22160  Biso   1.000  H
  C88      1.0000 0.65010  0.57540  0.25200  Biso   1.000  C
  H118     1.0000 0.66240  0.55940  0.31170  Biso   1.000  H
  C89      1.0000 0.65370  0.62420  0.10430  Biso   1.000  C
  H119     1.0000 0.66970  0.64830  0.04080  Biso   1.000  H
  C90      1.0000 0.59010  0.59950  0.14310  Biso   1.000  C
  H120     1.0000 0.55420  0.60330  0.11230  Biso   1.000  H
  Cu6      1.0000 0.83908  0.20851  0.16997  Biso   1.000  Cu
  N41      1.0000 0.85560  0.15230  0.47840  Biso   1.000  N
  N42      1.0000 0.86330  0.19480  0.31700  Biso   1.000  N
  N43      1.0000 0.80130  0.17140  0.84960  Biso   1.000  N
  N44      1.0000 0.82480  0.21060  0.01480  Biso   1.000  N
  N45      1.0000 0.63990  0.03840  0.18760  Biso   1.000  N
  N46      1.0000 0.75120  0.11530  0.17800  Biso   1.000  N
  N47      1.0000 0.43180  0.01940  0.23470  Biso   1.000  N
  N48      1.0000 0.39130  0.08330  0.17170  Biso   1.000  N
  C91      1.0000 0.82430  0.11350  0.57580  Biso   1.000  C
  H121     1.0000 0.77550  0.08150  0.56420  Biso   1.000  H
  H122     1.0000 0.84630  0.08690  0.59530  Biso   1.000  H
  C92      1.0000 0.83320  0.16340  0.66540  Biso   1.000  C
  H123     1.0000 0.82070  0.19680  0.64000  Biso   1.000  H
  H124     1.0000 0.88140  0.18850  0.68720  Biso   1.000  H
  C93      1.0000 0.78870  0.12520  0.75890  Biso   1.000  C
  H125     1.0000 0.79800  0.08880  0.77970  Biso   1.000  H
  H126     1.0000 0.74030  0.10370  0.73850  Biso   1.000  H
  C94      1.0000 0.82020  0.15760  0.39520  Biso   1.000  C
  H127     1.0000 0.77240  0.13810  0.39280  Biso   1.000  H
  C95      1.0000 0.92760  0.20970  0.35300  Biso   1.000  C
  H128     1.0000 0.96840  0.23290  0.31420  Biso   1.000  H
  C96      1.0000 0.92280  0.18560  0.45400  Biso   1.000  C
  H129     1.0000 0.95910  0.19120  0.49710  Biso   1.000  H
  C97      1.0000 0.81740  0.16090  0.95030  Biso   1.000  C
  H130     1.0000 0.82220  0.12340  0.97050  Biso   1.000  H
  C98      1.0000 0.81370  0.25510  0.95700  Biso   1.000  C
  H131     1.0000 0.81520  0.29500  0.98240  Biso   1.000  H
  C99      1.0000 0.79950  0.23120  0.85280  Biso   1.000  C
  H132     1.0000 0.79040  0.25230  0.79630  Biso   1.000  H
  C100     1.0000 0.56410  0.00810  0.19430  Biso   1.000  C
  H133     1.0000 0.54780  0.02360  0.13460  Biso   1.000  H
  H134     1.0000 0.54160  0.95790  0.19120  Biso   1.000  H
  C101     1.0000 0.54550  0.02920  0.29490  Biso   1.000  C
  H135     1.0000 0.56420  0.01600  0.35410  Biso   1.000  H
  H136     1.0000 0.56610  0.07920  0.29600  Biso   1.000  H
  C102     1.0000 0.46660  0.99530  0.30730  Biso   1.000  C
  H137     1.0000 0.45680  0.00300  0.37940  Biso   1.000  H
  H138     1.0000 0.44650  0.94570  0.29780  Biso   1.000  H
  C103     1.0000 0.68780  0.10330  0.17010  Biso   1.000  C
  H139     1.0000 0.67730  0.13770  0.15340  Biso   1.000  H
  C104     1.0000 0.74420  0.05250  0.19700  Biso   1.000  C
  H140     1.0000 0.77990  0.04250  0.20310  Biso   1.000  H
  C105     1.0000 0.67470  0.00620  0.20560  Biso   1.000  C
  H141     1.0000 0.65530  0.95940  0.22160  Biso   1.000  H
  C106     1.0000 0.42460  0.07470  0.25200  Biso   1.000  C
  H142     1.0000 0.44060  0.10300  0.31170  Biso   1.000  H
  C107     1.0000 0.37580  0.02950  0.10430  Biso   1.000  C
  H143     1.0000 0.35170  0.02140  0.04080  Biso   1.000  H
  C108     1.0000 0.40050  0.99060  0.14310  Biso   1.000  C
  H144     1.0000 0.39670  0.95090  0.11230  Biso   1.000  H
  Mo1      1.0000 0.13950  0.16130  0.91480  Biso   1.000  Mo
  Mo2      1.0000 0.97398  0.10071  0.80720  Biso   1.000  Mo
  O1       1.0000 0.06800  0.13330  0.80130  Biso   1.000  O
  O2       1.0000 0.14080  0.17720  0.06430  Biso   1.000  O
  O3       1.0000 0.20980  0.23710  0.88200  Biso   1.000  O
  O4       1.0000 0.88710  0.02430  0.80320  Biso   1.000  O
  O5       1.0000 0.04700  0.04900  0.90500  Biso   1.000  O
  Mo3      1.0000 0.11650  0.17170  0.92930  Biso   1.000  Mo
  Mo4      1.0000 0.98150  0.05150  0.74210  Biso   1.000  Mo
  O6       1.0000 0.16600  0.14000  0.01800  Biso   1.000  O
  O7       1.0000 0.16000  0.25260  0.87800  Biso   1.000  O
  O8       1.0000 0.97000  0.07100  0.61600  Biso   1.000  O
  O9       1.0000 0.01500  0.07280  0.97000  Biso   1.000  O
  Mo5      1.0000 0.83870  0.97820  0.91480  Biso   1.000  Mo
  Mo6      1.0000 0.89929  0.87327  0.80720  Biso   1.000  Mo
  O10      1.0000 0.86670  0.93470  0.80130  Biso   1.000  O
  O11      1.0000 0.82280  0.96360  0.06430  Biso   1.000  O
  O12      1.0000 0.76290  0.97270  0.88200  Biso   1.000  O
  O13      1.0000 0.97570  0.86280  0.80320  Biso   1.000  O
  O14      1.0000 0.95100  0.99800  0.90500  Biso   1.000  O
  Mo7      1.0000 0.82830  0.94480  0.92930  Biso   1.000  Mo
  Mo8      1.0000 0.94850  0.93000  0.74210  Biso   1.000  Mo
  O15      1.0000 0.86000  0.02600  0.01800  Biso   1.000  O
  O16      1.0000 0.74740  0.90740  0.87800  Biso   1.000  O
  O17      1.0000 0.92900  0.89900  0.61600  Biso   1.000  O
  O18      1.0000 0.92720  0.94220  0.97000  Biso   1.000  O
  Mo9      1.0000 0.02180  0.86050  0.91480  Biso   1.000  Mo
  Mo10     1.0000 0.12673  0.02602  0.80720  Biso   1.000  Mo
  O19      1.0000 0.06530  0.93200  0.80130  Biso   1.000  O
  O20      1.0000 0.03640  0.85920  0.06430  Biso   1.000  O
  O21      1.0000 0.02730  0.79020  0.88200  Biso   1.000  O
  O22      1.0000 0.13720  0.11290  0.80320  Biso   1.000  O
  O23      1.0000 0.00200  0.95300  0.90500  Biso   1.000  O
  Mo11     1.0000 0.05520  0.88350  0.92930  Biso   1.000  Mo
  Mo12     1.0000 0.07000  0.01850  0.74210  Biso   1.000  Mo
  O24      1.0000 0.97400  0.83400  0.01800  Biso   1.000  O
  O25      1.0000 0.09260  0.84000  0.87800  Biso   1.000  O
  O26      1.0000 0.10100  0.03000  0.61600  Biso   1.000  O
  O27      1.0000 0.05780  0.98500  0.97000  Biso   1.000  O
  Mo13     1.0000 0.86050  0.83870  0.08520  Biso   1.000  Mo
  Mo14     1.0000 0.02602  0.89929  0.19280  Biso   1.000  Mo
  O28      1.0000 0.93200  0.86670  0.19870  Biso   1.000  O
  O29      1.0000 0.85920  0.82280  0.93570  Biso   1.000  O
  O30      1.0000 0.79020  0.76290  0.11800  Biso   1.000  O
  O31      1.0000 0.11290  0.97570  0.19680  Biso   1.000  O
  O32      1.0000 0.95300  0.95100  0.09500  Biso   1.000  O
  Mo15     1.0000 0.88350  0.82830  0.07070  Biso   1.000  Mo
  Mo16     1.0000 0.01850  0.94850  0.25790  Biso   1.000  Mo
  O33      1.0000 0.83400  0.86000  0.98200  Biso   1.000  O
  O34      1.0000 0.84000  0.74740  0.12200  Biso   1.000  O
  O35      1.0000 0.03000  0.92900  0.38400  Biso   1.000  O
  O36      1.0000 0.98500  0.92720  0.03000  Biso   1.000  O
  Mo17     1.0000 0.16130  0.02180  0.08520  Biso   1.000  Mo
  Mo18     1.0000 0.10071  0.12673  0.19280  Biso   1.000  Mo
  O37      1.0000 0.13330  0.06530  0.19870  Biso   1.000  O
  O38      1.0000 0.17720  0.03640  0.93570  Biso   1.000  O
  O39      1.0000 0.23710  0.02730  0.11800  Biso   1.000  O
  O40      1.0000 0.02430  0.13720  0.19680  Biso   1.000  O
  O41      1.0000 0.04900  0.00200  0.09500  Biso   1.000  O
  Mo19     1.0000 0.17170  0.05520  0.07070  Biso   1.000  Mo
  Mo20     1.0000 0.05150  0.07000  0.25790  Biso   1.000  Mo
  O42      1.0000 0.14000  0.97400  0.98200  Biso   1.000  O
  O43      1.0000 0.25260  0.09260  0.12200  Biso   1.000  O
  O44      1.0000 0.07100  0.10100  0.38400  Biso   1.000  O
  O45      1.0000 0.07280  0.05780  0.03000  Biso   1.000  O
  Mo21     1.0000 0.97820  0.13950  0.08520  Biso   1.000  Mo
  Mo22     1.0000 0.87327  0.97398  0.19280  Biso   1.000  Mo
  O46      1.0000 0.93470  0.06800  0.19870  Biso   1.000  O
  O47      1.0000 0.96360  0.14080  0.93570  Biso   1.000  O
  O48      1.0000 0.97270  0.20980  0.11800  Biso   1.000  O
  O49      1.0000 0.86280  0.88710  0.19680  Biso   1.000  O
  O50      1.0000 0.99800  0.04700  0.09500  Biso   1.000  O
  Mo23     1.0000 0.94480  0.11650  0.07070  Biso   1.000  Mo
  Mo24     1.0000 0.93000  0.98150  0.25790  Biso   1.000  Mo
  O51      1.0000 0.02600  0.16600  0.98200  Biso   1.000  O
  O52      1.0000 0.90740  0.16000  0.12200  Biso   1.000  O
  O53      1.0000 0.89900  0.97000  0.38400  Biso   1.000  O
  O54      1.0000 0.94220  0.01500  0.03000  Biso   1.000  O
  P1       1.0000 0.00000  0.00000  0.00000  Biso   1.000  P
