data_image0
_cell_length_a       18.945
_cell_length_b       18.945
_cell_length_c       27.561
_cell_angle_alpha    90
_cell_angle_beta     90
_cell_angle_gamma    90

_symmetry_space_group_name_H-M    "P 1"
_symmetry_int_tables_number       1

loop_
  _symmetry_equiv_pos_as_xyz
  'x, y, z'

loop_
  _atom_site_label
  _atom_site_occupancy
  _atom_site_fract_x
  _atom_site_fract_y
  _atom_site_fract_z
  _atom_site_thermal_displace_type
  _atom_site_B_iso_or_equiv
  _atom_site_type_symbol
  O1       1.0000 0.86855  0.76446  0.75031  Biso   1.000  O
  O2       1.0000 0.78640  0.68700  0.68714  Biso   1.000  O
  C1       1.0000 0.86520  0.73690  0.79314  Biso   1.000  C
  C2       1.0000 0.93580  0.73690  0.81815  Biso   1.000  C
  C3       1.0000 0.93600  0.73050  0.86902  Biso   1.000  C
  H1       1.0000 0.89370  0.72750  0.88600  Biso   1.000  H
  C4       1.0000 0.96810  0.86220  0.94700  Biso   1.000  C
  C5       1.0000 0.97080  0.59340  0.94770  Biso   1.000  C
  H2       1.0000 0.95120  0.89970  0.96730  Biso   1.000  H
  H3       1.0000 0.95120  0.86900  0.91450  Biso   1.000  H
  H4       1.0000 0.95120  0.81780  0.95920  Biso   1.000  H
  H5       1.0000 0.95400  0.55680  0.96880  Biso   1.000  H
  H6       1.0000 0.95400  0.58500  0.91530  Biso   1.000  H
  H7       1.0000 0.95400  0.63830  0.95880  Biso   1.000  H
  O3       1.0000 0.36855  0.26446  0.25031  Biso   1.000  O
  O4       1.0000 0.28640  0.18700  0.18714  Biso   1.000  O
  C6       1.0000 0.36520  0.23690  0.29314  Biso   1.000  C
  C7       1.0000 0.43580  0.23690  0.31815  Biso   1.000  C
  C8       1.0000 0.43600  0.23050  0.36902  Biso   1.000  C
  H8       1.0000 0.39370  0.22750  0.38600  Biso   1.000  H
  C9       1.0000 0.46810  0.36220  0.44700  Biso   1.000  C
  C10      1.0000 0.47080  0.09340  0.44770  Biso   1.000  C
  H9       1.0000 0.45120  0.39970  0.46730  Biso   1.000  H
  H10      1.0000 0.45120  0.36900  0.41450  Biso   1.000  H
  H11      1.0000 0.45120  0.31780  0.45920  Biso   1.000  H
  H12      1.0000 0.45400  0.05680  0.46880  Biso   1.000  H
  H13      1.0000 0.45400  0.08500  0.41530  Biso   1.000  H
  H14      1.0000 0.45400  0.13830  0.45880  Biso   1.000  H
  O5       1.0000 0.13145  0.23554  0.75031  Biso   1.000  O
  O6       1.0000 0.21360  0.31300  0.68714  Biso   1.000  O
  C11      1.0000 0.13480  0.26310  0.79314  Biso   1.000  C
  C12      1.0000 0.06420  0.26310  0.81815  Biso   1.000  C
  C13      1.0000 0.06400  0.26950  0.86902  Biso   1.000  C
  H15      1.0000 0.10630  0.27250  0.88600  Biso   1.000  H
  C14      1.0000 0.03190  0.13780  0.94700  Biso   1.000  C
  C15      1.0000 0.02920  0.40660  0.94770  Biso   1.000  C
  H16      1.0000 0.04880  0.10030  0.96730  Biso   1.000  H
  H17      1.0000 0.04880  0.13100  0.91450  Biso   1.000  H
  H18      1.0000 0.04880  0.18220  0.95920  Biso   1.000  H
  H19      1.0000 0.04600  0.44320  0.96880  Biso   1.000  H
  H20      1.0000 0.04600  0.41500  0.91530  Biso   1.000  H
  H21      1.0000 0.04600  0.36170  0.95880  Biso   1.000  H
  O7       1.0000 0.63145  0.73554  0.25031  Biso   1.000  O
  O8       1.0000 0.71360  0.81300  0.18714  Biso   1.000  O
  C16      1.0000 0.63480  0.76310  0.29314  Biso   1.000  C
  C17      1.0000 0.56420  0.76310  0.31815  Biso   1.000  C
  C18      1.0000 0.56400  0.76950  0.36902  Biso   1.000  C
  H22      1.0000 0.60630  0.77250  0.38600  Biso   1.000  H
  C19      1.0000 0.53190  0.63780  0.44700  Biso   1.000  C
  C20      1.0000 0.52920  0.90660  0.44770  Biso   1.000  C
  H23      1.0000 0.54880  0.60030  0.46730  Biso   1.000  H
  H24      1.0000 0.54880  0.63100  0.41450  Biso   1.000  H
  H25      1.0000 0.54880  0.68220  0.45920  Biso   1.000  H
  H26      1.0000 0.54600  0.94320  0.46880  Biso   1.000  H
  H27      1.0000 0.54600  0.91500  0.41530  Biso   1.000  H
  H28      1.0000 0.54600  0.86170  0.45880  Biso   1.000  H
  O9       1.0000 0.23554  0.86855  0.75031  Biso   1.000  O
  O10      1.0000 0.31300  0.78640  0.68714  Biso   1.000  O
  C21      1.0000 0.26310  0.86520  0.79314  Biso   1.000  C
  C22      1.0000 0.26310  0.93580  0.81815  Biso   1.000  C
  C23      1.0000 0.26950  0.93600  0.86902  Biso   1.000  C
  H29      1.0000 0.27250  0.89370  0.88600  Biso   1.000  H
  C24      1.0000 0.13780  0.96810  0.94700  Biso   1.000  C
  C25      1.0000 0.40660  0.97080  0.94770  Biso   1.000  C
  H30      1.0000 0.10030  0.95120  0.96730  Biso   1.000  H
  H31      1.0000 0.13100  0.95120  0.91450  Biso   1.000  H
  H32      1.0000 0.18220  0.95120  0.95920  Biso   1.000  H
  H33      1.0000 0.44320  0.95400  0.96880  Biso   1.000  H
  H34      1.0000 0.41500  0.95400  0.91530  Biso   1.000  H
  H35      1.0000 0.36170  0.95400  0.95880  Biso   1.000  H
  O11      1.0000 0.73554  0.36855  0.25031  Biso   1.000  O
  O12      1.0000 0.81300  0.28640  0.18714  Biso   1.000  O
  C26      1.0000 0.76310  0.36520  0.29314  Biso   1.000  C
  C27      1.0000 0.76310  0.43580  0.31815  Biso   1.000  C
  C28      1.0000 0.76950  0.43600  0.36902  Biso   1.000  C
  H36      1.0000 0.77250  0.39370  0.38600  Biso   1.000  H
  C29      1.0000 0.63780  0.46810  0.44700  Biso   1.000  C
  C30      1.0000 0.90660  0.47080  0.44770  Biso   1.000  C
  H37      1.0000 0.60030  0.45120  0.46730  Biso   1.000  H
  H38      1.0000 0.63100  0.45120  0.41450  Biso   1.000  H
  H39      1.0000 0.68220  0.45120  0.45920  Biso   1.000  H
  H40      1.0000 0.94320  0.45400  0.46880  Biso   1.000  H
  H41      1.0000 0.91500  0.45400  0.41530  Biso   1.000  H
  H42      1.0000 0.86170  0.45400  0.45880  Biso   1.000  H
  O13      1.0000 0.76446  0.13145  0.75031  Biso   1.000  O
  O14      1.0000 0.68700  0.21360  0.68714  Biso   1.000  O
  C31      1.0000 0.73690  0.13480  0.79314  Biso   1.000  C
  C32      1.0000 0.73690  0.06420  0.81815  Biso   1.000  C
  C33      1.0000 0.73050  0.06400  0.86902  Biso   1.000  C
  H43      1.0000 0.72750  0.10630  0.88600  Biso   1.000  H
  C34      1.0000 0.86220  0.03190  0.94700  Biso   1.000  C
  C35      1.0000 0.59340  0.02920  0.94770  Biso   1.000  C
  H44      1.0000 0.89970  0.04880  0.96730  Biso   1.000  H
  H45      1.0000 0.86900  0.04880  0.91450  Biso   1.000  H
  H46      1.0000 0.81780  0.04880  0.95920  Biso   1.000  H
  H47      1.0000 0.55680  0.04600  0.96880  Biso   1.000  H
  H48      1.0000 0.58500  0.04600  0.91530  Biso   1.000  H
  H49      1.0000 0.63830  0.04600  0.95880  Biso   1.000  H
  O15      1.0000 0.26446  0.63145  0.25031  Biso   1.000  O
  O16      1.0000 0.18700  0.71360  0.18714  Biso   1.000  O
  C36      1.0000 0.23690  0.63480  0.29314  Biso   1.000  C
  C37      1.0000 0.23690  0.56420  0.31815  Biso   1.000  C
  C38      1.0000 0.23050  0.56400  0.36902  Biso   1.000  C
  H50      1.0000 0.22750  0.60630  0.38600  Biso   1.000  H
  C39      1.0000 0.36220  0.53190  0.44700  Biso   1.000  C
  C40      1.0000 0.09340  0.52920  0.44770  Biso   1.000  C
  H51      1.0000 0.39970  0.54880  0.46730  Biso   1.000  H
  H52      1.0000 0.36900  0.54880  0.41450  Biso   1.000  H
  H53      1.0000 0.31780  0.54880  0.45920  Biso   1.000  H
  H54      1.0000 0.05680  0.54600  0.46880  Biso   1.000  H
  H55      1.0000 0.08500  0.54600  0.41530  Biso   1.000  H
  H56      1.0000 0.13830  0.54600  0.45880  Biso   1.000  H
  O17      1.0000 0.13145  0.76446  0.24969  Biso   1.000  O
  O18      1.0000 0.21360  0.68700  0.31286  Biso   1.000  O
  C41      1.0000 0.13480  0.73690  0.20686  Biso   1.000  C
  C42      1.0000 0.06420  0.73690  0.18185  Biso   1.000  C
  C43      1.0000 0.06400  0.73050  0.13098  Biso   1.000  C
  H57      1.0000 0.10630  0.72750  0.11400  Biso   1.000  H
  C44      1.0000 0.03190  0.86220  0.05300  Biso   1.000  C
  C45      1.0000 0.02920  0.59340  0.05230  Biso   1.000  C
  H58      1.0000 0.04880  0.89970  0.03270  Biso   1.000  H
  H59      1.0000 0.04880  0.86900  0.08550  Biso   1.000  H
  H60      1.0000 0.04880  0.81780  0.04080  Biso   1.000  H
  H61      1.0000 0.04600  0.55680  0.03120  Biso   1.000  H
  H62      1.0000 0.04600  0.58500  0.08470  Biso   1.000  H
  H63      1.0000 0.04600  0.63830  0.04120  Biso   1.000  H
  O19      1.0000 0.63145  0.26446  0.74969  Biso   1.000  O
  O20      1.0000 0.71360  0.18700  0.81286  Biso   1.000  O
  C46      1.0000 0.63480  0.23690  0.70686  Biso   1.000  C
  C47      1.0000 0.56420  0.23690  0.68185  Biso   1.000  C
  C48      1.0000 0.56400  0.23050  0.63098  Biso   1.000  C
  H64      1.0000 0.60630  0.22750  0.61400  Biso   1.000  H
  C49      1.0000 0.53190  0.36220  0.55300  Biso   1.000  C
  C50      1.0000 0.52920  0.09340  0.55230  Biso   1.000  C
  H65      1.0000 0.54880  0.39970  0.53270  Biso   1.000  H
  H66      1.0000 0.54880  0.36900  0.58550  Biso   1.000  H
  H67      1.0000 0.54880  0.31780  0.54080  Biso   1.000  H
  H68      1.0000 0.54600  0.05680  0.53120  Biso   1.000  H
  H69      1.0000 0.54600  0.08500  0.58470  Biso   1.000  H
  H70      1.0000 0.54600  0.13830  0.54120  Biso   1.000  H
  O21      1.0000 0.86855  0.23554  0.24969  Biso   1.000  O
  O22      1.0000 0.78640  0.31300  0.31286  Biso   1.000  O
  C51      1.0000 0.86520  0.26310  0.20686  Biso   1.000  C
  C52      1.0000 0.93580  0.26310  0.18185  Biso   1.000  C
  C53      1.0000 0.93600  0.26950  0.13098  Biso   1.000  C
  H71      1.0000 0.89370  0.27250  0.11400  Biso   1.000  H
  C54      1.0000 0.96810  0.13780  0.05300  Biso   1.000  C
  C55      1.0000 0.97080  0.40660  0.05230  Biso   1.000  C
  H72      1.0000 0.95120  0.10030  0.03270  Biso   1.000  H
  H73      1.0000 0.95120  0.13100  0.08550  Biso   1.000  H
  H74      1.0000 0.95120  0.18220  0.04080  Biso   1.000  H
  H75      1.0000 0.95400  0.44320  0.03120  Biso   1.000  H
  H76      1.0000 0.95400  0.41500  0.08470  Biso   1.000  H
  H77      1.0000 0.95400  0.36170  0.04120  Biso   1.000  H
  O23      1.0000 0.36855  0.73554  0.74969  Biso   1.000  O
  O24      1.0000 0.28640  0.81300  0.81286  Biso   1.000  O
  C56      1.0000 0.36520  0.76310  0.70686  Biso   1.000  C
  C57      1.0000 0.43580  0.76310  0.68185  Biso   1.000  C
  C58      1.0000 0.43600  0.76950  0.63098  Biso   1.000  C
  H78      1.0000 0.39370  0.77250  0.61400  Biso   1.000  H
  C59      1.0000 0.46810  0.63780  0.55300  Biso   1.000  C
  C60      1.0000 0.47080  0.90660  0.55230  Biso   1.000  C
  H79      1.0000 0.45120  0.60030  0.53270  Biso   1.000  H
  H80      1.0000 0.45120  0.63100  0.58550  Biso   1.000  H
  H81      1.0000 0.45120  0.68220  0.54080  Biso   1.000  H
  H82      1.0000 0.45400  0.94320  0.53120  Biso   1.000  H
  H83      1.0000 0.45400  0.91500  0.58470  Biso   1.000  H
  H84      1.0000 0.45400  0.86170  0.54120  Biso   1.000  H
  O25      1.0000 0.76446  0.86855  0.24969  Biso   1.000  O
  O26      1.0000 0.68700  0.78640  0.31286  Biso   1.000  O
  C61      1.0000 0.73690  0.86520  0.20686  Biso   1.000  C
  C62      1.0000 0.73690  0.93580  0.18185  Biso   1.000  C
  C63      1.0000 0.73050  0.93600  0.13098  Biso   1.000  C
  H85      1.0000 0.72750  0.89370  0.11400  Biso   1.000  H
  C64      1.0000 0.86220  0.96810  0.05300  Biso   1.000  C
  C65      1.0000 0.59340  0.97080  0.05230  Biso   1.000  C
  H86      1.0000 0.89970  0.95120  0.03270  Biso   1.000  H
  H87      1.0000 0.86900  0.95120  0.08550  Biso   1.000  H
  H88      1.0000 0.81780  0.95120  0.04080  Biso   1.000  H
  H89      1.0000 0.55680  0.95400  0.03120  Biso   1.000  H
  H90      1.0000 0.58500  0.95400  0.08470  Biso   1.000  H
  H91      1.0000 0.63830  0.95400  0.04120  Biso   1.000  H
  O27      1.0000 0.26446  0.36855  0.74969  Biso   1.000  O
  O28      1.0000 0.18700  0.28640  0.81286  Biso   1.000  O
  C66      1.0000 0.23690  0.36520  0.70686  Biso   1.000  C
  C67      1.0000 0.23690  0.43580  0.68185  Biso   1.000  C
  C68      1.0000 0.23050  0.43600  0.63098  Biso   1.000  C
  H92      1.0000 0.22750  0.39370  0.61400  Biso   1.000  H
  C69      1.0000 0.36220  0.46810  0.55300  Biso   1.000  C
  C70      1.0000 0.09340  0.47080  0.55230  Biso   1.000  C
  H93      1.0000 0.39970  0.45120  0.53270  Biso   1.000  H
  H94      1.0000 0.36900  0.45120  0.58550  Biso   1.000  H
  H95      1.0000 0.31780  0.45120  0.54080  Biso   1.000  H
  H96      1.0000 0.05680  0.45400  0.53120  Biso   1.000  H
  H97      1.0000 0.08500  0.45400  0.58470  Biso   1.000  H
  H98      1.0000 0.13830  0.45400  0.54120  Biso   1.000  H
  O29      1.0000 0.23554  0.13145  0.24969  Biso   1.000  O
  O30      1.0000 0.31300  0.21360  0.31286  Biso   1.000  O
  C71      1.0000 0.26310  0.13480  0.20686  Biso   1.000  C
  C72      1.0000 0.26310  0.06420  0.18185  Biso   1.000  C
  C73      1.0000 0.26950  0.06400  0.13098  Biso   1.000  C
  H99      1.0000 0.27250  0.10630  0.11400  Biso   1.000  H
  C74      1.0000 0.13780  0.03190  0.05300  Biso   1.000  C
  C75      1.0000 0.40660  0.02920  0.05230  Biso   1.000  C
  H100     1.0000 0.10030  0.04880  0.03270  Biso   1.000  H
  H101     1.0000 0.13100  0.04880  0.08550  Biso   1.000  H
  H102     1.0000 0.18220  0.04880  0.04080  Biso   1.000  H
  H103     1.0000 0.44320  0.04600  0.03120  Biso   1.000  H
  H104     1.0000 0.41500  0.04600  0.08470  Biso   1.000  H
  H105     1.0000 0.36170  0.04600  0.04120  Biso   1.000  H
  O31      1.0000 0.73554  0.63145  0.74969  Biso   1.000  O
  O32      1.0000 0.81300  0.71360  0.81286  Biso   1.000  O
  C76      1.0000 0.76310  0.63480  0.70686  Biso   1.000  C
  C77      1.0000 0.76310  0.56420  0.68185  Biso   1.000  C
  C78      1.0000 0.76950  0.56400  0.63098  Biso   1.000  C
  H106     1.0000 0.77250  0.60630  0.61400  Biso   1.000  H
  C79      1.0000 0.63780  0.53190  0.55300  Biso   1.000  C
  C80      1.0000 0.90660  0.52920  0.55230  Biso   1.000  C
  H107     1.0000 0.60030  0.54880  0.53270  Biso   1.000  H
  H108     1.0000 0.63100  0.54880  0.58550  Biso   1.000  H
  H109     1.0000 0.68220  0.54880  0.54080  Biso   1.000  H
  H110     1.0000 0.94320  0.54600  0.53120  Biso   1.000  H
  H111     1.0000 0.91500  0.54600  0.58470  Biso   1.000  H
  H112     1.0000 0.86170  0.54600  0.54120  Biso   1.000  H
  O33      1.0000 0.13145  0.23554  0.24969  Biso   1.000  O
  O34      1.0000 0.21360  0.31300  0.31286  Biso   1.000  O
  C81      1.0000 0.13480  0.26310  0.20686  Biso   1.000  C
  C82      1.0000 0.06420  0.26310  0.18185  Biso   1.000  C
  C83      1.0000 0.06400  0.26950  0.13098  Biso   1.000  C
  H113     1.0000 0.10630  0.27250  0.11400  Biso   1.000  H
  C84      1.0000 0.03190  0.13780  0.05300  Biso   1.000  C
  C85      1.0000 0.02920  0.40660  0.05230  Biso   1.000  C
  H114     1.0000 0.04880  0.10030  0.03270  Biso   1.000  H
  H115     1.0000 0.04880  0.13100  0.08550  Biso   1.000  H
  H116     1.0000 0.04880  0.18220  0.04080  Biso   1.000  H
  H117     1.0000 0.04600  0.44320  0.03120  Biso   1.000  H
  H118     1.0000 0.04600  0.41500  0.08470  Biso   1.000  H
  H119     1.0000 0.04600  0.36170  0.04120  Biso   1.000  H
  O35      1.0000 0.63145  0.73554  0.74969  Biso   1.000  O
  O36      1.0000 0.71360  0.81300  0.81286  Biso   1.000  O
  C86      1.0000 0.63480  0.76310  0.70686  Biso   1.000  C
  C87      1.0000 0.56420  0.76310  0.68185  Biso   1.000  C
  C88      1.0000 0.56400  0.76950  0.63098  Biso   1.000  C
  H120     1.0000 0.60630  0.77250  0.61400  Biso   1.000  H
  C89      1.0000 0.53190  0.63780  0.55300  Biso   1.000  C
  C90      1.0000 0.52920  0.90660  0.55230  Biso   1.000  C
  H121     1.0000 0.54880  0.60030  0.53270  Biso   1.000  H
  H122     1.0000 0.54880  0.63100  0.58550  Biso   1.000  H
  H123     1.0000 0.54880  0.68220  0.54080  Biso   1.000  H
  H124     1.0000 0.54600  0.94320  0.53120  Biso   1.000  H
  H125     1.0000 0.54600  0.91500  0.58470  Biso   1.000  H
  H126     1.0000 0.54600  0.86170  0.54120  Biso   1.000  H
  O37      1.0000 0.86855  0.76446  0.24969  Biso   1.000  O
  O38      1.0000 0.78640  0.68700  0.31286  Biso   1.000  O
  C91      1.0000 0.86520  0.73690  0.20686  Biso   1.000  C
  C92      1.0000 0.93580  0.73690  0.18185  Biso   1.000  C
  C93      1.0000 0.93600  0.73050  0.13098  Biso   1.000  C
  H127     1.0000 0.89370  0.72750  0.11400  Biso   1.000  H
  C94      1.0000 0.96810  0.86220  0.05300  Biso   1.000  C
  C95      1.0000 0.97080  0.59340  0.05230  Biso   1.000  C
  H128     1.0000 0.95120  0.89970  0.03270  Biso   1.000  H
  H129     1.0000 0.95120  0.86900  0.08550  Biso   1.000  H
  H130     1.0000 0.95120  0.81780  0.04080  Biso   1.000  H
  H131     1.0000 0.95400  0.55680  0.03120  Biso   1.000  H
  H132     1.0000 0.95400  0.58500  0.08470  Biso   1.000  H
  H133     1.0000 0.95400  0.63830  0.04120  Biso   1.000  H
  O39      1.0000 0.36855  0.26446  0.74969  Biso   1.000  O
  O40      1.0000 0.28640  0.18700  0.81286  Biso   1.000  O
  C96      1.0000 0.36520  0.23690  0.70686  Biso   1.000  C
  C97      1.0000 0.43580  0.23690  0.68185  Biso   1.000  C
  C98      1.0000 0.43600  0.23050  0.63098  Biso   1.000  C
  H134     1.0000 0.39370  0.22750  0.61400  Biso   1.000  H
  C99      1.0000 0.46810  0.36220  0.55300  Biso   1.000  C
  C100     1.0000 0.47080  0.09340  0.55230  Biso   1.000  C
  H135     1.0000 0.45120  0.39970  0.53270  Biso   1.000  H
  H136     1.0000 0.45120  0.36900  0.58550  Biso   1.000  H
  H137     1.0000 0.45120  0.31780  0.54080  Biso   1.000  H
  H138     1.0000 0.45400  0.05680  0.53120  Biso   1.000  H
  H139     1.0000 0.45400  0.08500  0.58470  Biso   1.000  H
  H140     1.0000 0.45400  0.13830  0.54120  Biso   1.000  H
  O41      1.0000 0.76446  0.13145  0.24969  Biso   1.000  O
  O42      1.0000 0.68700  0.21360  0.31286  Biso   1.000  O
  C101     1.0000 0.73690  0.13480  0.20686  Biso   1.000  C
  C102     1.0000 0.73690  0.06420  0.18185  Biso   1.000  C
  C103     1.0000 0.73050  0.06400  0.13098  Biso   1.000  C
  H141     1.0000 0.72750  0.10630  0.11400  Biso   1.000  H
  C104     1.0000 0.86220  0.03190  0.05300  Biso   1.000  C
  C105     1.0000 0.59340  0.02920  0.05230  Biso   1.000  C
  H142     1.0000 0.89970  0.04880  0.03270  Biso   1.000  H
  H143     1.0000 0.86900  0.04880  0.08550  Biso   1.000  H
  H144     1.0000 0.81780  0.04880  0.04080  Biso   1.000  H
  H145     1.0000 0.55680  0.04600  0.03120  Biso   1.000  H
  H146     1.0000 0.58500  0.04600  0.08470  Biso   1.000  H
  H147     1.0000 0.63830  0.04600  0.04120  Biso   1.000  H
  O43      1.0000 0.26446  0.63145  0.74969  Biso   1.000  O
  O44      1.0000 0.18700  0.71360  0.81286  Biso   1.000  O
  C106     1.0000 0.23690  0.63480  0.70686  Biso   1.000  C
  C107     1.0000 0.23690  0.56420  0.68185  Biso   1.000  C
  C108     1.0000 0.23050  0.56400  0.63098  Biso   1.000  C
  H148     1.0000 0.22750  0.60630  0.61400  Biso   1.000  H
  C109     1.0000 0.36220  0.53190  0.55300  Biso   1.000  C
  C110     1.0000 0.09340  0.52920  0.55230  Biso   1.000  C
  H149     1.0000 0.39970  0.54880  0.53270  Biso   1.000  H
  H150     1.0000 0.36900  0.54880  0.58550  Biso   1.000  H
  H151     1.0000 0.31780  0.54880  0.54080  Biso   1.000  H
  H152     1.0000 0.05680  0.54600  0.53120  Biso   1.000  H
  H153     1.0000 0.08500  0.54600  0.58470  Biso   1.000  H
  H154     1.0000 0.13830  0.54600  0.54120  Biso   1.000  H
  O45      1.0000 0.23554  0.86855  0.24969  Biso   1.000  O
  O46      1.0000 0.31300  0.78640  0.31286  Biso   1.000  O
  C111     1.0000 0.26310  0.86520  0.20686  Biso   1.000  C
  C112     1.0000 0.26310  0.93580  0.18185  Biso   1.000  C
  C113     1.0000 0.26950  0.93600  0.13098  Biso   1.000  C
  H155     1.0000 0.27250  0.89370  0.11400  Biso   1.000  H
  C114     1.0000 0.13780  0.96810  0.05300  Biso   1.000  C
  C115     1.0000 0.40660  0.97080  0.05230  Biso   1.000  C
  H156     1.0000 0.10030  0.95120  0.03270  Biso   1.000  H
  H157     1.0000 0.13100  0.95120  0.08550  Biso   1.000  H
  H158     1.0000 0.18220  0.95120  0.04080  Biso   1.000  H
  H159     1.0000 0.44320  0.95400  0.03120  Biso   1.000  H
  H160     1.0000 0.41500  0.95400  0.08470  Biso   1.000  H
  H161     1.0000 0.36170  0.95400  0.04120  Biso   1.000  H
  O47      1.0000 0.73554  0.36855  0.74969  Biso   1.000  O
  O48      1.0000 0.81300  0.28640  0.81286  Biso   1.000  O
  C116     1.0000 0.76310  0.36520  0.70686  Biso   1.000  C
  C117     1.0000 0.76310  0.43580  0.68185  Biso   1.000  C
  C118     1.0000 0.76950  0.43600  0.63098  Biso   1.000  C
  H162     1.0000 0.77250  0.39370  0.61400  Biso   1.000  H
  C119     1.0000 0.63780  0.46810  0.55300  Biso   1.000  C
  C120     1.0000 0.90660  0.47080  0.55230  Biso   1.000  C
  H163     1.0000 0.60030  0.45120  0.53270  Biso   1.000  H
  H164     1.0000 0.63100  0.45120  0.58550  Biso   1.000  H
  H165     1.0000 0.68220  0.45120  0.54080  Biso   1.000  H
  H166     1.0000 0.94320  0.45400  0.53120  Biso   1.000  H
  H167     1.0000 0.91500  0.45400  0.58470  Biso   1.000  H
  H168     1.0000 0.86170  0.45400  0.54120  Biso   1.000  H
  O49      1.0000 0.86855  0.23554  0.75031  Biso   1.000  O
  O50      1.0000 0.78640  0.31300  0.68714  Biso   1.000  O
  C121     1.0000 0.86520  0.26310  0.79314  Biso   1.000  C
  C122     1.0000 0.93580  0.26310  0.81815  Biso   1.000  C
  C123     1.0000 0.93600  0.26950  0.86902  Biso   1.000  C
  H169     1.0000 0.89370  0.27250  0.88600  Biso   1.000  H
  C124     1.0000 0.96810  0.13780  0.94700  Biso   1.000  C
  C125     1.0000 0.97080  0.40660  0.94770  Biso   1.000  C
  H170     1.0000 0.95120  0.10030  0.96730  Biso   1.000  H
  H171     1.0000 0.95120  0.13100  0.91450  Biso   1.000  H
  H172     1.0000 0.95120  0.18220  0.95920  Biso   1.000  H
  H173     1.0000 0.95400  0.44320  0.96880  Biso   1.000  H
  H174     1.0000 0.95400  0.41500  0.91530  Biso   1.000  H
  H175     1.0000 0.95400  0.36170  0.95880  Biso   1.000  H
  O51      1.0000 0.36855  0.73554  0.25031  Biso   1.000  O
  O52      1.0000 0.28640  0.81300  0.18714  Biso   1.000  O
  C126     1.0000 0.36520  0.76310  0.29314  Biso   1.000  C
  C127     1.0000 0.43580  0.76310  0.31815  Biso   1.000  C
  C128     1.0000 0.43600  0.76950  0.36902  Biso   1.000  C
  H176     1.0000 0.39370  0.77250  0.38600  Biso   1.000  H
  C129     1.0000 0.46810  0.63780  0.44700  Biso   1.000  C
  C130     1.0000 0.47080  0.90660  0.44770  Biso   1.000  C
  H177     1.0000 0.45120  0.60030  0.46730  Biso   1.000  H
  H178     1.0000 0.45120  0.63100  0.41450  Biso   1.000  H
  H179     1.0000 0.45120  0.68220  0.45920  Biso   1.000  H
  H180     1.0000 0.45400  0.94320  0.46880  Biso   1.000  H
  H181     1.0000 0.45400  0.91500  0.41530  Biso   1.000  H
  H182     1.0000 0.45400  0.86170  0.45880  Biso   1.000  H
  O53      1.0000 0.13145  0.76446  0.75031  Biso   1.000  O
  O54      1.0000 0.21360  0.68700  0.68714  Biso   1.000  O
  C131     1.0000 0.13480  0.73690  0.79314  Biso   1.000  C
  C132     1.0000 0.06420  0.73690  0.81815  Biso   1.000  C
  C133     1.0000 0.06400  0.73050  0.86902  Biso   1.000  C
  H183     1.0000 0.10630  0.72750  0.88600  Biso   1.000  H
  C134     1.0000 0.03190  0.86220  0.94700  Biso   1.000  C
  C135     1.0000 0.02920  0.59340  0.94770  Biso   1.000  C
  H184     1.0000 0.04880  0.89970  0.96730  Biso   1.000  H
  H185     1.0000 0.04880  0.86900  0.91450  Biso   1.000  H
  H186     1.0000 0.04880  0.81780  0.95920  Biso   1.000  H
  H187     1.0000 0.04600  0.55680  0.96880  Biso   1.000  H
  H188     1.0000 0.04600  0.58500  0.91530  Biso   1.000  H
  H189     1.0000 0.04600  0.63830  0.95880  Biso   1.000  H
  O55      1.0000 0.63145  0.26446  0.25031  Biso   1.000  O
  O56      1.0000 0.71360  0.18700  0.18714  Biso   1.000  O
  C136     1.0000 0.63480  0.23690  0.29314  Biso   1.000  C
  C137     1.0000 0.56420  0.23690  0.31815  Biso   1.000  C
  C138     1.0000 0.56400  0.23050  0.36902  Biso   1.000  C
  H190     1.0000 0.60630  0.22750  0.38600  Biso   1.000  H
  C139     1.0000 0.53190  0.36220  0.44700  Biso   1.000  C
  C140     1.0000 0.52920  0.09340  0.44770  Biso   1.000  C
  H191     1.0000 0.54880  0.39970  0.46730  Biso   1.000  H
  H192     1.0000 0.54880  0.36900  0.41450  Biso   1.000  H
  H193     1.0000 0.54880  0.31780  0.45920  Biso   1.000  H
  H194     1.0000 0.54600  0.05680  0.46880  Biso   1.000  H
  H195     1.0000 0.54600  0.08500  0.41530  Biso   1.000  H
  H196     1.0000 0.54600  0.13830  0.45880  Biso   1.000  H
  O57      1.0000 0.23554  0.13145  0.75031  Biso   1.000  O
  O58      1.0000 0.31300  0.21360  0.68714  Biso   1.000  O
  C141     1.0000 0.26310  0.13480  0.79314  Biso   1.000  C
  C142     1.0000 0.26310  0.06420  0.81815  Biso   1.000  C
  C143     1.0000 0.26950  0.06400  0.86902  Biso   1.000  C
  H197     1.0000 0.27250  0.10630  0.88600  Biso   1.000  H
  C144     1.0000 0.13780  0.03190  0.94700  Biso   1.000  C
  C145     1.0000 0.40660  0.02920  0.94770  Biso   1.000  C
  H198     1.0000 0.10030  0.04880  0.96730  Biso   1.000  H
  H199     1.0000 0.13100  0.04880  0.91450  Biso   1.000  H
  H200     1.0000 0.18220  0.04880  0.95920  Biso   1.000  H
  H201     1.0000 0.44320  0.04600  0.96880  Biso   1.000  H
  H202     1.0000 0.41500  0.04600  0.91530  Biso   1.000  H
  H203     1.0000 0.36170  0.04600  0.95880  Biso   1.000  H
  O59      1.0000 0.73554  0.63145  0.25031  Biso   1.000  O
  O60      1.0000 0.81300  0.71360  0.18714  Biso   1.000  O
  C146     1.0000 0.76310  0.63480  0.29314  Biso   1.000  C
  C147     1.0000 0.76310  0.56420  0.31815  Biso   1.000  C
  C148     1.0000 0.76950  0.56400  0.36902  Biso   1.000  C
  H204     1.0000 0.77250  0.60630  0.38600  Biso   1.000  H
  C149     1.0000 0.63780  0.53190  0.44700  Biso   1.000  C
  C150     1.0000 0.90660  0.52920  0.44770  Biso   1.000  C
  H205     1.0000 0.60030  0.54880  0.46730  Biso   1.000  H
  H206     1.0000 0.63100  0.54880  0.41450  Biso   1.000  H
  H207     1.0000 0.68220  0.54880  0.45920  Biso   1.000  H
  H208     1.0000 0.94320  0.54600  0.46880  Biso   1.000  H
  H209     1.0000 0.91500  0.54600  0.41530  Biso   1.000  H
  H210     1.0000 0.86170  0.54600  0.45880  Biso   1.000  H
  O61      1.0000 0.76446  0.86855  0.75031  Biso   1.000  O
  O62      1.0000 0.68700  0.78640  0.68714  Biso   1.000  O
  C151     1.0000 0.73690  0.86520  0.79314  Biso   1.000  C
  C152     1.0000 0.73690  0.93580  0.81815  Biso   1.000  C
  C153     1.0000 0.73050  0.93600  0.86902  Biso   1.000  C
  H211     1.0000 0.72750  0.89370  0.88600  Biso   1.000  H
  C154     1.0000 0.86220  0.96810  0.94700  Biso   1.000  C
  C155     1.0000 0.59340  0.97080  0.94770  Biso   1.000  C
  H212     1.0000 0.89970  0.95120  0.96730  Biso   1.000  H
  H213     1.0000 0.86900  0.95120  0.91450  Biso   1.000  H
  H214     1.0000 0.81780  0.95120  0.95920  Biso   1.000  H
  H215     1.0000 0.55680  0.95400  0.96880  Biso   1.000  H
  H216     1.0000 0.58500  0.95400  0.91530  Biso   1.000  H
  H217     1.0000 0.63830  0.95400  0.95880  Biso   1.000  H
  O63      1.0000 0.26446  0.36855  0.25031  Biso   1.000  O
  O64      1.0000 0.18700  0.28640  0.18714  Biso   1.000  O
  C156     1.0000 0.23690  0.36520  0.29314  Biso   1.000  C
  C157     1.0000 0.23690  0.43580  0.31815  Biso   1.000  C
  C158     1.0000 0.23050  0.43600  0.36902  Biso   1.000  C
  H218     1.0000 0.22750  0.39370  0.38600  Biso   1.000  H
  C159     1.0000 0.36220  0.46810  0.44700  Biso   1.000  C
  C160     1.0000 0.09340  0.47080  0.44770  Biso   1.000  C
  H219     1.0000 0.39970  0.45120  0.46730  Biso   1.000  H
  H220     1.0000 0.36900  0.45120  0.41450  Biso   1.000  H
  H221     1.0000 0.31780  0.45120  0.45920  Biso   1.000  H
  H222     1.0000 0.05680  0.45400  0.46880  Biso   1.000  H
  H223     1.0000 0.08500  0.45400  0.41530  Biso   1.000  H
  H224     1.0000 0.13830  0.45400  0.45880  Biso   1.000  H
  Cu1      1.0000 0.78116  0.78116  0.71259  Biso   1.000  Cu
  Cu2      1.0000 0.28116  0.28116  0.21259  Biso   1.000  Cu
  Cu3      1.0000 0.21884  0.21884  0.71259  Biso   1.000  Cu
  Cu4      1.0000 0.71884  0.71884  0.21259  Biso   1.000  Cu
  Cu5      1.0000 0.21884  0.78116  0.71259  Biso   1.000  Cu
  Cu6      1.0000 0.71884  0.28116  0.21259  Biso   1.000  Cu
  Cu7      1.0000 0.78116  0.21884  0.71259  Biso   1.000  Cu
  Cu8      1.0000 0.28116  0.71884  0.21259  Biso   1.000  Cu
  Cu9      1.0000 0.21884  0.78116  0.28741  Biso   1.000  Cu
  Cu10     1.0000 0.71884  0.28116  0.78741  Biso   1.000  Cu
  Cu11     1.0000 0.78116  0.21884  0.28741  Biso   1.000  Cu
  Cu12     1.0000 0.28116  0.71884  0.78741  Biso   1.000  Cu
  Cu13     1.0000 0.78116  0.78116  0.28741  Biso   1.000  Cu
  Cu14     1.0000 0.28116  0.28116  0.78741  Biso   1.000  Cu
  Cu15     1.0000 0.21884  0.21884  0.28741  Biso   1.000  Cu
  Cu16     1.0000 0.71884  0.71884  0.78741  Biso   1.000  Cu
  C161     1.0000 0.00000  0.74150  0.79340  Biso   1.000  C
  C162     1.0000 0.00000  0.72880  0.89370  Biso   1.000  C
  H225     1.0000 0.00000  0.74770  0.75990  Biso   1.000  H
  C163     1.0000 0.00000  0.72920  0.95010  Biso   1.000  C
  C164     1.0000 0.00000  0.79270  0.97320  Biso   1.000  C
  C165     1.0000 0.00000  0.66590  0.97270  Biso   1.000  C
  C166     1.0000 0.50000  0.24150  0.29340  Biso   1.000  C
  C167     1.0000 0.50000  0.22880  0.39370  Biso   1.000  C
  H226     1.0000 0.50000  0.24770  0.25990  Biso   1.000  H
  C168     1.0000 0.50000  0.22920  0.45010  Biso   1.000  C
  C169     1.0000 0.50000  0.29270  0.47320  Biso   1.000  C
  C170     1.0000 0.50000  0.16590  0.47270  Biso   1.000  C
  C171     1.0000 0.00000  0.25850  0.79340  Biso   1.000  C
  C172     1.0000 0.00000  0.27120  0.89370  Biso   1.000  C
  H227     1.0000 0.00000  0.25230  0.75990  Biso   1.000  H
  C173     1.0000 0.00000  0.27080  0.95010  Biso   1.000  C
  C174     1.0000 0.00000  0.20730  0.97320  Biso   1.000  C
  C175     1.0000 0.00000  0.33410  0.97270  Biso   1.000  C
  C176     1.0000 0.50000  0.75850  0.29340  Biso   1.000  C
  C177     1.0000 0.50000  0.77120  0.39370  Biso   1.000  C
  H228     1.0000 0.50000  0.75230  0.25990  Biso   1.000  H
  C178     1.0000 0.50000  0.77080  0.45010  Biso   1.000  C
  C179     1.0000 0.50000  0.70730  0.47320  Biso   1.000  C
  C180     1.0000 0.50000  0.83410  0.47270  Biso   1.000  C
  C181     1.0000 0.25850  0.00000  0.79340  Biso   1.000  C
  C182     1.0000 0.27120  0.00000  0.89370  Biso   1.000  C
  H229     1.0000 0.25230  0.00000  0.75990  Biso   1.000  H
  C183     1.0000 0.27080  0.00000  0.95010  Biso   1.000  C
  C184     1.0000 0.20730  0.00000  0.97320  Biso   1.000  C
  C185     1.0000 0.33410  0.00000  0.97270  Biso   1.000  C
  C186     1.0000 0.75850  0.50000  0.29340  Biso   1.000  C
  C187     1.0000 0.77120  0.50000  0.39370  Biso   1.000  C
  H230     1.0000 0.75230  0.50000  0.25990  Biso   1.000  H
  C188     1.0000 0.77080  0.50000  0.45010  Biso   1.000  C
  C189     1.0000 0.70730  0.50000  0.47320  Biso   1.000  C
  C190     1.0000 0.83410  0.50000  0.47270  Biso   1.000  C
  C191     1.0000 0.74150  0.00000  0.79340  Biso   1.000  C
  C192     1.0000 0.72880  0.00000  0.89370  Biso   1.000  C
  H231     1.0000 0.74770  0.00000  0.75990  Biso   1.000  H
  C193     1.0000 0.72920  0.00000  0.95010  Biso   1.000  C
  C194     1.0000 0.79270  0.00000  0.97320  Biso   1.000  C
  C195     1.0000 0.66590  0.00000  0.97270  Biso   1.000  C
  C196     1.0000 0.24150  0.50000  0.29340  Biso   1.000  C
  C197     1.0000 0.22880  0.50000  0.39370  Biso   1.000  C
  H232     1.0000 0.24770  0.50000  0.25990  Biso   1.000  H
  C198     1.0000 0.22920  0.50000  0.45010  Biso   1.000  C
  C199     1.0000 0.29270  0.50000  0.47320  Biso   1.000  C
  C200     1.0000 0.16590  0.50000  0.47270  Biso   1.000  C
  C201     1.0000 0.00000  0.74150  0.20660  Biso   1.000  C
  C202     1.0000 0.00000  0.72880  0.10630  Biso   1.000  C
  H233     1.0000 0.00000  0.74770  0.24010  Biso   1.000  H
  C203     1.0000 0.00000  0.72920  0.04990  Biso   1.000  C
  C204     1.0000 0.00000  0.79270  0.02680  Biso   1.000  C
  C205     1.0000 0.00000  0.66590  0.02730  Biso   1.000  C
  C206     1.0000 0.50000  0.24150  0.70660  Biso   1.000  C
  C207     1.0000 0.50000  0.22880  0.60630  Biso   1.000  C
  H234     1.0000 0.50000  0.24770  0.74010  Biso   1.000  H
  C208     1.0000 0.50000  0.22920  0.54990  Biso   1.000  C
  C209     1.0000 0.50000  0.29270  0.52680  Biso   1.000  C
  C210     1.0000 0.50000  0.16590  0.52730  Biso   1.000  C
  C211     1.0000 0.00000  0.25850  0.20660  Biso   1.000  C
  C212     1.0000 0.00000  0.27120  0.10630  Biso   1.000  C
  H235     1.0000 0.00000  0.25230  0.24010  Biso   1.000  H
  C213     1.0000 0.00000  0.27080  0.04990  Biso   1.000  C
  C214     1.0000 0.00000  0.20730  0.02680  Biso   1.000  C
  C215     1.0000 0.00000  0.33410  0.02730  Biso   1.000  C
  C216     1.0000 0.50000  0.75850  0.70660  Biso   1.000  C
  C217     1.0000 0.50000  0.77120  0.60630  Biso   1.000  C
  H236     1.0000 0.50000  0.75230  0.74010  Biso   1.000  H
  C218     1.0000 0.50000  0.77080  0.54990  Biso   1.000  C
  C219     1.0000 0.50000  0.70730  0.52680  Biso   1.000  C
  C220     1.0000 0.50000  0.83410  0.52730  Biso   1.000  C
  C221     1.0000 0.74150  0.00000  0.20660  Biso   1.000  C
  C222     1.0000 0.72880  0.00000  0.10630  Biso   1.000  C
  H237     1.0000 0.74770  0.00000  0.24010  Biso   1.000  H
  C223     1.0000 0.72920  0.00000  0.04990  Biso   1.000  C
  C224     1.0000 0.79270  0.00000  0.02680  Biso   1.000  C
  C225     1.0000 0.66590  0.00000  0.02730  Biso   1.000  C
  C226     1.0000 0.24150  0.50000  0.70660  Biso   1.000  C
  C227     1.0000 0.22880  0.50000  0.60630  Biso   1.000  C
  H238     1.0000 0.24770  0.50000  0.74010  Biso   1.000  H
  C228     1.0000 0.22920  0.50000  0.54990  Biso   1.000  C
  C229     1.0000 0.29270  0.50000  0.52680  Biso   1.000  C
  C230     1.0000 0.16590  0.50000  0.52730  Biso   1.000  C
  C231     1.0000 0.25850  0.00000  0.20660  Biso   1.000  C
  C232     1.0000 0.27120  0.00000  0.10630  Biso   1.000  C
  H239     1.0000 0.25230  0.00000  0.24010  Biso   1.000  H
  C233     1.0000 0.27080  0.00000  0.04990  Biso   1.000  C
  C234     1.0000 0.20730  0.00000  0.02680  Biso   1.000  C
  C235     1.0000 0.33410  0.00000  0.02730  Biso   1.000  C
  C236     1.0000 0.75850  0.50000  0.70660  Biso   1.000  C
  C237     1.0000 0.77120  0.50000  0.60630  Biso   1.000  C
  H240     1.0000 0.75230  0.50000  0.74010  Biso   1.000  H
  C238     1.0000 0.77080  0.50000  0.54990  Biso   1.000  C
  C239     1.0000 0.70730  0.50000  0.52680  Biso   1.000  C
  C240     1.0000 0.83410  0.50000  0.52730  Biso   1.000  C
