data_image0
_cell_length_a       15.6918
_cell_length_b       15.6918
_cell_length_c       9.46
_cell_angle_alpha    90
_cell_angle_beta     90
_cell_angle_gamma    90

_symmetry_space_group_name_H-M    "P 1"
_symmetry_int_tables_number       1

loop_
  _symmetry_equiv_pos_as_xyz
  'x, y, z'

loop_
  _atom_site_label
  _atom_site_occupancy
  _atom_site_fract_x
  _atom_site_fract_y
  _atom_site_fract_z
  _atom_site_thermal_displace_type
  _atom_site_B_iso_or_equiv
  _atom_site_type_symbol
  C1       1.0000 0.76790  0.80670  0.87490  Biso   1.000  C
  H1       1.0000 0.79160  0.82480  0.78740  Biso   1.000  H
  C2       1.0000 0.69710  0.75400  0.87400  Biso   1.000  C
  H2       1.0000 0.67470  0.73490  0.78620  Biso   1.000  H
  H3       1.0000 0.11940  0.04720  0.62120  Biso   1.000  H
  H4       1.0000 0.11740  0.94890  0.62230  Biso   1.000  H
  C3       1.0000 0.23210  0.19330  0.87490  Biso   1.000  C
  H5       1.0000 0.20840  0.17520  0.78740  Biso   1.000  H
  C4       1.0000 0.30290  0.24600  0.87400  Biso   1.000  C
  H6       1.0000 0.32530  0.26510  0.78620  Biso   1.000  H
  H7       1.0000 0.88060  0.95280  0.62120  Biso   1.000  H
  H8       1.0000 0.88260  0.05110  0.62230  Biso   1.000  H
  C5       1.0000 0.19330  0.76790  0.87490  Biso   1.000  C
  H9       1.0000 0.17520  0.79160  0.78740  Biso   1.000  H
  C6       1.0000 0.24600  0.69710  0.87400  Biso   1.000  C
  H10      1.0000 0.26510  0.67470  0.78620  Biso   1.000  H
  H11      1.0000 0.95280  0.11940  0.62120  Biso   1.000  H
  H12      1.0000 0.05110  0.11740  0.62230  Biso   1.000  H
  C7       1.0000 0.80670  0.23210  0.87490  Biso   1.000  C
  H13      1.0000 0.82480  0.20840  0.78740  Biso   1.000  H
  C8       1.0000 0.75400  0.30290  0.87400  Biso   1.000  C
  H14      1.0000 0.73490  0.32530  0.78620  Biso   1.000  H
  H15      1.0000 0.04720  0.88060  0.62120  Biso   1.000  H
  H16      1.0000 0.94890  0.88260  0.62230  Biso   1.000  H
  C9       1.0000 0.23210  0.80670  0.12510  Biso   1.000  C
  H17      1.0000 0.20840  0.82480  0.21260  Biso   1.000  H
  C10      1.0000 0.30290  0.75400  0.12600  Biso   1.000  C
  H18      1.0000 0.32530  0.73490  0.21380  Biso   1.000  H
  H19      1.0000 0.88060  0.04720  0.37880  Biso   1.000  H
  H20      1.0000 0.88260  0.94890  0.37770  Biso   1.000  H
  C11      1.0000 0.76790  0.19330  0.12510  Biso   1.000  C
  H21      1.0000 0.79160  0.17520  0.21260  Biso   1.000  H
  C12      1.0000 0.69710  0.24600  0.12600  Biso   1.000  C
  H22      1.0000 0.67470  0.26510  0.21380  Biso   1.000  H
  H23      1.0000 0.11940  0.95280  0.37880  Biso   1.000  H
  H24      1.0000 0.11740  0.05110  0.37770  Biso   1.000  H
  C13      1.0000 0.80670  0.76790  0.12510  Biso   1.000  C
  H25      1.0000 0.82480  0.79160  0.21260  Biso   1.000  H
  C14      1.0000 0.75400  0.69710  0.12600  Biso   1.000  C
  H26      1.0000 0.73490  0.67470  0.21380  Biso   1.000  H
  H27      1.0000 0.04720  0.11940  0.37880  Biso   1.000  H
  H28      1.0000 0.94890  0.11740  0.37770  Biso   1.000  H
  C15      1.0000 0.19330  0.23210  0.12510  Biso   1.000  C
  H29      1.0000 0.17520  0.20840  0.21260  Biso   1.000  H
  C16      1.0000 0.24600  0.30290  0.12600  Biso   1.000  C
  H30      1.0000 0.26510  0.32530  0.21380  Biso   1.000  H
  H31      1.0000 0.95280  0.88060  0.37880  Biso   1.000  H
  H32      1.0000 0.05110  0.88260  0.37770  Biso   1.000  H
  C17      1.0000 0.23210  0.19330  0.12510  Biso   1.000  C
  H33      1.0000 0.20840  0.17520  0.21260  Biso   1.000  H
  C18      1.0000 0.30290  0.24600  0.12600  Biso   1.000  C
  H34      1.0000 0.32530  0.26510  0.21380  Biso   1.000  H
  H35      1.0000 0.88060  0.95280  0.37880  Biso   1.000  H
  H36      1.0000 0.88260  0.05110  0.37770  Biso   1.000  H
  C19      1.0000 0.76790  0.80670  0.12510  Biso   1.000  C
  H37      1.0000 0.79160  0.82480  0.21260  Biso   1.000  H
  C20      1.0000 0.69710  0.75400  0.12600  Biso   1.000  C
  H38      1.0000 0.67470  0.73490  0.21380  Biso   1.000  H
  H39      1.0000 0.11940  0.04720  0.37880  Biso   1.000  H
  H40      1.0000 0.11740  0.94890  0.37770  Biso   1.000  H
  C21      1.0000 0.80670  0.23210  0.12510  Biso   1.000  C
  H41      1.0000 0.82480  0.20840  0.21260  Biso   1.000  H
  C22      1.0000 0.75400  0.30290  0.12600  Biso   1.000  C
  H42      1.0000 0.73490  0.32530  0.21380  Biso   1.000  H
  H43      1.0000 0.04720  0.88060  0.37880  Biso   1.000  H
  H44      1.0000 0.94890  0.88260  0.37770  Biso   1.000  H
  C23      1.0000 0.19330  0.76790  0.12510  Biso   1.000  C
  H45      1.0000 0.17520  0.79160  0.21260  Biso   1.000  H
  C24      1.0000 0.24600  0.69710  0.12600  Biso   1.000  C
  H46      1.0000 0.26510  0.67470  0.21380  Biso   1.000  H
  H47      1.0000 0.95280  0.11940  0.37880  Biso   1.000  H
  H48      1.0000 0.05110  0.11740  0.37770  Biso   1.000  H
  C25      1.0000 0.76790  0.19330  0.87490  Biso   1.000  C
  H49      1.0000 0.79160  0.17520  0.78740  Biso   1.000  H
  C26      1.0000 0.69710  0.24600  0.87400  Biso   1.000  C
  H50      1.0000 0.67470  0.26510  0.78620  Biso   1.000  H
  H51      1.0000 0.11940  0.95280  0.62120  Biso   1.000  H
  H52      1.0000 0.11740  0.05110  0.62230  Biso   1.000  H
  C27      1.0000 0.23210  0.80670  0.87490  Biso   1.000  C
  H53      1.0000 0.20840  0.82480  0.78740  Biso   1.000  H
  C28      1.0000 0.30290  0.75400  0.87400  Biso   1.000  C
  H54      1.0000 0.32530  0.73490  0.78620  Biso   1.000  H
  H55      1.0000 0.88060  0.04720  0.62120  Biso   1.000  H
  H56      1.0000 0.88260  0.94890  0.62230  Biso   1.000  H
  C29      1.0000 0.19330  0.23210  0.87490  Biso   1.000  C
  H57      1.0000 0.17520  0.20840  0.78740  Biso   1.000  H
  C30      1.0000 0.24600  0.30290  0.87400  Biso   1.000  C
  H58      1.0000 0.26510  0.32530  0.78620  Biso   1.000  H
  H59      1.0000 0.95280  0.88060  0.62120  Biso   1.000  H
  H60      1.0000 0.05110  0.88260  0.62230  Biso   1.000  H
  C31      1.0000 0.80670  0.76790  0.87490  Biso   1.000  C
  H61      1.0000 0.82480  0.79160  0.78740  Biso   1.000  H
  C32      1.0000 0.75400  0.69710  0.87400  Biso   1.000  C
  H62      1.0000 0.73490  0.67470  0.78620  Biso   1.000  H
  H63      1.0000 0.04720  0.11940  0.62120  Biso   1.000  H
  H64      1.0000 0.94890  0.11740  0.62230  Biso   1.000  H
  Zn1      1.0000 0.00000  0.00000  0.84879  Biso   1.000  Zn
  N1       1.0000 0.00000  0.00000  0.63990  Biso   1.000  N
  Zn2      1.0000 0.00000  0.00000  0.15121  Biso   1.000  Zn
  N2       1.0000 0.00000  0.00000  0.36010  Biso   1.000  N
  C33      1.0000 0.08710  0.00000  0.58700  Biso   1.000  C
  C34      1.0000 0.91290  0.00000  0.58700  Biso   1.000  C
  C35      1.0000 0.00000  0.08710  0.58700  Biso   1.000  C
  C36      1.0000 0.00000  0.91290  0.58700  Biso   1.000  C
  C37      1.0000 0.91290  0.00000  0.41300  Biso   1.000  C
  C38      1.0000 0.08710  0.00000  0.41300  Biso   1.000  C
  C39      1.0000 0.00000  0.08710  0.41300  Biso   1.000  C
  C40      1.0000 0.00000  0.91290  0.41300  Biso   1.000  C
  O1       1.0000 0.91050  0.91050  0.88660  Biso   1.000  O
  C41      1.0000 0.06180  0.06180  0.58600  Biso   1.000  C
  O2       1.0000 0.08950  0.08950  0.88660  Biso   1.000  O
  C42      1.0000 0.93820  0.93820  0.58600  Biso   1.000  C
  O3       1.0000 0.08950  0.91050  0.88660  Biso   1.000  O
  C43      1.0000 0.93820  0.06180  0.58600  Biso   1.000  C
  O4       1.0000 0.91050  0.08950  0.88660  Biso   1.000  O
  C44      1.0000 0.06180  0.93820  0.58600  Biso   1.000  C
  O5       1.0000 0.08950  0.91050  0.11340  Biso   1.000  O
  C45      1.0000 0.93820  0.06180  0.41400  Biso   1.000  C
  O6       1.0000 0.91050  0.08950  0.11340  Biso   1.000  O
  C46      1.0000 0.06180  0.93820  0.41400  Biso   1.000  C
  O7       1.0000 0.91050  0.91050  0.11340  Biso   1.000  O
  C47      1.0000 0.06180  0.06180  0.41400  Biso   1.000  C
  O8       1.0000 0.08950  0.08950  0.11340  Biso   1.000  O
  C48      1.0000 0.93820  0.93820  0.41400  Biso   1.000  C
  C49      1.0000 0.88550  0.88550  0.00000  Biso   1.000  C
  C50      1.0000 0.58470  0.58470  0.00000  Biso   1.000  C
  C51      1.0000 0.11450  0.11450  0.00000  Biso   1.000  C
  C52      1.0000 0.41530  0.41530  0.00000  Biso   1.000  C
  C53      1.0000 0.11450  0.88550  0.00000  Biso   1.000  C
  C54      1.0000 0.41530  0.58470  0.00000  Biso   1.000  C
  C55      1.0000 0.88550  0.11450  0.00000  Biso   1.000  C
  C56      1.0000 0.58470  0.41530  0.00000  Biso   1.000  C
  C57      1.0000 0.80520  0.83380  0.00000  Biso   1.000  C
  C58      1.0000 0.65770  0.72820  0.00000  Biso   1.000  C
  C59      1.0000 0.57570  0.67500  0.00000  Biso   1.000  C
  C60      1.0000 0.19480  0.16620  0.00000  Biso   1.000  C
  C61      1.0000 0.34230  0.27180  0.00000  Biso   1.000  C
  C62      1.0000 0.42430  0.32500  0.00000  Biso   1.000  C
  C63      1.0000 0.16620  0.80520  0.00000  Biso   1.000  C
  C64      1.0000 0.27180  0.65770  0.00000  Biso   1.000  C
  C65      1.0000 0.32500  0.57570  0.00000  Biso   1.000  C
  C66      1.0000 0.83380  0.19480  0.00000  Biso   1.000  C
  C67      1.0000 0.72820  0.34230  0.00000  Biso   1.000  C
  C68      1.0000 0.67500  0.42430  0.00000  Biso   1.000  C
  C69      1.0000 0.19480  0.83380  0.00000  Biso   1.000  C
  C70      1.0000 0.34230  0.72820  0.00000  Biso   1.000  C
  C71      1.0000 0.42430  0.67500  0.00000  Biso   1.000  C
  C72      1.0000 0.80520  0.16620  0.00000  Biso   1.000  C
  C73      1.0000 0.65770  0.27180  0.00000  Biso   1.000  C
  C74      1.0000 0.57570  0.32500  0.00000  Biso   1.000  C
  C75      1.0000 0.83380  0.80520  0.00000  Biso   1.000  C
  C76      1.0000 0.72820  0.65770  0.00000  Biso   1.000  C
  C77      1.0000 0.67500  0.57570  0.00000  Biso   1.000  C
  C78      1.0000 0.16620  0.19480  0.00000  Biso   1.000  C
  C79      1.0000 0.27180  0.34230  0.00000  Biso   1.000  C
  C80      1.0000 0.32500  0.42430  0.00000  Biso   1.000  C
  C81      1.0000 0.50000  0.71670  0.00000  Biso   1.000  C
  H65      1.0000 0.50000  0.77720  0.00000  Biso   1.000  H
  C82      1.0000 0.50000  0.28330  0.00000  Biso   1.000  C
  H66      1.0000 0.50000  0.22280  0.00000  Biso   1.000  H
  C83      1.0000 0.28330  0.50000  0.00000  Biso   1.000  C
  H67      1.0000 0.22280  0.50000  0.00000  Biso   1.000  H
  C84      1.0000 0.71670  0.50000  0.00000  Biso   1.000  C
  H68      1.0000 0.77720  0.50000  0.00000  Biso   1.000  H
  C85      1.0000 0.54390  0.50000  0.00000  Biso   1.000  C
  C86      1.0000 0.45610  0.50000  0.00000  Biso   1.000  C
  C87      1.0000 0.50000  0.54390  0.00000  Biso   1.000  C
  C88      1.0000 0.50000  0.45610  0.00000  Biso   1.000  C
