data_image0
_cell_length_a       11.355
_cell_length_b       11.355
_cell_length_c       8.0625
_cell_angle_alpha    90
_cell_angle_beta     90
_cell_angle_gamma    120

_symmetry_space_group_name_H-M    "P 1"
_symmetry_int_tables_number       1

loop_
  _symmetry_equiv_pos_as_xyz
  'x, y, z'

loop_
  _atom_site_label
  _atom_site_occupancy
  _atom_site_fract_x
  _atom_site_fract_y
  _atom_site_fract_z
  _atom_site_thermal_displace_type
  _atom_site_B_iso_or_equiv
  _atom_site_type_symbol
  N1       1.0000 0.12580  0.17210  0.15400  Biso   1.000  N
  N2       1.0000 0.30600  0.35700  0.24400  Biso   1.000  N
  C1       1.0000 0.07500  0.21500  0.28500  Biso   1.000  C
  C2       1.0000 0.19600  0.34000  0.33300  Biso   1.000  C
  N3       1.0000 0.82790  0.95370  0.15400  Biso   1.000  N
  N4       1.0000 0.64300  0.94900  0.24400  Biso   1.000  N
  C3       1.0000 0.78500  0.86000  0.28500  Biso   1.000  C
  C4       1.0000 0.66000  0.85600  0.33300  Biso   1.000  C
  N5       1.0000 0.04630  0.87420  0.15400  Biso   1.000  N
  N6       1.0000 0.05100  0.69400  0.24400  Biso   1.000  N
  C5       1.0000 0.14000  0.92500  0.28500  Biso   1.000  C
  C6       1.0000 0.14400  0.80400  0.33300  Biso   1.000  C
  N7       1.0000 0.82790  0.87420  0.84600  Biso   1.000  N
  N8       1.0000 0.64300  0.69400  0.75600  Biso   1.000  N
  C7       1.0000 0.78500  0.92500  0.71500  Biso   1.000  C
  C8       1.0000 0.66000  0.80400  0.66700  Biso   1.000  C
  N9       1.0000 0.04630  0.17210  0.84600  Biso   1.000  N
  N10      1.0000 0.05100  0.35700  0.75600  Biso   1.000  N
  C9       1.0000 0.14000  0.21500  0.71500  Biso   1.000  C
  C10      1.0000 0.14400  0.34000  0.66700  Biso   1.000  C
  N11      1.0000 0.12580  0.95370  0.84600  Biso   1.000  N
  N12      1.0000 0.30600  0.94900  0.75600  Biso   1.000  N
  C11      1.0000 0.07500  0.86000  0.71500  Biso   1.000  C
  C12      1.0000 0.19600  0.85600  0.66700  Biso   1.000  C
  N13      1.0000 0.87420  0.82790  0.84600  Biso   1.000  N
  N14      1.0000 0.69400  0.64300  0.75600  Biso   1.000  N
  C13      1.0000 0.92500  0.78500  0.71500  Biso   1.000  C
  C14      1.0000 0.80400  0.66000  0.66700  Biso   1.000  C
  N15      1.0000 0.17210  0.04630  0.84600  Biso   1.000  N
  N16      1.0000 0.35700  0.05100  0.75600  Biso   1.000  N
  C15      1.0000 0.21500  0.14000  0.71500  Biso   1.000  C
  C16      1.0000 0.34000  0.14400  0.66700  Biso   1.000  C
  N17      1.0000 0.95370  0.12580  0.84600  Biso   1.000  N
  N18      1.0000 0.94900  0.30600  0.75600  Biso   1.000  N
  C17      1.0000 0.86000  0.07500  0.71500  Biso   1.000  C
  C18      1.0000 0.85600  0.19600  0.66700  Biso   1.000  C
  N19      1.0000 0.17210  0.12580  0.15400  Biso   1.000  N
  N20      1.0000 0.35700  0.30600  0.24400  Biso   1.000  N
  C19      1.0000 0.21500  0.07500  0.28500  Biso   1.000  C
  C20      1.0000 0.34000  0.19600  0.33300  Biso   1.000  C
  N21      1.0000 0.95370  0.82790  0.15400  Biso   1.000  N
  N22      1.0000 0.94900  0.64300  0.24400  Biso   1.000  N
  C21      1.0000 0.86000  0.78500  0.28500  Biso   1.000  C
  C22      1.0000 0.85600  0.66000  0.33300  Biso   1.000  C
  N23      1.0000 0.87420  0.04630  0.15400  Biso   1.000  N
  N24      1.0000 0.69400  0.05100  0.24400  Biso   1.000  N
  C23      1.0000 0.92500  0.14000  0.28500  Biso   1.000  C
  C24      1.0000 0.80400  0.14400  0.33300  Biso   1.000  C
  Co1      1.0000 0.00000  0.00000  0.00000  Biso   1.000  Co
  C25      1.0000 0.25870  0.25870  0.13500  Biso   1.000  C
  C26      1.0000 0.45870  0.45870  0.24600  Biso   1.000  C
  C27      1.0000 0.49200  0.49200  0.43100  Biso   1.000  C
  C28      1.0000 0.74130  0.00000  0.13500  Biso   1.000  C
  C29      1.0000 0.54130  0.00000  0.24600  Biso   1.000  C
  C30      1.0000 0.50800  0.00000  0.43100  Biso   1.000  C
  C31      1.0000 0.00000  0.74130  0.13500  Biso   1.000  C
  C32      1.0000 0.00000  0.54130  0.24600  Biso   1.000  C
  C33      1.0000 0.00000  0.50800  0.43100  Biso   1.000  C
  C34      1.0000 0.74130  0.74130  0.86500  Biso   1.000  C
  C35      1.0000 0.54130  0.54130  0.75400  Biso   1.000  C
  C36      1.0000 0.50800  0.50800  0.56900  Biso   1.000  C
  C37      1.0000 0.00000  0.25870  0.86500  Biso   1.000  C
  C38      1.0000 0.00000  0.45870  0.75400  Biso   1.000  C
  C39      1.0000 0.00000  0.49200  0.56900  Biso   1.000  C
  C40      1.0000 0.25870  0.00000  0.86500  Biso   1.000  C
  C41      1.0000 0.45870  0.00000  0.75400  Biso   1.000  C
  C42      1.0000 0.49200  0.00000  0.56900  Biso   1.000  C
