data_image0
_cell_length_a       15.578
_cell_length_b       19.131
_cell_length_c       25.039
_cell_angle_alpha    90
_cell_angle_beta     90
_cell_angle_gamma    90

_symmetry_space_group_name_H-M    "P 1"
_symmetry_int_tables_number       1

loop_
  _symmetry_equiv_pos_as_xyz
  'x, y, z'

loop_
  _atom_site_label
  _atom_site_occupancy
  _atom_site_fract_x
  _atom_site_fract_y
  _atom_site_fract_z
  _atom_site_thermal_displace_type
  _atom_site_B_iso_or_equiv
  _atom_site_type_symbol
  Zn1      1.0000 0.54678  0.16217  0.72594  Biso   1.000  Zn
  N1       1.0000 0.56140  0.12990  0.80187  Biso   1.000  N
  N2       1.0000 0.43390  0.21410  0.71910  Biso   1.000  N
  O1       1.0000 0.66790  0.10290  0.69030  Biso   1.000  O
  O2       1.0000 0.53860  0.09550  0.66700  Biso   1.000  O
  N3       1.0000 0.62210  0.16550  0.83217  Biso   1.000  N
  C1       1.0000 0.52890  0.08210  0.83310  Biso   1.000  C
  C2       1.0000 0.35400  0.19490  0.71020  Biso   1.000  C
  C3       1.0000 0.62200  0.13590  0.87940  Biso   1.000  C
  N4       1.0000 0.56340  0.08450  0.88260  Biso   1.000  N
  C4       1.0000 0.46300  0.03200  0.81650  Biso   1.000  C
  C5       1.0000 0.32600  0.12030  0.70790  Biso   1.000  C
  C6       1.0000 0.68070  0.15540  0.92360  Biso   1.000  C
  Zn2      1.0000 0.52553  0.03584  0.94986  Biso   1.000  Zn
  H1       1.0000 0.40730  0.04980  0.82560  Biso   1.000  H
  H2       1.0000 0.47220  0.98820  0.83440  Biso   1.000  H
  H3       1.0000 0.46640  0.02510  0.77860  Biso   1.000  H
  H4       1.0000 0.37290  0.09060  0.71790  Biso   1.000  H
  H5       1.0000 0.30790  0.10920  0.67230  Biso   1.000  H
  H6       1.0000 0.27900  0.11330  0.73210  Biso   1.000  H
  H7       1.0000 0.69520  0.11440  0.94380  Biso   1.000  H
  H8       1.0000 0.65280  0.18860  0.94650  Biso   1.000  H
  H9       1.0000 0.73200  0.17570  0.90910  Biso   1.000  H
  O3       1.0000 0.51400  0.12050  0.99900  Biso   1.000  O
  O4       1.0000 0.39570  0.03920  0.93950  Biso   1.000  O
  O5       1.0000 0.64040  0.01620  0.98630  Biso   1.000  O
  O6       1.0000 0.52160  0.93400  0.92590  Biso   1.000  O
  C7       1.0000 0.49370  0.11940  0.04810  Biso   1.000  C
  C8       1.0000 0.34280  0.01200  0.96950  Biso   1.000  C
  C9       1.0000 0.48890  0.18700  0.07690  Biso   1.000  C
  C10      1.0000 0.25080  0.00980  0.95180  Biso   1.000  C
  C11      1.0000 0.47620  0.18820  0.13010  Biso   1.000  C
  C12      1.0000 0.19100  0.97040  0.97930  Biso   1.000  C
  C13      1.0000 0.22710  0.04390  0.90580  Biso   1.000  C
  C14      1.0000 0.11540  0.08390  0.84080  Biso   1.000  C
  H10      1.0000 0.47350  0.14600  0.14840  Biso   1.000  H
  C15      1.0000 0.10800  0.96370  0.95970  Biso   1.000  C
  H11      1.0000 0.20630  0.94840  0.01100  Biso   1.000  H
  C16      1.0000 0.14280  0.04230  0.88850  Biso   1.000  C
  H12      1.0000 0.26800  0.06830  0.88620  Biso   1.000  H
  C17      1.0000 0.08030  0.99880  0.91460  Biso   1.000  C
  O7       1.0000 0.05200  0.91390  0.98380  Biso   1.000  O
  H13      1.0000 0.02440  0.99450  0.90180  Biso   1.000  H
  H14      1.0000 0.06450  0.90810  0.01530  Biso   1.000  H
  H15      1.0000 0.06980  0.93460  0.97750  Biso   1.000  H
  H16      1.0000 0.41550  0.26760  0.22130  Biso   1.000  H
  Zn3      1.0000 0.95322  0.83783  0.22594  Biso   1.000  Zn
  N5       1.0000 0.93860  0.87010  0.30187  Biso   1.000  N
  N6       1.0000 0.06610  0.78590  0.21910  Biso   1.000  N
  O8       1.0000 0.83210  0.89710  0.19030  Biso   1.000  O
  O9       1.0000 0.96140  0.90450  0.16700  Biso   1.000  O
  N7       1.0000 0.87790  0.83450  0.33217  Biso   1.000  N
  C18      1.0000 0.97110  0.91790  0.33310  Biso   1.000  C
  C19      1.0000 0.14600  0.80510  0.21020  Biso   1.000  C
  C20      1.0000 0.87800  0.86410  0.37940  Biso   1.000  C
  N8       1.0000 0.93660  0.91550  0.38260  Biso   1.000  N
  C21      1.0000 0.03700  0.96800  0.31650  Biso   1.000  C
  C22      1.0000 0.17400  0.87970  0.20790  Biso   1.000  C
  C23      1.0000 0.81930  0.84460  0.42360  Biso   1.000  C
  Zn4      1.0000 0.97447  0.96416  0.44986  Biso   1.000  Zn
  H17      1.0000 0.09270  0.95020  0.32560  Biso   1.000  H
  H18      1.0000 0.02780  0.01180  0.33440  Biso   1.000  H
  H19      1.0000 0.03360  0.97490  0.27860  Biso   1.000  H
  H20      1.0000 0.12710  0.90940  0.21790  Biso   1.000  H
  H21      1.0000 0.19210  0.89080  0.17230  Biso   1.000  H
  H22      1.0000 0.22100  0.88670  0.23210  Biso   1.000  H
  H23      1.0000 0.80480  0.88560  0.44380  Biso   1.000  H
  H24      1.0000 0.84720  0.81140  0.44650  Biso   1.000  H
  H25      1.0000 0.76800  0.82430  0.40910  Biso   1.000  H
  O10      1.0000 0.98600  0.87950  0.49900  Biso   1.000  O
  O11      1.0000 0.10430  0.96080  0.43950  Biso   1.000  O
  O12      1.0000 0.85960  0.98380  0.48630  Biso   1.000  O
  O13      1.0000 0.97840  0.06600  0.42590  Biso   1.000  O
  C24      1.0000 0.00630  0.88060  0.54810  Biso   1.000  C
  C25      1.0000 0.15720  0.98800  0.46950  Biso   1.000  C
  C26      1.0000 0.01110  0.81300  0.57690  Biso   1.000  C
  C27      1.0000 0.24920  0.99020  0.45180  Biso   1.000  C
  C28      1.0000 0.02380  0.81180  0.63010  Biso   1.000  C
  C29      1.0000 0.30900  0.02960  0.47930  Biso   1.000  C
  C30      1.0000 0.27290  0.95610  0.40580  Biso   1.000  C
  C31      1.0000 0.38460  0.91610  0.34080  Biso   1.000  C
  H26      1.0000 0.02650  0.85400  0.64840  Biso   1.000  H
  C32      1.0000 0.39200  0.03630  0.45970  Biso   1.000  C
  H27      1.0000 0.29370  0.05160  0.51100  Biso   1.000  H
  C33      1.0000 0.35720  0.95770  0.38850  Biso   1.000  C
  H28      1.0000 0.23200  0.93170  0.38620  Biso   1.000  H
  C34      1.0000 0.41970  0.00120  0.41460  Biso   1.000  C
  O14      1.0000 0.44800  0.08610  0.48380  Biso   1.000  O
  H29      1.0000 0.47560  0.00550  0.40180  Biso   1.000  H
  H30      1.0000 0.43550  0.09190  0.51530  Biso   1.000  H
  H31      1.0000 0.43020  0.06540  0.47750  Biso   1.000  H
  H32      1.0000 0.08450  0.73240  0.72130  Biso   1.000  H
  Zn5      1.0000 0.45322  0.66217  0.27406  Biso   1.000  Zn
  N9       1.0000 0.43860  0.62990  0.19813  Biso   1.000  N
  N10      1.0000 0.56610  0.71410  0.28090  Biso   1.000  N
  O15      1.0000 0.33210  0.60290  0.30970  Biso   1.000  O
  O16      1.0000 0.46140  0.59550  0.33300  Biso   1.000  O
  N11      1.0000 0.37790  0.66550  0.16783  Biso   1.000  N
  C35      1.0000 0.47110  0.58210  0.16690  Biso   1.000  C
  C36      1.0000 0.64600  0.69490  0.28980  Biso   1.000  C
  C37      1.0000 0.37800  0.63590  0.12060  Biso   1.000  C
  N12      1.0000 0.43660  0.58450  0.11740  Biso   1.000  N
  C38      1.0000 0.53700  0.53200  0.18350  Biso   1.000  C
  C39      1.0000 0.67400  0.62030  0.29210  Biso   1.000  C
  C40      1.0000 0.31930  0.65540  0.07640  Biso   1.000  C
  Zn6      1.0000 0.47447  0.53584  0.05014  Biso   1.000  Zn
  H33      1.0000 0.59270  0.54980  0.17440  Biso   1.000  H
  H34      1.0000 0.52780  0.48820  0.16560  Biso   1.000  H
  H35      1.0000 0.53360  0.52510  0.22140  Biso   1.000  H
  H36      1.0000 0.62710  0.59060  0.28210  Biso   1.000  H
  H37      1.0000 0.69210  0.60920  0.32770  Biso   1.000  H
  H38      1.0000 0.72100  0.61330  0.26790  Biso   1.000  H
  H39      1.0000 0.30480  0.61440  0.05620  Biso   1.000  H
  H40      1.0000 0.34720  0.68860  0.05350  Biso   1.000  H
  H41      1.0000 0.26800  0.67570  0.09090  Biso   1.000  H
  O17      1.0000 0.48600  0.62050  0.00100  Biso   1.000  O
  O18      1.0000 0.60430  0.53920  0.06050  Biso   1.000  O
  O19      1.0000 0.35960  0.51620  0.01370  Biso   1.000  O
  O20      1.0000 0.47840  0.43400  0.07410  Biso   1.000  O
  C41      1.0000 0.50630  0.61940  0.95190  Biso   1.000  C
  C42      1.0000 0.65720  0.51200  0.03050  Biso   1.000  C
  C43      1.0000 0.51110  0.68700  0.92310  Biso   1.000  C
  C44      1.0000 0.74920  0.50980  0.04820  Biso   1.000  C
  C45      1.0000 0.52380  0.68820  0.86990  Biso   1.000  C
  C46      1.0000 0.80900  0.47040  0.02070  Biso   1.000  C
  C47      1.0000 0.77290  0.54390  0.09420  Biso   1.000  C
  C48      1.0000 0.88460  0.58390  0.15920  Biso   1.000  C
  H42      1.0000 0.52650  0.64600  0.85160  Biso   1.000  H
  C49      1.0000 0.89200  0.46370  0.04030  Biso   1.000  C
  H43      1.0000 0.79370  0.44840  0.98900  Biso   1.000  H
  C50      1.0000 0.85720  0.54230  0.11150  Biso   1.000  C
  H44      1.0000 0.73200  0.56830  0.11380  Biso   1.000  H
  C51      1.0000 0.91970  0.49880  0.08540  Biso   1.000  C
  O21      1.0000 0.94800  0.41390  0.01620  Biso   1.000  O
  H45      1.0000 0.97560  0.49450  0.09820  Biso   1.000  H
  H46      1.0000 0.93550  0.40810  0.98470  Biso   1.000  H
  H47      1.0000 0.93020  0.43460  0.02250  Biso   1.000  H
  H48      1.0000 0.58450  0.76760  0.77870  Biso   1.000  H
  Zn7      1.0000 0.04678  0.33783  0.77406  Biso   1.000  Zn
  N13      1.0000 0.06140  0.37010  0.69813  Biso   1.000  N
  N14      1.0000 0.93390  0.28590  0.78090  Biso   1.000  N
  O22      1.0000 0.16790  0.39710  0.80970  Biso   1.000  O
  O23      1.0000 0.03860  0.40450  0.83300  Biso   1.000  O
  N15      1.0000 0.12210  0.33450  0.66783  Biso   1.000  N
  C52      1.0000 0.02890  0.41790  0.66690  Biso   1.000  C
  C53      1.0000 0.85400  0.30510  0.78980  Biso   1.000  C
  C54      1.0000 0.12200  0.36410  0.62060  Biso   1.000  C
  N16      1.0000 0.06340  0.41550  0.61740  Biso   1.000  N
  C55      1.0000 0.96300  0.46800  0.68350  Biso   1.000  C
  C56      1.0000 0.82600  0.37970  0.79210  Biso   1.000  C
  C57      1.0000 0.18070  0.34460  0.57640  Biso   1.000  C
  Zn8      1.0000 0.02553  0.46416  0.55014  Biso   1.000  Zn
  H49      1.0000 0.90730  0.45020  0.67440  Biso   1.000  H
  H50      1.0000 0.97220  0.51180  0.66560  Biso   1.000  H
  H51      1.0000 0.96640  0.47490  0.72140  Biso   1.000  H
  H52      1.0000 0.87290  0.40940  0.78210  Biso   1.000  H
  H53      1.0000 0.80790  0.39080  0.82770  Biso   1.000  H
  H54      1.0000 0.77900  0.38670  0.76790  Biso   1.000  H
  H55      1.0000 0.19520  0.38560  0.55620  Biso   1.000  H
  H56      1.0000 0.15280  0.31140  0.55350  Biso   1.000  H
  H57      1.0000 0.23200  0.32430  0.59090  Biso   1.000  H
  O24      1.0000 0.01400  0.37950  0.50100  Biso   1.000  O
  O25      1.0000 0.89570  0.46080  0.56050  Biso   1.000  O
  O26      1.0000 0.14040  0.48380  0.51370  Biso   1.000  O
  O27      1.0000 0.02160  0.56600  0.57410  Biso   1.000  O
  C58      1.0000 0.99370  0.38060  0.45190  Biso   1.000  C
  C59      1.0000 0.84280  0.48800  0.53050  Biso   1.000  C
  C60      1.0000 0.98890  0.31300  0.42310  Biso   1.000  C
  C61      1.0000 0.75080  0.49020  0.54820  Biso   1.000  C
  C62      1.0000 0.97620  0.31180  0.36990  Biso   1.000  C
  C63      1.0000 0.69100  0.52960  0.52070  Biso   1.000  C
  C64      1.0000 0.72710  0.45610  0.59420  Biso   1.000  C
  C65      1.0000 0.61540  0.41610  0.65920  Biso   1.000  C
  H58      1.0000 0.97350  0.35400  0.35160  Biso   1.000  H
  C66      1.0000 0.60800  0.53630  0.54030  Biso   1.000  C
  H59      1.0000 0.70630  0.55160  0.48900  Biso   1.000  H
  C67      1.0000 0.64280  0.45770  0.61150  Biso   1.000  C
  H60      1.0000 0.76800  0.43170  0.61380  Biso   1.000  H
  C68      1.0000 0.58030  0.50120  0.58540  Biso   1.000  C
  O28      1.0000 0.55200  0.58610  0.51620  Biso   1.000  O
  H61      1.0000 0.52440  0.50550  0.59820  Biso   1.000  H
  H62      1.0000 0.56450  0.59190  0.48470  Biso   1.000  H
  H63      1.0000 0.56980  0.56540  0.52250  Biso   1.000  H
  H64      1.0000 0.91550  0.23240  0.27870  Biso   1.000  H
  Zn9      1.0000 0.45322  0.83783  0.27406  Biso   1.000  Zn
  N17      1.0000 0.43860  0.87010  0.19813  Biso   1.000  N
  N18      1.0000 0.56610  0.78590  0.28090  Biso   1.000  N
  O29      1.0000 0.33210  0.89710  0.30970  Biso   1.000  O
  O30      1.0000 0.46140  0.90450  0.33300  Biso   1.000  O
  N19      1.0000 0.37790  0.83450  0.16783  Biso   1.000  N
  C69      1.0000 0.47110  0.91790  0.16690  Biso   1.000  C
  C70      1.0000 0.64600  0.80510  0.28980  Biso   1.000  C
  C71      1.0000 0.37800  0.86410  0.12060  Biso   1.000  C
  N20      1.0000 0.43660  0.91550  0.11740  Biso   1.000  N
  C72      1.0000 0.53700  0.96800  0.18350  Biso   1.000  C
  C73      1.0000 0.67400  0.87970  0.29210  Biso   1.000  C
  C74      1.0000 0.31930  0.84460  0.07640  Biso   1.000  C
  Zn10     1.0000 0.47447  0.96416  0.05014  Biso   1.000  Zn
  H65      1.0000 0.59270  0.95020  0.17440  Biso   1.000  H
  H66      1.0000 0.52780  0.01180  0.16560  Biso   1.000  H
  H67      1.0000 0.53360  0.97490  0.22140  Biso   1.000  H
  H68      1.0000 0.62710  0.90940  0.28210  Biso   1.000  H
  H69      1.0000 0.69210  0.89080  0.32770  Biso   1.000  H
  H70      1.0000 0.72100  0.88670  0.26790  Biso   1.000  H
  H71      1.0000 0.30480  0.88560  0.05620  Biso   1.000  H
  H72      1.0000 0.34720  0.81140  0.05350  Biso   1.000  H
  H73      1.0000 0.26800  0.82430  0.09090  Biso   1.000  H
  O31      1.0000 0.48600  0.87950  0.00100  Biso   1.000  O
  O32      1.0000 0.60430  0.96080  0.06050  Biso   1.000  O
  O33      1.0000 0.35960  0.98380  0.01370  Biso   1.000  O
  O34      1.0000 0.47840  0.06600  0.07410  Biso   1.000  O
  C75      1.0000 0.50630  0.88060  0.95190  Biso   1.000  C
  C76      1.0000 0.65720  0.98800  0.03050  Biso   1.000  C
  C77      1.0000 0.51110  0.81300  0.92310  Biso   1.000  C
  C78      1.0000 0.74920  0.99020  0.04820  Biso   1.000  C
  C79      1.0000 0.52380  0.81180  0.86990  Biso   1.000  C
  C80      1.0000 0.80900  0.02960  0.02070  Biso   1.000  C
  C81      1.0000 0.77290  0.95610  0.09420  Biso   1.000  C
  C82      1.0000 0.88460  0.91610  0.15920  Biso   1.000  C
  H74      1.0000 0.52650  0.85400  0.85160  Biso   1.000  H
  C83      1.0000 0.89200  0.03630  0.04030  Biso   1.000  C
  H75      1.0000 0.79370  0.05160  0.98900  Biso   1.000  H
  C84      1.0000 0.85720  0.95770  0.11150  Biso   1.000  C
  H76      1.0000 0.73200  0.93170  0.11380  Biso   1.000  H
  C85      1.0000 0.91970  0.00120  0.08540  Biso   1.000  C
  O35      1.0000 0.94800  0.08610  0.01620  Biso   1.000  O
  H77      1.0000 0.97560  0.00550  0.09820  Biso   1.000  H
  H78      1.0000 0.93550  0.09190  0.98470  Biso   1.000  H
  H79      1.0000 0.93020  0.06540  0.02250  Biso   1.000  H
  H80      1.0000 0.58450  0.73240  0.77870  Biso   1.000  H
  Zn11     1.0000 0.04678  0.16217  0.77406  Biso   1.000  Zn
  N21      1.0000 0.06140  0.12990  0.69813  Biso   1.000  N
  N22      1.0000 0.93390  0.21410  0.78090  Biso   1.000  N
  O36      1.0000 0.16790  0.10290  0.80970  Biso   1.000  O
  O37      1.0000 0.03860  0.09550  0.83300  Biso   1.000  O
  N23      1.0000 0.12210  0.16550  0.66783  Biso   1.000  N
  C86      1.0000 0.02890  0.08210  0.66690  Biso   1.000  C
  C87      1.0000 0.85400  0.19490  0.78980  Biso   1.000  C
  C88      1.0000 0.12200  0.13590  0.62060  Biso   1.000  C
  N24      1.0000 0.06340  0.08450  0.61740  Biso   1.000  N
  C89      1.0000 0.96300  0.03200  0.68350  Biso   1.000  C
  C90      1.0000 0.82600  0.12030  0.79210  Biso   1.000  C
  C91      1.0000 0.18070  0.15540  0.57640  Biso   1.000  C
  Zn12     1.0000 0.02553  0.03584  0.55014  Biso   1.000  Zn
  H81      1.0000 0.90730  0.04980  0.67440  Biso   1.000  H
  H82      1.0000 0.97220  0.98820  0.66560  Biso   1.000  H
  H83      1.0000 0.96640  0.02510  0.72140  Biso   1.000  H
  H84      1.0000 0.87290  0.09060  0.78210  Biso   1.000  H
  H85      1.0000 0.80790  0.10920  0.82770  Biso   1.000  H
  H86      1.0000 0.77900  0.11330  0.76790  Biso   1.000  H
  H87      1.0000 0.19520  0.11440  0.55620  Biso   1.000  H
  H88      1.0000 0.15280  0.18860  0.55350  Biso   1.000  H
  H89      1.0000 0.23200  0.17570  0.59090  Biso   1.000  H
  O38      1.0000 0.01400  0.12050  0.50100  Biso   1.000  O
  O39      1.0000 0.89570  0.03920  0.56050  Biso   1.000  O
  O40      1.0000 0.14040  0.01620  0.51370  Biso   1.000  O
  O41      1.0000 0.02160  0.93400  0.57410  Biso   1.000  O
  C92      1.0000 0.99370  0.11940  0.45190  Biso   1.000  C
  C93      1.0000 0.84280  0.01200  0.53050  Biso   1.000  C
  C94      1.0000 0.98890  0.18700  0.42310  Biso   1.000  C
  C95      1.0000 0.75080  0.00980  0.54820  Biso   1.000  C
  C96      1.0000 0.97620  0.18820  0.36990  Biso   1.000  C
  C97      1.0000 0.69100  0.97040  0.52070  Biso   1.000  C
  C98      1.0000 0.72710  0.04390  0.59420  Biso   1.000  C
  C99      1.0000 0.61540  0.08390  0.65920  Biso   1.000  C
  H90      1.0000 0.97350  0.14600  0.35160  Biso   1.000  H
  C100     1.0000 0.60800  0.96370  0.54030  Biso   1.000  C
  H91      1.0000 0.70630  0.94840  0.48900  Biso   1.000  H
  C101     1.0000 0.64280  0.04230  0.61150  Biso   1.000  C
  H92      1.0000 0.76800  0.06830  0.61380  Biso   1.000  H
  C102     1.0000 0.58030  0.99880  0.58540  Biso   1.000  C
  O42      1.0000 0.55200  0.91390  0.51620  Biso   1.000  O
  H93      1.0000 0.52440  0.99450  0.59820  Biso   1.000  H
  H94      1.0000 0.56450  0.90810  0.48470  Biso   1.000  H
  H95      1.0000 0.56980  0.93460  0.52250  Biso   1.000  H
  H96      1.0000 0.91550  0.26760  0.27870  Biso   1.000  H
  Zn13     1.0000 0.54678  0.33783  0.72594  Biso   1.000  Zn
  N25      1.0000 0.56140  0.37010  0.80187  Biso   1.000  N
  N26      1.0000 0.43390  0.28590  0.71910  Biso   1.000  N
  O43      1.0000 0.66790  0.39710  0.69030  Biso   1.000  O
  O44      1.0000 0.53860  0.40450  0.66700  Biso   1.000  O
  N27      1.0000 0.62210  0.33450  0.83217  Biso   1.000  N
  C103     1.0000 0.52890  0.41790  0.83310  Biso   1.000  C
  C104     1.0000 0.35400  0.30510  0.71020  Biso   1.000  C
  C105     1.0000 0.62200  0.36410  0.87940  Biso   1.000  C
  N28      1.0000 0.56340  0.41550  0.88260  Biso   1.000  N
  C106     1.0000 0.46300  0.46800  0.81650  Biso   1.000  C
  C107     1.0000 0.32600  0.37970  0.70790  Biso   1.000  C
  C108     1.0000 0.68070  0.34460  0.92360  Biso   1.000  C
  Zn14     1.0000 0.52553  0.46416  0.94986  Biso   1.000  Zn
  H97      1.0000 0.40730  0.45020  0.82560  Biso   1.000  H
  H98      1.0000 0.47220  0.51180  0.83440  Biso   1.000  H
  H99      1.0000 0.46640  0.47490  0.77860  Biso   1.000  H
  H100     1.0000 0.37290  0.40940  0.71790  Biso   1.000  H
  H101     1.0000 0.30790  0.39080  0.67230  Biso   1.000  H
  H102     1.0000 0.27900  0.38670  0.73210  Biso   1.000  H
  H103     1.0000 0.69520  0.38560  0.94380  Biso   1.000  H
  H104     1.0000 0.65280  0.31140  0.94650  Biso   1.000  H
  H105     1.0000 0.73200  0.32430  0.90910  Biso   1.000  H
  O45      1.0000 0.51400  0.37950  0.99900  Biso   1.000  O
  O46      1.0000 0.39570  0.46080  0.93950  Biso   1.000  O
  O47      1.0000 0.64040  0.48380  0.98630  Biso   1.000  O
  O48      1.0000 0.52160  0.56600  0.92590  Biso   1.000  O
  C109     1.0000 0.49370  0.38060  0.04810  Biso   1.000  C
  C110     1.0000 0.34280  0.48800  0.96950  Biso   1.000  C
  C111     1.0000 0.48890  0.31300  0.07690  Biso   1.000  C
  C112     1.0000 0.25080  0.49020  0.95180  Biso   1.000  C
  C113     1.0000 0.47620  0.31180  0.13010  Biso   1.000  C
  C114     1.0000 0.19100  0.52960  0.97930  Biso   1.000  C
  C115     1.0000 0.22710  0.45610  0.90580  Biso   1.000  C
  C116     1.0000 0.11540  0.41610  0.84080  Biso   1.000  C
  H106     1.0000 0.47350  0.35400  0.14840  Biso   1.000  H
  C117     1.0000 0.10800  0.53630  0.95970  Biso   1.000  C
  H107     1.0000 0.20630  0.55160  0.01100  Biso   1.000  H
  C118     1.0000 0.14280  0.45770  0.88850  Biso   1.000  C
  H108     1.0000 0.26800  0.43170  0.88620  Biso   1.000  H
  C119     1.0000 0.08030  0.50120  0.91460  Biso   1.000  C
  O49      1.0000 0.05200  0.58610  0.98380  Biso   1.000  O
  H109     1.0000 0.02440  0.50550  0.90180  Biso   1.000  H
  H110     1.0000 0.06450  0.59190  0.01530  Biso   1.000  H
  H111     1.0000 0.06980  0.56540  0.97750  Biso   1.000  H
  H112     1.0000 0.41550  0.23240  0.22130  Biso   1.000  H
  Zn15     1.0000 0.95322  0.66217  0.22594  Biso   1.000  Zn
  N29      1.0000 0.93860  0.62990  0.30187  Biso   1.000  N
  N30      1.0000 0.06610  0.71410  0.21910  Biso   1.000  N
  O50      1.0000 0.83210  0.60290  0.19030  Biso   1.000  O
  O51      1.0000 0.96140  0.59550  0.16700  Biso   1.000  O
  N31      1.0000 0.87790  0.66550  0.33217  Biso   1.000  N
  C120     1.0000 0.97110  0.58210  0.33310  Biso   1.000  C
  C121     1.0000 0.14600  0.69490  0.21020  Biso   1.000  C
  C122     1.0000 0.87800  0.63590  0.37940  Biso   1.000  C
  N32      1.0000 0.93660  0.58450  0.38260  Biso   1.000  N
  C123     1.0000 0.03700  0.53200  0.31650  Biso   1.000  C
  C124     1.0000 0.17400  0.62030  0.20790  Biso   1.000  C
  C125     1.0000 0.81930  0.65540  0.42360  Biso   1.000  C
  Zn16     1.0000 0.97447  0.53584  0.44986  Biso   1.000  Zn
  H113     1.0000 0.09270  0.54980  0.32560  Biso   1.000  H
  H114     1.0000 0.02780  0.48820  0.33440  Biso   1.000  H
  H115     1.0000 0.03360  0.52510  0.27860  Biso   1.000  H
  H116     1.0000 0.12710  0.59060  0.21790  Biso   1.000  H
  H117     1.0000 0.19210  0.60920  0.17230  Biso   1.000  H
  H118     1.0000 0.22100  0.61330  0.23210  Biso   1.000  H
  H119     1.0000 0.80480  0.61440  0.44380  Biso   1.000  H
  H120     1.0000 0.84720  0.68860  0.44650  Biso   1.000  H
  H121     1.0000 0.76800  0.67570  0.40910  Biso   1.000  H
  O52      1.0000 0.98600  0.62050  0.49900  Biso   1.000  O
  O53      1.0000 0.10430  0.53920  0.43950  Biso   1.000  O
  O54      1.0000 0.85960  0.51620  0.48630  Biso   1.000  O
  O55      1.0000 0.97840  0.43400  0.42590  Biso   1.000  O
  C126     1.0000 0.00630  0.61940  0.54810  Biso   1.000  C
  C127     1.0000 0.15720  0.51200  0.46950  Biso   1.000  C
  C128     1.0000 0.01110  0.68700  0.57690  Biso   1.000  C
  C129     1.0000 0.24920  0.50980  0.45180  Biso   1.000  C
  C130     1.0000 0.02380  0.68820  0.63010  Biso   1.000  C
  C131     1.0000 0.30900  0.47040  0.47930  Biso   1.000  C
  C132     1.0000 0.27290  0.54390  0.40580  Biso   1.000  C
  C133     1.0000 0.38460  0.58390  0.34080  Biso   1.000  C
  H122     1.0000 0.02650  0.64600  0.64840  Biso   1.000  H
  C134     1.0000 0.39200  0.46370  0.45970  Biso   1.000  C
  H123     1.0000 0.29370  0.44840  0.51100  Biso   1.000  H
  C135     1.0000 0.35720  0.54230  0.38850  Biso   1.000  C
  H124     1.0000 0.23200  0.56830  0.38620  Biso   1.000  H
  C136     1.0000 0.41970  0.49880  0.41460  Biso   1.000  C
  O56      1.0000 0.44800  0.41390  0.48380  Biso   1.000  O
  H125     1.0000 0.47560  0.49450  0.40180  Biso   1.000  H
  H126     1.0000 0.43550  0.40810  0.51530  Biso   1.000  H
  H127     1.0000 0.43020  0.43460  0.47750  Biso   1.000  H
  H128     1.0000 0.08450  0.76760  0.72130  Biso   1.000  H
  O57      1.0000 0.61810  0.25000  0.73090  Biso   1.000  O
  Zn17     1.0000 0.67700  0.25000  0.80116  Biso   1.000  Zn
  H129     1.0000 0.66250  0.25000  0.71140  Biso   1.000  H
  N33      1.0000 0.30260  0.25000  0.70480  Biso   1.000  N
  C137     1.0000 0.49830  0.25000  0.05020  Biso   1.000  C
  C138     1.0000 0.46700  0.25000  0.15850  Biso   1.000  C
  H130     1.0000 0.51110  0.25000  0.01400  Biso   1.000  H
  O58      1.0000 0.46120  0.25000  0.21220  Biso   1.000  O
  H131     1.0000 0.45520  0.25000  0.19490  Biso   1.000  H
  O59      1.0000 0.88190  0.75000  0.23090  Biso   1.000  O
  Zn18     1.0000 0.82300  0.75000  0.30116  Biso   1.000  Zn
  H132     1.0000 0.83750  0.75000  0.21140  Biso   1.000  H
  N34      1.0000 0.19740  0.75000  0.20480  Biso   1.000  N
  C139     1.0000 0.00170  0.75000  0.55020  Biso   1.000  C
  C140     1.0000 0.03300  0.75000  0.65850  Biso   1.000  C
  H133     1.0000 0.98890  0.75000  0.51400  Biso   1.000  H
  O60      1.0000 0.03880  0.75000  0.71220  Biso   1.000  O
  H134     1.0000 0.04480  0.75000  0.69490  Biso   1.000  H
  O61      1.0000 0.38190  0.75000  0.26910  Biso   1.000  O
  Zn19     1.0000 0.32300  0.75000  0.19884  Biso   1.000  Zn
  H135     1.0000 0.33750  0.75000  0.28860  Biso   1.000  H
  N35      1.0000 0.69740  0.75000  0.29520  Biso   1.000  N
  C141     1.0000 0.50170  0.75000  0.94980  Biso   1.000  C
  C142     1.0000 0.53300  0.75000  0.84150  Biso   1.000  C
  H136     1.0000 0.48890  0.75000  0.98600  Biso   1.000  H
  O62      1.0000 0.53880  0.75000  0.78780  Biso   1.000  O
  H137     1.0000 0.54480  0.75000  0.80510  Biso   1.000  H
  O63      1.0000 0.11810  0.25000  0.76910  Biso   1.000  O
  Zn20     1.0000 0.17700  0.25000  0.69884  Biso   1.000  Zn
  H138     1.0000 0.16250  0.25000  0.78860  Biso   1.000  H
  N36      1.0000 0.80260  0.25000  0.79520  Biso   1.000  N
  C143     1.0000 0.99830  0.25000  0.44980  Biso   1.000  C
  C144     1.0000 0.96700  0.25000  0.34150  Biso   1.000  C
  H139     1.0000 0.01110  0.25000  0.48600  Biso   1.000  H
  O64      1.0000 0.96120  0.25000  0.28780  Biso   1.000  O
  H140     1.0000 0.95520  0.25000  0.30510  Biso   1.000  H
