data_image0
_cell_length_a       15.1796
_cell_length_b       19.303
_cell_length_c       25.806
_cell_angle_alpha    90
_cell_angle_beta     90
_cell_angle_gamma    90

_symmetry_space_group_name_H-M    "P 1"
_symmetry_int_tables_number       1

loop_
  _symmetry_equiv_pos_as_xyz
  'x, y, z'

loop_
  _atom_site_label
  _atom_site_occupancy
  _atom_site_fract_x
  _atom_site_fract_y
  _atom_site_fract_z
  _atom_site_thermal_displace_type
  _atom_site_B_iso_or_equiv
  _atom_site_type_symbol
  Zn1      1.0000 0.52963  0.96428  0.54850  Biso   1.000  Zn
  Zn2      1.0000 0.57345  0.83853  0.76664  Biso   1.000  Zn
  N1       1.0000 0.63970  0.83460  0.65980  Biso   1.000  N
  N2       1.0000 0.58030  0.86940  0.69184  Biso   1.000  N
  N3       1.0000 0.57370  0.91530  0.61318  Biso   1.000  N
  N4       1.0000 0.46070  0.78590  0.78400  Biso   1.000  N
  O1       1.0000 0.52690  0.06560  0.57110  Biso   1.000  O
  O2       1.0000 0.48590  0.12070  0.49900  Biso   1.000  O
  O3       1.0000 0.64500  0.98200  0.50910  Biso   1.000  O
  O4       1.0000 0.60270  0.03830  0.43840  Biso   1.000  O
  O5       1.0000 0.83970  0.12090  0.31770  Biso   1.000  O
  O6       1.0000 0.95820  0.06090  0.30980  Biso   1.000  O
  O7       1.0000 0.96250  0.91490  0.47200  Biso   1.000  O
  C1       1.0000 0.69210  0.84420  0.56900  Biso   1.000  C
  H1       1.0000 0.73920  0.81510  0.58090  Biso   1.000  H
  H2       1.0000 0.71610  0.88510  0.55330  Biso   1.000  H
  H3       1.0000 0.65750  0.81940  0.54390  Biso   1.000  H
  C2       1.0000 0.63510  0.86420  0.61390  Biso   1.000  C
  C3       1.0000 0.54240  0.91680  0.66210  Biso   1.000  C
  C4       1.0000 0.47370  0.96580  0.68050  Biso   1.000  C
  H4       1.0000 0.41740  0.94330  0.68010  Biso   1.000  H
  H5       1.0000 0.47210  0.00550  0.65800  Biso   1.000  H
  H6       1.0000 0.48730  0.98040  0.71510  Biso   1.000  H
  C5       1.0000 0.51060  0.11890  0.54680  Biso   1.000  C
  C6       1.0000 0.51570  0.18780  0.57410  Biso   1.000  C
  C7       1.0000 0.52620  0.18780  0.62670  Biso   1.000  C
  H7       1.0000 0.53090  0.14620  0.64470  Biso   1.000  H
  C8       1.0000 0.88660  0.07300  0.33210  Biso   1.000  C
  C9       1.0000 0.85910  0.03110  0.37860  Biso   1.000  C
  C10      1.0000 0.92210  0.98750  0.40200  Biso   1.000  C
  H8       1.0000 0.97660  0.98030  0.38640  Biso   1.000  H
  C11      1.0000 0.90130  0.95510  0.44910  Biso   1.000  C
  C12      1.0000 0.81530  0.96230  0.46890  Biso   1.000  C
  H9       1.0000 0.80020  0.93960  0.49950  Biso   1.000  H
  C13      1.0000 0.75240  0.00260  0.44390  Biso   1.000  C
  C14      1.0000 0.77470  0.03750  0.39840  Biso   1.000  C
  H10      1.0000 0.73320  0.06470  0.38150  Biso   1.000  H
  C15      1.0000 0.65990  0.00800  0.46630  Biso   1.000  C
  C16      1.0000 0.35000  0.87840  0.79800  Biso   1.000  C
  H11      1.0000 0.39610  0.90860  0.78620  Biso   1.000  H
  H12      1.0000 0.33440  0.89020  0.83300  Biso   1.000  H
  H13      1.0000 0.29930  0.88360  0.77610  Biso   1.000  H
  C17      1.0000 0.38120  0.80510  0.79610  Biso   1.000  C
  C18      1.0000 0.57000  0.18600  0.73470  Biso   1.000  C
  H14      1.0000 0.63080  0.17100  0.73280  Biso   1.000  H
  H15      1.0000 0.53240  0.14820  0.72250  Biso   1.000  H
  C19      1.0000 0.52600  0.21380  0.78700  Biso   1.000  C
  H16      1.0000 0.56670  0.21290  0.81510  Biso   1.000  H
  H17      1.0000 0.48630  0.17510  0.78960  Biso   1.000  H
  H18      1.0000 0.49250  0.25570  0.78780  Biso   1.000  H
  C20      1.0000 0.94990  0.88490  0.52070  Biso   1.000  C
  H19      1.0000 0.90380  0.85010  0.51990  Biso   1.000  H
  H20      1.0000 0.93570  0.91950  0.54670  Biso   1.000  H
  C21      1.0000 0.04450  0.85110  0.53070  Biso   1.000  C
  H21      1.0000 0.03820  0.80260  0.53790  Biso   1.000  H
  H22      1.0000 0.07340  0.87330  0.55930  Biso   1.000  H
  H23      1.0000 0.07910  0.85710  0.49990  Biso   1.000  H
  Zn3      1.0000 0.97037  0.03572  0.04850  Biso   1.000  Zn
  Zn4      1.0000 0.92655  0.16147  0.26664  Biso   1.000  Zn
  N5       1.0000 0.86030  0.16540  0.15980  Biso   1.000  N
  N6       1.0000 0.91970  0.13060  0.19184  Biso   1.000  N
  N7       1.0000 0.92630  0.08470  0.11318  Biso   1.000  N
  N8       1.0000 0.03930  0.21410  0.28400  Biso   1.000  N
  O8       1.0000 0.97310  0.93440  0.07110  Biso   1.000  O
  O9       1.0000 0.01410  0.87930  0.99900  Biso   1.000  O
  O10      1.0000 0.85500  0.01800  0.00910  Biso   1.000  O
  O11      1.0000 0.89730  0.96170  0.93840  Biso   1.000  O
  O12      1.0000 0.66030  0.87910  0.81770  Biso   1.000  O
  O13      1.0000 0.54180  0.93910  0.80980  Biso   1.000  O
  O14      1.0000 0.53750  0.08510  0.97200  Biso   1.000  O
  C22      1.0000 0.80790  0.15580  0.06900  Biso   1.000  C
  H24      1.0000 0.76080  0.18490  0.08090  Biso   1.000  H
  H25      1.0000 0.78390  0.11490  0.05330  Biso   1.000  H
  H26      1.0000 0.84250  0.18060  0.04390  Biso   1.000  H
  C23      1.0000 0.86490  0.13580  0.11390  Biso   1.000  C
  C24      1.0000 0.95760  0.08320  0.16210  Biso   1.000  C
  C25      1.0000 0.02630  0.03420  0.18050  Biso   1.000  C
  H27      1.0000 0.08260  0.05670  0.18010  Biso   1.000  H
  H28      1.0000 0.02790  0.99450  0.15800  Biso   1.000  H
  H29      1.0000 0.01270  0.01960  0.21510  Biso   1.000  H
  C26      1.0000 0.98940  0.88110  0.04680  Biso   1.000  C
  C27      1.0000 0.98430  0.81220  0.07410  Biso   1.000  C
  C28      1.0000 0.97380  0.81220  0.12670  Biso   1.000  C
  H30      1.0000 0.96910  0.85380  0.14470  Biso   1.000  H
  C29      1.0000 0.61340  0.92700  0.83210  Biso   1.000  C
  C30      1.0000 0.64090  0.96890  0.87860  Biso   1.000  C
  C31      1.0000 0.57790  0.01250  0.90200  Biso   1.000  C
  H31      1.0000 0.52340  0.01970  0.88640  Biso   1.000  H
  C32      1.0000 0.59870  0.04490  0.94910  Biso   1.000  C
  C33      1.0000 0.68470  0.03770  0.96890  Biso   1.000  C
  H32      1.0000 0.69980  0.06040  0.99950  Biso   1.000  H
  C34      1.0000 0.74760  0.99740  0.94390  Biso   1.000  C
  C35      1.0000 0.72530  0.96250  0.89840  Biso   1.000  C
  H33      1.0000 0.76680  0.93530  0.88150  Biso   1.000  H
  C36      1.0000 0.84010  0.99200  0.96630  Biso   1.000  C
  C37      1.0000 0.15000  0.12160  0.29800  Biso   1.000  C
  H34      1.0000 0.10390  0.09140  0.28620  Biso   1.000  H
  H35      1.0000 0.16560  0.10980  0.33300  Biso   1.000  H
  H36      1.0000 0.20070  0.11640  0.27610  Biso   1.000  H
  C38      1.0000 0.11880  0.19490  0.29610  Biso   1.000  C
  C39      1.0000 0.93000  0.81400  0.23470  Biso   1.000  C
  H37      1.0000 0.86920  0.82900  0.23280  Biso   1.000  H
  H38      1.0000 0.96760  0.85180  0.22250  Biso   1.000  H
  C40      1.0000 0.97400  0.78620  0.28700  Biso   1.000  C
  H39      1.0000 0.93330  0.78710  0.31510  Biso   1.000  H
  H40      1.0000 0.01370  0.82490  0.28960  Biso   1.000  H
  H41      1.0000 0.00750  0.74430  0.28780  Biso   1.000  H
  C41      1.0000 0.55010  0.11510  0.02070  Biso   1.000  C
  H42      1.0000 0.59620  0.14990  0.01990  Biso   1.000  H
  H43      1.0000 0.56430  0.08050  0.04670  Biso   1.000  H
  C42      1.0000 0.45550  0.14890  0.03070  Biso   1.000  C
  H44      1.0000 0.46180  0.19740  0.03790  Biso   1.000  H
  H45      1.0000 0.42660  0.12670  0.05930  Biso   1.000  H
  H46      1.0000 0.42090  0.14290  0.99990  Biso   1.000  H
  Zn5      1.0000 0.47037  0.46428  0.45150  Biso   1.000  Zn
  Zn6      1.0000 0.42655  0.33853  0.23336  Biso   1.000  Zn
  N9       1.0000 0.36030  0.33460  0.34020  Biso   1.000  N
  N10      1.0000 0.41970  0.36940  0.30816  Biso   1.000  N
  N11      1.0000 0.42630  0.41530  0.38682  Biso   1.000  N
  N12      1.0000 0.53930  0.28590  0.21600  Biso   1.000  N
  O15      1.0000 0.47310  0.56560  0.42890  Biso   1.000  O
  O16      1.0000 0.51410  0.62070  0.50100  Biso   1.000  O
  O17      1.0000 0.35500  0.48200  0.49090  Biso   1.000  O
  O18      1.0000 0.39730  0.53830  0.56160  Biso   1.000  O
  O19      1.0000 0.16030  0.62090  0.68230  Biso   1.000  O
  O20      1.0000 0.04180  0.56090  0.69020  Biso   1.000  O
  O21      1.0000 0.03750  0.41490  0.52800  Biso   1.000  O
  C43      1.0000 0.30790  0.34420  0.43100  Biso   1.000  C
  H47      1.0000 0.26080  0.31510  0.41910  Biso   1.000  H
  H48      1.0000 0.28390  0.38510  0.44670  Biso   1.000  H
  H49      1.0000 0.34250  0.31940  0.45610  Biso   1.000  H
  C44      1.0000 0.36490  0.36420  0.38610  Biso   1.000  C
  C45      1.0000 0.45760  0.41680  0.33790  Biso   1.000  C
  C46      1.0000 0.52630  0.46580  0.31950  Biso   1.000  C
  H50      1.0000 0.58260  0.44330  0.31990  Biso   1.000  H
  H51      1.0000 0.52790  0.50550  0.34200  Biso   1.000  H
  H52      1.0000 0.51270  0.48040  0.28490  Biso   1.000  H
  C47      1.0000 0.48940  0.61890  0.45320  Biso   1.000  C
  C48      1.0000 0.48430  0.68780  0.42590  Biso   1.000  C
  C49      1.0000 0.47380  0.68780  0.37330  Biso   1.000  C
  H53      1.0000 0.46910  0.64620  0.35530  Biso   1.000  H
  C50      1.0000 0.11340  0.57300  0.66790  Biso   1.000  C
  C51      1.0000 0.14090  0.53110  0.62140  Biso   1.000  C
  C52      1.0000 0.07790  0.48750  0.59800  Biso   1.000  C
  H54      1.0000 0.02340  0.48030  0.61360  Biso   1.000  H
  C53      1.0000 0.09870  0.45510  0.55090  Biso   1.000  C
  C54      1.0000 0.18470  0.46230  0.53110  Biso   1.000  C
  H55      1.0000 0.19980  0.43960  0.50050  Biso   1.000  H
  C55      1.0000 0.24760  0.50260  0.55610  Biso   1.000  C
  C56      1.0000 0.22530  0.53750  0.60160  Biso   1.000  C
  H56      1.0000 0.26680  0.56470  0.61850  Biso   1.000  H
  C57      1.0000 0.34010  0.50800  0.53370  Biso   1.000  C
  C58      1.0000 0.65000  0.37840  0.20200  Biso   1.000  C
  H57      1.0000 0.60390  0.40860  0.21380  Biso   1.000  H
  H58      1.0000 0.66560  0.39020  0.16700  Biso   1.000  H
  H59      1.0000 0.70070  0.38360  0.22390  Biso   1.000  H
  C59      1.0000 0.61880  0.30510  0.20390  Biso   1.000  C
  C60      1.0000 0.43000  0.68600  0.26530  Biso   1.000  C
  H60      1.0000 0.36920  0.67100  0.26720  Biso   1.000  H
  H61      1.0000 0.46760  0.64820  0.27750  Biso   1.000  H
  C61      1.0000 0.47400  0.71380  0.21300  Biso   1.000  C
  H62      1.0000 0.43330  0.71290  0.18490  Biso   1.000  H
  H63      1.0000 0.51370  0.67510  0.21040  Biso   1.000  H
  H64      1.0000 0.50750  0.75570  0.21220  Biso   1.000  H
  C62      1.0000 0.05010  0.38490  0.47930  Biso   1.000  C
  H65      1.0000 0.09620  0.35010  0.48010  Biso   1.000  H
  H66      1.0000 0.06430  0.41950  0.45330  Biso   1.000  H
  C63      1.0000 0.95550  0.35110  0.46930  Biso   1.000  C
  H67      1.0000 0.96180  0.30260  0.46210  Biso   1.000  H
  H68      1.0000 0.92660  0.37330  0.44070  Biso   1.000  H
  H69      1.0000 0.92090  0.35710  0.50010  Biso   1.000  H
  Zn7      1.0000 0.02963  0.53572  0.95150  Biso   1.000  Zn
  Zn8      1.0000 0.07345  0.66147  0.73336  Biso   1.000  Zn
  N13      1.0000 0.13970  0.66540  0.84020  Biso   1.000  N
  N14      1.0000 0.08030  0.63060  0.80816  Biso   1.000  N
  N15      1.0000 0.07370  0.58470  0.88682  Biso   1.000  N
  N16      1.0000 0.96070  0.71410  0.71600  Biso   1.000  N
  O22      1.0000 0.02690  0.43440  0.92890  Biso   1.000  O
  O23      1.0000 0.98590  0.37930  0.00100  Biso   1.000  O
  O24      1.0000 0.14500  0.51800  0.99090  Biso   1.000  O
  O25      1.0000 0.10270  0.46170  0.06160  Biso   1.000  O
  O26      1.0000 0.33970  0.37910  0.18230  Biso   1.000  O
  O27      1.0000 0.45820  0.43910  0.19020  Biso   1.000  O
  O28      1.0000 0.46250  0.58510  0.02800  Biso   1.000  O
  C64      1.0000 0.19210  0.65580  0.93100  Biso   1.000  C
  H70      1.0000 0.23920  0.68490  0.91910  Biso   1.000  H
  H71      1.0000 0.21610  0.61490  0.94670  Biso   1.000  H
  H72      1.0000 0.15750  0.68060  0.95610  Biso   1.000  H
  C65      1.0000 0.13510  0.63580  0.88610  Biso   1.000  C
  C66      1.0000 0.04240  0.58320  0.83790  Biso   1.000  C
  C67      1.0000 0.97370  0.53420  0.81950  Biso   1.000  C
  H73      1.0000 0.91740  0.55670  0.81990  Biso   1.000  H
  H74      1.0000 0.97210  0.49450  0.84200  Biso   1.000  H
  H75      1.0000 0.98730  0.51960  0.78490  Biso   1.000  H
  C68      1.0000 0.01060  0.38110  0.95320  Biso   1.000  C
  C69      1.0000 0.01570  0.31220  0.92590  Biso   1.000  C
  C70      1.0000 0.02620  0.31220  0.87330  Biso   1.000  C
  H76      1.0000 0.03090  0.35380  0.85530  Biso   1.000  H
  C71      1.0000 0.38660  0.42700  0.16790  Biso   1.000  C
  C72      1.0000 0.35910  0.46890  0.12140  Biso   1.000  C
  C73      1.0000 0.42210  0.51250  0.09800  Biso   1.000  C
  H77      1.0000 0.47660  0.51970  0.11360  Biso   1.000  H
  C74      1.0000 0.40130  0.54490  0.05090  Biso   1.000  C
  C75      1.0000 0.31530  0.53770  0.03110  Biso   1.000  C
  H78      1.0000 0.30020  0.56040  0.00050  Biso   1.000  H
  C76      1.0000 0.25240  0.49740  0.05610  Biso   1.000  C
  C77      1.0000 0.27470  0.46250  0.10160  Biso   1.000  C
  H79      1.0000 0.23320  0.43530  0.11850  Biso   1.000  H
  C78      1.0000 0.15990  0.49200  0.03370  Biso   1.000  C
  C79      1.0000 0.85000  0.62160  0.70200  Biso   1.000  C
  H80      1.0000 0.89610  0.59140  0.71380  Biso   1.000  H
  H81      1.0000 0.83440  0.60980  0.66700  Biso   1.000  H
  H82      1.0000 0.79930  0.61640  0.72390  Biso   1.000  H
  C80      1.0000 0.88120  0.69490  0.70390  Biso   1.000  C
  C81      1.0000 0.07000  0.31400  0.76530  Biso   1.000  C
  H83      1.0000 0.13080  0.32900  0.76720  Biso   1.000  H
  H84      1.0000 0.03240  0.35180  0.77750  Biso   1.000  H
  C82      1.0000 0.02600  0.28620  0.71300  Biso   1.000  C
  H85      1.0000 0.06670  0.28710  0.68490  Biso   1.000  H
  H86      1.0000 0.98630  0.32490  0.71040  Biso   1.000  H
  H87      1.0000 0.99250  0.24430  0.71220  Biso   1.000  H
  C83      1.0000 0.44990  0.61510  0.97930  Biso   1.000  C
  H88      1.0000 0.40380  0.64990  0.98010  Biso   1.000  H
  H89      1.0000 0.43570  0.58050  0.95330  Biso   1.000  H
  C84      1.0000 0.54450  0.64890  0.96930  Biso   1.000  C
  H90      1.0000 0.53820  0.69740  0.96210  Biso   1.000  H
  H91      1.0000 0.57340  0.62670  0.94070  Biso   1.000  H
  H92      1.0000 0.57910  0.64290  0.00010  Biso   1.000  H
  Zn9      1.0000 0.47037  0.03572  0.45150  Biso   1.000  Zn
  Zn10     1.0000 0.42655  0.16147  0.23336  Biso   1.000  Zn
  N17      1.0000 0.36030  0.16540  0.34020  Biso   1.000  N
  N18      1.0000 0.41970  0.13060  0.30816  Biso   1.000  N
  N19      1.0000 0.42630  0.08470  0.38682  Biso   1.000  N
  N20      1.0000 0.53930  0.21410  0.21600  Biso   1.000  N
  O29      1.0000 0.47310  0.93440  0.42890  Biso   1.000  O
  O30      1.0000 0.51410  0.87930  0.50100  Biso   1.000  O
  O31      1.0000 0.35500  0.01800  0.49090  Biso   1.000  O
  O32      1.0000 0.39730  0.96170  0.56160  Biso   1.000  O
  O33      1.0000 0.16030  0.87910  0.68230  Biso   1.000  O
  O34      1.0000 0.04180  0.93910  0.69020  Biso   1.000  O
  O35      1.0000 0.03750  0.08510  0.52800  Biso   1.000  O
  C85      1.0000 0.30790  0.15580  0.43100  Biso   1.000  C
  H93      1.0000 0.26080  0.18490  0.41910  Biso   1.000  H
  H94      1.0000 0.28390  0.11490  0.44670  Biso   1.000  H
  H95      1.0000 0.34250  0.18060  0.45610  Biso   1.000  H
  C86      1.0000 0.36490  0.13580  0.38610  Biso   1.000  C
  C87      1.0000 0.45760  0.08320  0.33790  Biso   1.000  C
  C88      1.0000 0.52630  0.03420  0.31950  Biso   1.000  C
  H96      1.0000 0.58260  0.05670  0.31990  Biso   1.000  H
  H97      1.0000 0.52790  0.99450  0.34200  Biso   1.000  H
  H98      1.0000 0.51270  0.01960  0.28490  Biso   1.000  H
  C89      1.0000 0.48940  0.88110  0.45320  Biso   1.000  C
  C90      1.0000 0.48430  0.81220  0.42590  Biso   1.000  C
  C91      1.0000 0.47380  0.81220  0.37330  Biso   1.000  C
  H99      1.0000 0.46910  0.85380  0.35530  Biso   1.000  H
  C92      1.0000 0.11340  0.92700  0.66790  Biso   1.000  C
  C93      1.0000 0.14090  0.96890  0.62140  Biso   1.000  C
  C94      1.0000 0.07790  0.01250  0.59800  Biso   1.000  C
  H100     1.0000 0.02340  0.01970  0.61360  Biso   1.000  H
  C95      1.0000 0.09870  0.04490  0.55090  Biso   1.000  C
  C96      1.0000 0.18470  0.03770  0.53110  Biso   1.000  C
  H101     1.0000 0.19980  0.06040  0.50050  Biso   1.000  H
  C97      1.0000 0.24760  0.99740  0.55610  Biso   1.000  C
  C98      1.0000 0.22530  0.96250  0.60160  Biso   1.000  C
  H102     1.0000 0.26680  0.93530  0.61850  Biso   1.000  H
  C99      1.0000 0.34010  0.99200  0.53370  Biso   1.000  C
  C100     1.0000 0.65000  0.12160  0.20200  Biso   1.000  C
  H103     1.0000 0.60390  0.09140  0.21380  Biso   1.000  H
  H104     1.0000 0.66560  0.10980  0.16700  Biso   1.000  H
  H105     1.0000 0.70070  0.11640  0.22390  Biso   1.000  H
  C101     1.0000 0.61880  0.19490  0.20390  Biso   1.000  C
  C102     1.0000 0.43000  0.81400  0.26530  Biso   1.000  C
  H106     1.0000 0.36920  0.82900  0.26720  Biso   1.000  H
  H107     1.0000 0.46760  0.85180  0.27750  Biso   1.000  H
  C103     1.0000 0.47400  0.78620  0.21300  Biso   1.000  C
  H108     1.0000 0.43330  0.78710  0.18490  Biso   1.000  H
  H109     1.0000 0.51370  0.82490  0.21040  Biso   1.000  H
  H110     1.0000 0.50750  0.74430  0.21220  Biso   1.000  H
  C104     1.0000 0.05010  0.11510  0.47930  Biso   1.000  C
  H111     1.0000 0.09620  0.14990  0.48010  Biso   1.000  H
  H112     1.0000 0.06430  0.08050  0.45330  Biso   1.000  H
  C105     1.0000 0.95550  0.14890  0.46930  Biso   1.000  C
  H113     1.0000 0.96180  0.19740  0.46210  Biso   1.000  H
  H114     1.0000 0.92660  0.12670  0.44070  Biso   1.000  H
  H115     1.0000 0.92090  0.14290  0.50010  Biso   1.000  H
  Zn11     1.0000 0.02963  0.96428  0.95150  Biso   1.000  Zn
  Zn12     1.0000 0.07345  0.83853  0.73336  Biso   1.000  Zn
  N21      1.0000 0.13970  0.83460  0.84020  Biso   1.000  N
  N22      1.0000 0.08030  0.86940  0.80816  Biso   1.000  N
  N23      1.0000 0.07370  0.91530  0.88682  Biso   1.000  N
  N24      1.0000 0.96070  0.78590  0.71600  Biso   1.000  N
  O36      1.0000 0.02690  0.06560  0.92890  Biso   1.000  O
  O37      1.0000 0.98590  0.12070  0.00100  Biso   1.000  O
  O38      1.0000 0.14500  0.98200  0.99090  Biso   1.000  O
  O39      1.0000 0.10270  0.03830  0.06160  Biso   1.000  O
  O40      1.0000 0.33970  0.12090  0.18230  Biso   1.000  O
  O41      1.0000 0.45820  0.06090  0.19020  Biso   1.000  O
  O42      1.0000 0.46250  0.91490  0.02800  Biso   1.000  O
  C106     1.0000 0.19210  0.84420  0.93100  Biso   1.000  C
  H116     1.0000 0.23920  0.81510  0.91910  Biso   1.000  H
  H117     1.0000 0.21610  0.88510  0.94670  Biso   1.000  H
  H118     1.0000 0.15750  0.81940  0.95610  Biso   1.000  H
  C107     1.0000 0.13510  0.86420  0.88610  Biso   1.000  C
  C108     1.0000 0.04240  0.91680  0.83790  Biso   1.000  C
  C109     1.0000 0.97370  0.96580  0.81950  Biso   1.000  C
  H119     1.0000 0.91740  0.94330  0.81990  Biso   1.000  H
  H120     1.0000 0.97210  0.00550  0.84200  Biso   1.000  H
  H121     1.0000 0.98730  0.98040  0.78490  Biso   1.000  H
  C110     1.0000 0.01060  0.11890  0.95320  Biso   1.000  C
  C111     1.0000 0.01570  0.18780  0.92590  Biso   1.000  C
  C112     1.0000 0.02620  0.18780  0.87330  Biso   1.000  C
  H122     1.0000 0.03090  0.14620  0.85530  Biso   1.000  H
  C113     1.0000 0.38660  0.07300  0.16790  Biso   1.000  C
  C114     1.0000 0.35910  0.03110  0.12140  Biso   1.000  C
  C115     1.0000 0.42210  0.98750  0.09800  Biso   1.000  C
  H123     1.0000 0.47660  0.98030  0.11360  Biso   1.000  H
  C116     1.0000 0.40130  0.95510  0.05090  Biso   1.000  C
  C117     1.0000 0.31530  0.96230  0.03110  Biso   1.000  C
  H124     1.0000 0.30020  0.93960  0.00050  Biso   1.000  H
  C118     1.0000 0.25240  0.00260  0.05610  Biso   1.000  C
  C119     1.0000 0.27470  0.03750  0.10160  Biso   1.000  C
  H125     1.0000 0.23320  0.06470  0.11850  Biso   1.000  H
  C120     1.0000 0.15990  0.00800  0.03370  Biso   1.000  C
  C121     1.0000 0.85000  0.87840  0.70200  Biso   1.000  C
  H126     1.0000 0.89610  0.90860  0.71380  Biso   1.000  H
  H127     1.0000 0.83440  0.89020  0.66700  Biso   1.000  H
  H128     1.0000 0.79930  0.88360  0.72390  Biso   1.000  H
  C122     1.0000 0.88120  0.80510  0.70390  Biso   1.000  C
  C123     1.0000 0.07000  0.18600  0.76530  Biso   1.000  C
  H129     1.0000 0.13080  0.17100  0.76720  Biso   1.000  H
  H130     1.0000 0.03240  0.14820  0.77750  Biso   1.000  H
  C124     1.0000 0.02600  0.21380  0.71300  Biso   1.000  C
  H131     1.0000 0.06670  0.21290  0.68490  Biso   1.000  H
  H132     1.0000 0.98630  0.17510  0.71040  Biso   1.000  H
  H133     1.0000 0.99250  0.25570  0.71220  Biso   1.000  H
  C125     1.0000 0.44990  0.88490  0.97930  Biso   1.000  C
  H134     1.0000 0.40380  0.85010  0.98010  Biso   1.000  H
  H135     1.0000 0.43570  0.91950  0.95330  Biso   1.000  H
  C126     1.0000 0.54450  0.85110  0.96930  Biso   1.000  C
  H136     1.0000 0.53820  0.80260  0.96210  Biso   1.000  H
  H137     1.0000 0.57340  0.87330  0.94070  Biso   1.000  H
  H138     1.0000 0.57910  0.85710  0.00010  Biso   1.000  H
  Zn13     1.0000 0.52963  0.53572  0.54850  Biso   1.000  Zn
  Zn14     1.0000 0.57345  0.66147  0.76664  Biso   1.000  Zn
  N25      1.0000 0.63970  0.66540  0.65980  Biso   1.000  N
  N26      1.0000 0.58030  0.63060  0.69184  Biso   1.000  N
  N27      1.0000 0.57370  0.58470  0.61318  Biso   1.000  N
  N28      1.0000 0.46070  0.71410  0.78400  Biso   1.000  N
  O43      1.0000 0.52690  0.43440  0.57110  Biso   1.000  O
  O44      1.0000 0.48590  0.37930  0.49900  Biso   1.000  O
  O45      1.0000 0.64500  0.51800  0.50910  Biso   1.000  O
  O46      1.0000 0.60270  0.46170  0.43840  Biso   1.000  O
  O47      1.0000 0.83970  0.37910  0.31770  Biso   1.000  O
  O48      1.0000 0.95820  0.43910  0.30980  Biso   1.000  O
  O49      1.0000 0.96250  0.58510  0.47200  Biso   1.000  O
  C127     1.0000 0.69210  0.65580  0.56900  Biso   1.000  C
  H139     1.0000 0.73920  0.68490  0.58090  Biso   1.000  H
  H140     1.0000 0.71610  0.61490  0.55330  Biso   1.000  H
  H141     1.0000 0.65750  0.68060  0.54390  Biso   1.000  H
  C128     1.0000 0.63510  0.63580  0.61390  Biso   1.000  C
  C129     1.0000 0.54240  0.58320  0.66210  Biso   1.000  C
  C130     1.0000 0.47370  0.53420  0.68050  Biso   1.000  C
  H142     1.0000 0.41740  0.55670  0.68010  Biso   1.000  H
  H143     1.0000 0.47210  0.49450  0.65800  Biso   1.000  H
  H144     1.0000 0.48730  0.51960  0.71510  Biso   1.000  H
  C131     1.0000 0.51060  0.38110  0.54680  Biso   1.000  C
  C132     1.0000 0.51570  0.31220  0.57410  Biso   1.000  C
  C133     1.0000 0.52620  0.31220  0.62670  Biso   1.000  C
  H145     1.0000 0.53090  0.35380  0.64470  Biso   1.000  H
  C134     1.0000 0.88660  0.42700  0.33210  Biso   1.000  C
  C135     1.0000 0.85910  0.46890  0.37860  Biso   1.000  C
  C136     1.0000 0.92210  0.51250  0.40200  Biso   1.000  C
  H146     1.0000 0.97660  0.51970  0.38640  Biso   1.000  H
  C137     1.0000 0.90130  0.54490  0.44910  Biso   1.000  C
  C138     1.0000 0.81530  0.53770  0.46890  Biso   1.000  C
  H147     1.0000 0.80020  0.56040  0.49950  Biso   1.000  H
  C139     1.0000 0.75240  0.49740  0.44390  Biso   1.000  C
  C140     1.0000 0.77470  0.46250  0.39840  Biso   1.000  C
  H148     1.0000 0.73320  0.43530  0.38150  Biso   1.000  H
  C141     1.0000 0.65990  0.49200  0.46630  Biso   1.000  C
  C142     1.0000 0.35000  0.62160  0.79800  Biso   1.000  C
  H149     1.0000 0.39610  0.59140  0.78620  Biso   1.000  H
  H150     1.0000 0.33440  0.60980  0.83300  Biso   1.000  H
  H151     1.0000 0.29930  0.61640  0.77610  Biso   1.000  H
  C143     1.0000 0.38120  0.69490  0.79610  Biso   1.000  C
  C144     1.0000 0.57000  0.31400  0.73470  Biso   1.000  C
  H152     1.0000 0.63080  0.32900  0.73280  Biso   1.000  H
  H153     1.0000 0.53240  0.35180  0.72250  Biso   1.000  H
  C145     1.0000 0.52600  0.28620  0.78700  Biso   1.000  C
  H154     1.0000 0.56670  0.28710  0.81510  Biso   1.000  H
  H155     1.0000 0.48630  0.32490  0.78960  Biso   1.000  H
  H156     1.0000 0.49250  0.24430  0.78780  Biso   1.000  H
  C146     1.0000 0.94990  0.61510  0.52070  Biso   1.000  C
  H157     1.0000 0.90380  0.64990  0.51990  Biso   1.000  H
  H158     1.0000 0.93570  0.58050  0.54670  Biso   1.000  H
  C147     1.0000 0.04450  0.64890  0.53070  Biso   1.000  C
  H159     1.0000 0.03820  0.69740  0.53790  Biso   1.000  H
  H160     1.0000 0.07340  0.62670  0.55930  Biso   1.000  H
  H161     1.0000 0.07910  0.64290  0.49990  Biso   1.000  H
  Zn15     1.0000 0.97037  0.46428  0.04850  Biso   1.000  Zn
  Zn16     1.0000 0.92655  0.33853  0.26664  Biso   1.000  Zn
  N29      1.0000 0.86030  0.33460  0.15980  Biso   1.000  N
  N30      1.0000 0.91970  0.36940  0.19184  Biso   1.000  N
  N31      1.0000 0.92630  0.41530  0.11318  Biso   1.000  N
  N32      1.0000 0.03930  0.28590  0.28400  Biso   1.000  N
  O50      1.0000 0.97310  0.56560  0.07110  Biso   1.000  O
  O51      1.0000 0.01410  0.62070  0.99900  Biso   1.000  O
  O52      1.0000 0.85500  0.48200  0.00910  Biso   1.000  O
  O53      1.0000 0.89730  0.53830  0.93840  Biso   1.000  O
  O54      1.0000 0.66030  0.62090  0.81770  Biso   1.000  O
  O55      1.0000 0.54180  0.56090  0.80980  Biso   1.000  O
  O56      1.0000 0.53750  0.41490  0.97200  Biso   1.000  O
  C148     1.0000 0.80790  0.34420  0.06900  Biso   1.000  C
  H162     1.0000 0.76080  0.31510  0.08090  Biso   1.000  H
  H163     1.0000 0.78390  0.38510  0.05330  Biso   1.000  H
  H164     1.0000 0.84250  0.31940  0.04390  Biso   1.000  H
  C149     1.0000 0.86490  0.36420  0.11390  Biso   1.000  C
  C150     1.0000 0.95760  0.41680  0.16210  Biso   1.000  C
  C151     1.0000 0.02630  0.46580  0.18050  Biso   1.000  C
  H165     1.0000 0.08260  0.44330  0.18010  Biso   1.000  H
  H166     1.0000 0.02790  0.50550  0.15800  Biso   1.000  H
  H167     1.0000 0.01270  0.48040  0.21510  Biso   1.000  H
  C152     1.0000 0.98940  0.61890  0.04680  Biso   1.000  C
  C153     1.0000 0.98430  0.68780  0.07410  Biso   1.000  C
  C154     1.0000 0.97380  0.68780  0.12670  Biso   1.000  C
  H168     1.0000 0.96910  0.64620  0.14470  Biso   1.000  H
  C155     1.0000 0.61340  0.57300  0.83210  Biso   1.000  C
  C156     1.0000 0.64090  0.53110  0.87860  Biso   1.000  C
  C157     1.0000 0.57790  0.48750  0.90200  Biso   1.000  C
  H169     1.0000 0.52340  0.48030  0.88640  Biso   1.000  H
  C158     1.0000 0.59870  0.45510  0.94910  Biso   1.000  C
  C159     1.0000 0.68470  0.46230  0.96890  Biso   1.000  C
  H170     1.0000 0.69980  0.43960  0.99950  Biso   1.000  H
  C160     1.0000 0.74760  0.50260  0.94390  Biso   1.000  C
  C161     1.0000 0.72530  0.53750  0.89840  Biso   1.000  C
  H171     1.0000 0.76680  0.56470  0.88150  Biso   1.000  H
  C162     1.0000 0.84010  0.50800  0.96630  Biso   1.000  C
  C163     1.0000 0.15000  0.37840  0.29800  Biso   1.000  C
  H172     1.0000 0.10390  0.40860  0.28620  Biso   1.000  H
  H173     1.0000 0.16560  0.39020  0.33300  Biso   1.000  H
  H174     1.0000 0.20070  0.38360  0.27610  Biso   1.000  H
  C164     1.0000 0.11880  0.30510  0.29610  Biso   1.000  C
  C165     1.0000 0.93000  0.68600  0.23470  Biso   1.000  C
  H175     1.0000 0.86920  0.67100  0.23280  Biso   1.000  H
  H176     1.0000 0.96760  0.64820  0.22250  Biso   1.000  H
  C166     1.0000 0.97400  0.71380  0.28700  Biso   1.000  C
  H177     1.0000 0.93330  0.71290  0.31510  Biso   1.000  H
  H178     1.0000 0.01370  0.67510  0.28960  Biso   1.000  H
  H179     1.0000 0.00750  0.75570  0.28780  Biso   1.000  H
  C167     1.0000 0.55010  0.38490  0.02070  Biso   1.000  C
  H180     1.0000 0.59620  0.35010  0.01990  Biso   1.000  H
  H181     1.0000 0.56430  0.41950  0.04670  Biso   1.000  H
  C168     1.0000 0.45550  0.35110  0.03070  Biso   1.000  C
  H182     1.0000 0.46180  0.30260  0.03790  Biso   1.000  H
  H183     1.0000 0.42660  0.37330  0.05930  Biso   1.000  H
  H184     1.0000 0.42090  0.35710  0.99990  Biso   1.000  H
  Zn17     1.0000 0.69910  0.75000  0.68767  Biso   1.000  Zn
  N33      1.0000 0.32920  0.75000  0.80570  Biso   1.000  N
  O57      1.0000 0.64660  0.75000  0.75750  Biso   1.000  O
  H185     1.0000 0.68860  0.75000  0.77930  Biso   1.000  H
  Zn18     1.0000 0.80090  0.25000  0.18767  Biso   1.000  Zn
  N34      1.0000 0.17080  0.25000  0.30570  Biso   1.000  N
  O58      1.0000 0.85340  0.25000  0.25750  Biso   1.000  O
  H186     1.0000 0.81140  0.25000  0.27930  Biso   1.000  H
  Zn19     1.0000 0.30090  0.25000  0.31233  Biso   1.000  Zn
  N35      1.0000 0.67080  0.25000  0.19430  Biso   1.000  N
  O59      1.0000 0.35340  0.25000  0.24250  Biso   1.000  O
  H187     1.0000 0.31140  0.25000  0.22070  Biso   1.000  H
  Zn20     1.0000 0.19910  0.75000  0.81233  Biso   1.000  Zn
  N36      1.0000 0.82920  0.75000  0.69430  Biso   1.000  N
  O60      1.0000 0.14660  0.75000  0.74250  Biso   1.000  O
  H188     1.0000 0.18860  0.75000  0.72070  Biso   1.000  H
  O61      1.0000 0.54490  0.25000  0.70610  Biso   1.000  O
  C169     1.0000 0.52980  0.25000  0.65280  Biso   1.000  C
  C170     1.0000 0.50590  0.25000  0.54750  Biso   1.000  C
  H189     1.0000 0.49310  0.25000  0.51220  Biso   1.000  H
  O62      1.0000 0.95510  0.75000  0.20610  Biso   1.000  O
  C171     1.0000 0.97020  0.75000  0.15280  Biso   1.000  C
  C172     1.0000 0.99410  0.75000  0.04750  Biso   1.000  C
  H190     1.0000 0.00690  0.75000  0.01220  Biso   1.000  H
  O63      1.0000 0.45510  0.75000  0.29390  Biso   1.000  O
  C173     1.0000 0.47020  0.75000  0.34720  Biso   1.000  C
  C174     1.0000 0.49410  0.75000  0.45250  Biso   1.000  C
  H191     1.0000 0.50690  0.75000  0.48780  Biso   1.000  H
  O64      1.0000 0.04490  0.25000  0.79390  Biso   1.000  O
  C175     1.0000 0.02980  0.25000  0.84720  Biso   1.000  C
  C176     1.0000 0.00590  0.25000  0.95250  Biso   1.000  C
  H192     1.0000 0.99310  0.25000  0.98780  Biso   1.000  H
