data_image0
_cell_length_a       17.611
_cell_length_b       8.2632
_cell_length_c       9.4939
_cell_angle_alpha    90
_cell_angle_beta     96.128
_cell_angle_gamma    90

_symmetry_space_group_name_H-M    "P 1"
_symmetry_int_tables_number       1

loop_
  _symmetry_equiv_pos_as_xyz
  'x, y, z'

loop_
  _atom_site_label
  _atom_site_occupancy
  _atom_site_fract_x
  _atom_site_fract_y
  _atom_site_fract_z
  _atom_site_thermal_displace_type
  _atom_site_B_iso_or_equiv
  _atom_site_type_symbol
  C1       1.0000 0.37470  0.02080  0.67120  Biso   1.000  C
  C2       1.0000 0.43900  0.00830  0.58200  Biso   1.000  C
  C3       1.0000 0.46280  0.14690  0.51410  Biso   1.000  C
  H1       1.0000 0.43780  0.24500  0.52260  Biso   1.000  H
  C4       1.0000 0.52460  0.13610  0.43330  Biso   1.000  C
  H2       1.0000 0.54110  0.22830  0.38930  Biso   1.000  H
  N1       1.0000 0.36710  0.14420  0.75930  Biso   1.000  N
  N2       1.0000 0.30390  0.10630  0.82140  Biso   1.000  N
  N3       1.0000 0.27430  0.97150  0.76970  Biso   1.000  N
  N4       1.0000 0.31810  0.91160  0.67440  Biso   1.000  N
  Cd1      1.0000 0.24880  0.24720  0.80450  Biso   1.000  Cd
  O1       1.0000 0.24910  0.25000  0.59600  Biso   1.000  O
  C5       1.0000 0.87470  0.52080  0.67120  Biso   1.000  C
  C6       1.0000 0.93900  0.50830  0.58200  Biso   1.000  C
  C7       1.0000 0.96280  0.64690  0.51410  Biso   1.000  C
  H3       1.0000 0.93780  0.74500  0.52260  Biso   1.000  H
  C8       1.0000 0.02460  0.63610  0.43330  Biso   1.000  C
  H4       1.0000 0.04110  0.72830  0.38930  Biso   1.000  H
  N5       1.0000 0.86710  0.64420  0.75930  Biso   1.000  N
  N6       1.0000 0.80390  0.60630  0.82140  Biso   1.000  N
  N7       1.0000 0.77430  0.47150  0.76970  Biso   1.000  N
  N8       1.0000 0.81810  0.41160  0.67440  Biso   1.000  N
  Cd2      1.0000 0.74880  0.74720  0.80450  Biso   1.000  Cd
  O2       1.0000 0.74910  0.75000  0.59600  Biso   1.000  O
  C9       1.0000 0.62530  0.02080  0.82880  Biso   1.000  C
  C10      1.0000 0.56100  0.00830  0.91800  Biso   1.000  C
  C11      1.0000 0.53720  0.14690  0.98590  Biso   1.000  C
  H5       1.0000 0.56220  0.24500  0.97740  Biso   1.000  H
  C12      1.0000 0.47540  0.13610  0.06670  Biso   1.000  C
  H6       1.0000 0.45890  0.22830  0.11070  Biso   1.000  H
  N9       1.0000 0.63290  0.14420  0.74070  Biso   1.000  N
  N10      1.0000 0.69610  0.10630  0.67860  Biso   1.000  N
  N11      1.0000 0.72570  0.97150  0.73030  Biso   1.000  N
  N12      1.0000 0.68190  0.91160  0.82560  Biso   1.000  N
  Cd3      1.0000 0.75120  0.24720  0.69550  Biso   1.000  Cd
  O3       1.0000 0.75090  0.25000  0.90400  Biso   1.000  O
  C13      1.0000 0.12530  0.52080  0.82880  Biso   1.000  C
  C14      1.0000 0.06100  0.50830  0.91800  Biso   1.000  C
  C15      1.0000 0.03720  0.64690  0.98590  Biso   1.000  C
  H7       1.0000 0.06220  0.74500  0.97740  Biso   1.000  H
  C16      1.0000 0.97540  0.63610  0.06670  Biso   1.000  C
  H8       1.0000 0.95890  0.72830  0.11070  Biso   1.000  H
  N13      1.0000 0.13290  0.64420  0.74070  Biso   1.000  N
  N14      1.0000 0.19610  0.60630  0.67860  Biso   1.000  N
  N15      1.0000 0.22570  0.47150  0.73030  Biso   1.000  N
  N16      1.0000 0.18190  0.41160  0.82560  Biso   1.000  N
  Cd4      1.0000 0.25120  0.74720  0.69550  Biso   1.000  Cd
  O4       1.0000 0.25090  0.75000  0.90400  Biso   1.000  O
  C17      1.0000 0.62530  0.97920  0.32880  Biso   1.000  C
  C18      1.0000 0.56100  0.99170  0.41800  Biso   1.000  C
  C19      1.0000 0.53720  0.85310  0.48590  Biso   1.000  C
  H9       1.0000 0.56220  0.75500  0.47740  Biso   1.000  H
  C20      1.0000 0.47540  0.86390  0.56670  Biso   1.000  C
  H10      1.0000 0.45890  0.77170  0.61070  Biso   1.000  H
  N17      1.0000 0.63290  0.85580  0.24070  Biso   1.000  N
  N18      1.0000 0.69610  0.89370  0.17860  Biso   1.000  N
  N19      1.0000 0.72570  0.02850  0.23030  Biso   1.000  N
  N20      1.0000 0.68190  0.08840  0.32560  Biso   1.000  N
  Cd5      1.0000 0.75120  0.75280  0.19550  Biso   1.000  Cd
  O5       1.0000 0.75090  0.75000  0.40400  Biso   1.000  O
  C21      1.0000 0.12530  0.47920  0.32880  Biso   1.000  C
  C22      1.0000 0.06100  0.49170  0.41800  Biso   1.000  C
  C23      1.0000 0.03720  0.35310  0.48590  Biso   1.000  C
  H11      1.0000 0.06220  0.25500  0.47740  Biso   1.000  H
  C24      1.0000 0.97540  0.36390  0.56670  Biso   1.000  C
  H12      1.0000 0.95890  0.27170  0.61070  Biso   1.000  H
  N21      1.0000 0.13290  0.35580  0.24070  Biso   1.000  N
  N22      1.0000 0.19610  0.39370  0.17860  Biso   1.000  N
  N23      1.0000 0.22570  0.52850  0.23030  Biso   1.000  N
  N24      1.0000 0.18190  0.58840  0.32560  Biso   1.000  N
  Cd6      1.0000 0.25120  0.25280  0.19550  Biso   1.000  Cd
  O6       1.0000 0.25090  0.25000  0.40400  Biso   1.000  O
  C25      1.0000 0.37470  0.97920  0.17120  Biso   1.000  C
  C26      1.0000 0.43900  0.99170  0.08200  Biso   1.000  C
  C27      1.0000 0.46280  0.85310  0.01410  Biso   1.000  C
  H13      1.0000 0.43780  0.75500  0.02260  Biso   1.000  H
  C28      1.0000 0.52460  0.86390  0.93330  Biso   1.000  C
  H14      1.0000 0.54110  0.77170  0.88930  Biso   1.000  H
  N25      1.0000 0.36710  0.85580  0.25930  Biso   1.000  N
  N26      1.0000 0.30390  0.89370  0.32140  Biso   1.000  N
  N27      1.0000 0.27430  0.02850  0.26970  Biso   1.000  N
  N28      1.0000 0.31810  0.08840  0.17440  Biso   1.000  N
  Cd7      1.0000 0.24880  0.75280  0.30450  Biso   1.000  Cd
  O7       1.0000 0.24910  0.75000  0.09600  Biso   1.000  O
  C29      1.0000 0.87470  0.47920  0.17120  Biso   1.000  C
  C30      1.0000 0.93900  0.49170  0.08200  Biso   1.000  C
  C31      1.0000 0.96280  0.35310  0.01410  Biso   1.000  C
  H15      1.0000 0.93780  0.25500  0.02260  Biso   1.000  H
  C32      1.0000 0.02460  0.36390  0.93330  Biso   1.000  C
  H16      1.0000 0.04110  0.27170  0.88930  Biso   1.000  H
  N29      1.0000 0.86710  0.35580  0.25930  Biso   1.000  N
  N30      1.0000 0.80390  0.39370  0.32140  Biso   1.000  N
  N31      1.0000 0.77430  0.52850  0.26970  Biso   1.000  N
  N32      1.0000 0.81810  0.58840  0.17440  Biso   1.000  N
  Cd8      1.0000 0.74880  0.25280  0.30450  Biso   1.000  Cd
  O8       1.0000 0.74910  0.25000  0.09600  Biso   1.000  O
  Cd9      1.0000 0.25000  0.25000  0.00000  Biso   1.000  Cd
  Cd10     1.0000 0.75000  0.25000  0.50000  Biso   1.000  Cd
  Cd11     1.0000 0.75000  0.75000  0.00000  Biso   1.000  Cd
  Cd12     1.0000 0.25000  0.75000  0.50000  Biso   1.000  Cd
  O9       1.0000 0.25000  0.25000  0.50000  Biso   1.000  O
  O10      1.0000 0.75000  0.25000  0.00000  Biso   1.000  O
  O11      1.0000 0.75000  0.75000  0.50000  Biso   1.000  O
  O12      1.0000 0.25000  0.75000  0.00000  Biso   1.000  O
