data_image0
_cell_length_a       15.9125
_cell_length_b       20.9486
_cell_length_c       13.9023
_cell_angle_alpha    90
_cell_angle_beta     90
_cell_angle_gamma    90

_symmetry_space_group_name_H-M    "P 1"
_symmetry_int_tables_number       1

loop_
  _symmetry_equiv_pos_as_xyz
  'x, y, z'

loop_
  _atom_site_label
  _atom_site_occupancy
  _atom_site_fract_x
  _atom_site_fract_y
  _atom_site_fract_z
  _atom_site_thermal_displace_type
  _atom_site_B_iso_or_equiv
  _atom_site_type_symbol
  Cd1      1.0000 0.74862  0.40932  0.40039  Biso   1.000  Cd
  N1       1.0000 0.76120  0.41250  0.56840  Biso   1.000  N
  O1       1.0000 0.72110  0.51812  0.37970  Biso   1.000  O
  O2       1.0000 0.85460  0.50178  0.40970  Biso   1.000  O
  N2       1.0000 0.73610  0.40030  0.23390  Biso   1.000  N
  O3       1.0000 0.50270  0.88896  0.56600  Biso   1.000  O
  C1       1.0000 0.77200  0.36340  0.61890  Biso   1.000  C
  H1       1.0000 0.78330  0.32520  0.58750  Biso   1.000  H
  O4       1.0000 0.39280  0.60862  0.41670  Biso   1.000  O
  C2       1.0000 0.56090  0.85040  0.57940  Biso   1.000  C
  C3       1.0000 0.79490  0.53820  0.39100  Biso   1.000  C
  O5       1.0000 0.62622  0.86011  0.62770  Biso   1.000  O
  C4       1.0000 0.62560  0.74580  0.53140  Biso   1.000  C
  H2       1.0000 0.67650  0.76070  0.55550  Biso   1.000  H
  C5       1.0000 0.76120  0.46580  0.61510  Biso   1.000  C
  H3       1.0000 0.75920  0.50310  0.57890  Biso   1.000  H
  N3       1.0000 0.73660  0.64690  0.39470  Biso   1.000  N
  C6       1.0000 0.70180  0.64910  0.48130  Biso   1.000  C
  C7       1.0000 0.76380  0.47250  0.71320  Biso   1.000  C
  H4       1.0000 0.76210  0.51270  0.74160  Biso   1.000  H
  C8       1.0000 0.81140  0.60800  0.37550  Biso   1.000  C
  H5       1.0000 0.85630  0.62140  0.41940  Biso   1.000  H
  C9       1.0000 0.62130  0.68730  0.49160  Biso   1.000  C
  O6       1.0000 0.73130  0.62070  0.54960  Biso   1.000  O
  C10      1.0000 0.75820  0.34440  0.08720  Biso   1.000  C
  H6       1.0000 0.78250  0.30970  0.05600  Biso   1.000  H
  C11      1.0000 0.76470  0.35060  0.18530  Biso   1.000  C
  H7       1.0000 0.79070  0.31790  0.21950  Biso   1.000  H
  C12      1.0000 0.76790  0.36270  0.71930  Biso   1.000  C
  H8       1.0000 0.76460  0.32410  0.75220  Biso   1.000  H
  O7       1.0000 0.32630  0.69991  0.42970  Biso   1.000  O
  C13      1.0000 0.47710  0.76010  0.50160  Biso   1.000  C
  H9       1.0000 0.42910  0.78540  0.50240  Biso   1.000  H
  C14      1.0000 0.47310  0.69780  0.46560  Biso   1.000  C
  C15      1.0000 0.55370  0.78450  0.53660  Biso   1.000  C
  C16      1.0000 0.54820  0.66360  0.45750  Biso   1.000  C
  H10      1.0000 0.54770  0.62370  0.42810  Biso   1.000  H
  C17      1.0000 0.39170  0.66790  0.43510  Biso   1.000  C
  C18      1.0000 0.76890  0.41840  0.76820  Biso   1.000  C
  C19      1.0000 0.71480  0.39070  0.03490  Biso   1.000  C
  C20      1.0000 0.83730  0.62360  0.27520  Biso   1.000  C
  H11      1.0000 0.82980  0.58640  0.23450  Biso   1.000  H
  H12      1.0000 0.89630  0.63520  0.27420  Biso   1.000  H
  C21      1.0000 0.68770  0.44040  0.08110  Biso   1.000  C
  H13      1.0000 0.66100  0.47290  0.04730  Biso   1.000  H
  C22      1.0000 0.77620  0.41830  0.87690  Biso   1.000  C
  H14      1.0000 0.82650  0.39490  0.89470  Biso   1.000  H
  H15      1.0000 0.78340  0.46200  0.89850  Biso   1.000  H
  C23      1.0000 0.69800  0.44630  0.18200  Biso   1.000  C
  H16      1.0000 0.67800  0.48270  0.21300  Biso   1.000  H
  C24      1.0000 0.70640  0.39120  0.92690  Biso   1.000  C
  H17      1.0000 0.69880  0.34760  0.90490  Biso   1.000  H
  H18      1.0000 0.65620  0.41490  0.90990  Biso   1.000  H
  C25      1.0000 0.70630  0.67800  0.30150  Biso   1.000  C
  H19      1.0000 0.68590  0.72090  0.31330  Biso   1.000  H
  H20      1.0000 0.66160  0.65300  0.27240  Biso   1.000  H
  C26      1.0000 0.78430  0.67900  0.23690  Biso   1.000  C
  H21      1.0000 0.76930  0.67240  0.17010  Biso   1.000  H
  H22      1.0000 0.81410  0.71920  0.24280  Biso   1.000  H
  C27      1.0000 0.05060  0.53880  0.20520  Biso   1.000  C
  H23      1.0000 0.08460  0.56730  0.23870  Biso   1.000  H
  C28      1.0000 0.96550  0.54790  0.63600  Biso   1.000  C
  H24      1.0000 0.94080  0.58190  0.60350  Biso   1.000  H
  C29      1.0000 0.05340  0.53760  0.11000  Biso   1.000  C
  C30      1.0000 0.96500  0.54890  0.73740  Biso   1.000  C
  C31      1.0000 0.97970  0.52040  0.05980  Biso   1.000  C
  C32      1.0000 0.98970  0.51490  0.78090  Biso   1.000  C
  Cd2      1.0000 0.25138  0.59068  0.40039  Biso   1.000  Cd
  N4       1.0000 0.23880  0.58750  0.56840  Biso   1.000  N
  O8       1.0000 0.27890  0.48188  0.37970  Biso   1.000  O
  O9       1.0000 0.14540  0.49822  0.40970  Biso   1.000  O
  N5       1.0000 0.26390  0.59970  0.23390  Biso   1.000  N
  O10      1.0000 0.49730  0.11104  0.56600  Biso   1.000  O
  C33      1.0000 0.22800  0.63660  0.61890  Biso   1.000  C
  H25      1.0000 0.21670  0.67480  0.58750  Biso   1.000  H
  O11      1.0000 0.60720  0.39138  0.41670  Biso   1.000  O
  C34      1.0000 0.43910  0.14960  0.57940  Biso   1.000  C
  C35      1.0000 0.20510  0.46180  0.39100  Biso   1.000  C
  O12      1.0000 0.37378  0.13989  0.62770  Biso   1.000  O
  C36      1.0000 0.37440  0.25420  0.53140  Biso   1.000  C
  H26      1.0000 0.32350  0.23930  0.55550  Biso   1.000  H
  C37      1.0000 0.23880  0.53420  0.61510  Biso   1.000  C
  H27      1.0000 0.24080  0.49690  0.57890  Biso   1.000  H
  N6       1.0000 0.26340  0.35310  0.39470  Biso   1.000  N
  C38      1.0000 0.29820  0.35090  0.48130  Biso   1.000  C
  C39      1.0000 0.23620  0.52750  0.71320  Biso   1.000  C
  H28      1.0000 0.23790  0.48730  0.74160  Biso   1.000  H
  C40      1.0000 0.18860  0.39200  0.37550  Biso   1.000  C
  H29      1.0000 0.14370  0.37860  0.41940  Biso   1.000  H
  C41      1.0000 0.37870  0.31270  0.49160  Biso   1.000  C
  O13      1.0000 0.26870  0.37930  0.54960  Biso   1.000  O
  C42      1.0000 0.24180  0.65560  0.08720  Biso   1.000  C
  H30      1.0000 0.21750  0.69030  0.05600  Biso   1.000  H
  C43      1.0000 0.23530  0.64940  0.18530  Biso   1.000  C
  H31      1.0000 0.20930  0.68210  0.21950  Biso   1.000  H
  C44      1.0000 0.23210  0.63730  0.71930  Biso   1.000  C
  H32      1.0000 0.23540  0.67590  0.75220  Biso   1.000  H
  O14      1.0000 0.67370  0.30009  0.42970  Biso   1.000  O
  C45      1.0000 0.52290  0.23990  0.50160  Biso   1.000  C
  H33      1.0000 0.57090  0.21460  0.50240  Biso   1.000  H
  C46      1.0000 0.52690  0.30220  0.46560  Biso   1.000  C
  C47      1.0000 0.44630  0.21550  0.53660  Biso   1.000  C
  C48      1.0000 0.45180  0.33640  0.45750  Biso   1.000  C
  H34      1.0000 0.45230  0.37630  0.42810  Biso   1.000  H
  C49      1.0000 0.60830  0.33210  0.43510  Biso   1.000  C
  C50      1.0000 0.23110  0.58160  0.76820  Biso   1.000  C
  C51      1.0000 0.28520  0.60930  0.03490  Biso   1.000  C
  C52      1.0000 0.16270  0.37640  0.27520  Biso   1.000  C
  H35      1.0000 0.17020  0.41360  0.23450  Biso   1.000  H
  H36      1.0000 0.10370  0.36480  0.27420  Biso   1.000  H
  C53      1.0000 0.31230  0.55960  0.08110  Biso   1.000  C
  H37      1.0000 0.33900  0.52710  0.04730  Biso   1.000  H
  C54      1.0000 0.22380  0.58170  0.87690  Biso   1.000  C
  H38      1.0000 0.17350  0.60510  0.89470  Biso   1.000  H
  H39      1.0000 0.21660  0.53800  0.89850  Biso   1.000  H
  C55      1.0000 0.30200  0.55370  0.18200  Biso   1.000  C
  H40      1.0000 0.32200  0.51730  0.21300  Biso   1.000  H
  C56      1.0000 0.29360  0.60880  0.92690  Biso   1.000  C
  H41      1.0000 0.30120  0.65240  0.90490  Biso   1.000  H
  H42      1.0000 0.34380  0.58510  0.90990  Biso   1.000  H
  C57      1.0000 0.29370  0.32200  0.30150  Biso   1.000  C
  H43      1.0000 0.31410  0.27910  0.31330  Biso   1.000  H
  H44      1.0000 0.33840  0.34700  0.27240  Biso   1.000  H
  C58      1.0000 0.21570  0.32100  0.23690  Biso   1.000  C
  H45      1.0000 0.23070  0.32760  0.17010  Biso   1.000  H
  H46      1.0000 0.18590  0.28080  0.24280  Biso   1.000  H
  C59      1.0000 0.94940  0.46120  0.20520  Biso   1.000  C
  H47      1.0000 0.91540  0.43270  0.23870  Biso   1.000  H
  C60      1.0000 0.03450  0.45210  0.63600  Biso   1.000  C
  H48      1.0000 0.05920  0.41810  0.60350  Biso   1.000  H
  C61      1.0000 0.94660  0.46240  0.11000  Biso   1.000  C
  C62      1.0000 0.03500  0.45110  0.73740  Biso   1.000  C
  C63      1.0000 0.02030  0.47960  0.05980  Biso   1.000  C
  C64      1.0000 0.01030  0.48510  0.78090  Biso   1.000  C
  Cd3      1.0000 0.75138  0.90932  0.59961  Biso   1.000  Cd
  N7       1.0000 0.73880  0.91250  0.43160  Biso   1.000  N
  O15      1.0000 0.77890  0.01812  0.62030  Biso   1.000  O
  O16      1.0000 0.64540  0.00178  0.59030  Biso   1.000  O
  N8       1.0000 0.76390  0.90030  0.76610  Biso   1.000  N
  O17      1.0000 0.99730  0.38896  0.43400  Biso   1.000  O
  C65      1.0000 0.72800  0.86340  0.38110  Biso   1.000  C
  H49      1.0000 0.71670  0.82520  0.41250  Biso   1.000  H
  O18      1.0000 0.10720  0.10862  0.58330  Biso   1.000  O
  C66      1.0000 0.93910  0.35040  0.42060  Biso   1.000  C
  C67      1.0000 0.70510  0.03820  0.60900  Biso   1.000  C
  O19      1.0000 0.87378  0.36011  0.37230  Biso   1.000  O
  C68      1.0000 0.87440  0.24580  0.46860  Biso   1.000  C
  H50      1.0000 0.82350  0.26070  0.44450  Biso   1.000  H
  C69      1.0000 0.73880  0.96580  0.38490  Biso   1.000  C
  H51      1.0000 0.74080  0.00310  0.42110  Biso   1.000  H
  N9       1.0000 0.76340  0.14690  0.60530  Biso   1.000  N
  C70      1.0000 0.79820  0.14910  0.51870  Biso   1.000  C
  C71      1.0000 0.73620  0.97250  0.28680  Biso   1.000  C
  H52      1.0000 0.73790  0.01270  0.25840  Biso   1.000  H
  C72      1.0000 0.68860  0.10800  0.62450  Biso   1.000  C
  H53      1.0000 0.64370  0.12140  0.58060  Biso   1.000  H
  C73      1.0000 0.87870  0.18730  0.50840  Biso   1.000  C
  O20      1.0000 0.76870  0.12070  0.45040  Biso   1.000  O
  C74      1.0000 0.74180  0.84440  0.91280  Biso   1.000  C
  H54      1.0000 0.71750  0.80970  0.94400  Biso   1.000  H
  C75      1.0000 0.73530  0.85060  0.81470  Biso   1.000  C
  H55      1.0000 0.70930  0.81790  0.78050  Biso   1.000  H
  C76      1.0000 0.73210  0.86270  0.28070  Biso   1.000  C
  H56      1.0000 0.73540  0.82410  0.24780  Biso   1.000  H
  O21      1.0000 0.17370  0.19991  0.57030  Biso   1.000  O
  C77      1.0000 0.02290  0.26010  0.49840  Biso   1.000  C
  H57      1.0000 0.07090  0.28540  0.49760  Biso   1.000  H
  C78      1.0000 0.02690  0.19780  0.53440  Biso   1.000  C
  C79      1.0000 0.94630  0.28450  0.46340  Biso   1.000  C
  C80      1.0000 0.95180  0.16360  0.54250  Biso   1.000  C
  H58      1.0000 0.95230  0.12370  0.57190  Biso   1.000  H
  C81      1.0000 0.10830  0.16790  0.56490  Biso   1.000  C
  C82      1.0000 0.73110  0.91840  0.23180  Biso   1.000  C
  C83      1.0000 0.78520  0.89070  0.96510  Biso   1.000  C
  C84      1.0000 0.66270  0.12360  0.72480  Biso   1.000  C
  H59      1.0000 0.67020  0.08640  0.76550  Biso   1.000  H
  H60      1.0000 0.60370  0.13520  0.72580  Biso   1.000  H
  C85      1.0000 0.81230  0.94040  0.91890  Biso   1.000  C
  H61      1.0000 0.83900  0.97290  0.95270  Biso   1.000  H
  C86      1.0000 0.72380  0.91830  0.12310  Biso   1.000  C
  H62      1.0000 0.67350  0.89490  0.10530  Biso   1.000  H
  H63      1.0000 0.71660  0.96200  0.10150  Biso   1.000  H
  C87      1.0000 0.80200  0.94630  0.81800  Biso   1.000  C
  H64      1.0000 0.82200  0.98270  0.78700  Biso   1.000  H
  C88      1.0000 0.79360  0.89120  0.07310  Biso   1.000  C
  H65      1.0000 0.80120  0.84760  0.09510  Biso   1.000  H
  H66      1.0000 0.84380  0.91490  0.09010  Biso   1.000  H
  C89      1.0000 0.79370  0.17800  0.69850  Biso   1.000  C
  H67      1.0000 0.81410  0.22090  0.68670  Biso   1.000  H
  H68      1.0000 0.83840  0.15300  0.72760  Biso   1.000  H
  C90      1.0000 0.71570  0.17900  0.76310  Biso   1.000  C
  H69      1.0000 0.73070  0.17240  0.82990  Biso   1.000  H
  H70      1.0000 0.68590  0.21920  0.75720  Biso   1.000  H
  C91      1.0000 0.44940  0.03880  0.79480  Biso   1.000  C
  H71      1.0000 0.41540  0.06730  0.76130  Biso   1.000  H
  C92      1.0000 0.53450  0.04790  0.36400  Biso   1.000  C
  H72      1.0000 0.55920  0.08190  0.39650  Biso   1.000  H
  C93      1.0000 0.44660  0.03760  0.89000  Biso   1.000  C
  C94      1.0000 0.53500  0.04890  0.26260  Biso   1.000  C
  C95      1.0000 0.52030  0.02040  0.94020  Biso   1.000  C
  C96      1.0000 0.51030  0.01490  0.21910  Biso   1.000  C
  Cd4      1.0000 0.24862  0.09068  0.59961  Biso   1.000  Cd
  N10      1.0000 0.26120  0.08750  0.43160  Biso   1.000  N
  O22      1.0000 0.22110  0.98188  0.62030  Biso   1.000  O
  O23      1.0000 0.35460  0.99822  0.59030  Biso   1.000  O
  N11      1.0000 0.23610  0.09970  0.76610  Biso   1.000  N
  O24      1.0000 0.00270  0.61104  0.43400  Biso   1.000  O
  C97      1.0000 0.27200  0.13660  0.38110  Biso   1.000  C
  H73      1.0000 0.28330  0.17480  0.41250  Biso   1.000  H
  O25      1.0000 0.89280  0.89138  0.58330  Biso   1.000  O
  C98      1.0000 0.06090  0.64960  0.42060  Biso   1.000  C
  C99      1.0000 0.29490  0.96180  0.60900  Biso   1.000  C
  O26      1.0000 0.12622  0.63989  0.37230  Biso   1.000  O
  C100     1.0000 0.12560  0.75420  0.46860  Biso   1.000  C
  H74      1.0000 0.17650  0.73930  0.44450  Biso   1.000  H
  C101     1.0000 0.26120  0.03420  0.38490  Biso   1.000  C
  H75      1.0000 0.25920  0.99690  0.42110  Biso   1.000  H
  N12      1.0000 0.23660  0.85310  0.60530  Biso   1.000  N
  C102     1.0000 0.20180  0.85090  0.51870  Biso   1.000  C
  C103     1.0000 0.26380  0.02750  0.28680  Biso   1.000  C
  H76      1.0000 0.26210  0.98730  0.25840  Biso   1.000  H
  C104     1.0000 0.31140  0.89200  0.62450  Biso   1.000  C
  H77      1.0000 0.35630  0.87860  0.58060  Biso   1.000  H
  C105     1.0000 0.12130  0.81270  0.50840  Biso   1.000  C
  O27      1.0000 0.23130  0.87930  0.45040  Biso   1.000  O
  C106     1.0000 0.25820  0.15560  0.91280  Biso   1.000  C
  H78      1.0000 0.28250  0.19030  0.94400  Biso   1.000  H
  C107     1.0000 0.26470  0.14940  0.81470  Biso   1.000  C
  H79      1.0000 0.29070  0.18210  0.78050  Biso   1.000  H
  C108     1.0000 0.26790  0.13730  0.28070  Biso   1.000  C
  H80      1.0000 0.26460  0.17590  0.24780  Biso   1.000  H
  O28      1.0000 0.82630  0.80009  0.57030  Biso   1.000  O
  C109     1.0000 0.97710  0.73990  0.49840  Biso   1.000  C
  H81      1.0000 0.92910  0.71460  0.49760  Biso   1.000  H
  C110     1.0000 0.97310  0.80220  0.53440  Biso   1.000  C
  C111     1.0000 0.05370  0.71550  0.46340  Biso   1.000  C
  C112     1.0000 0.04820  0.83640  0.54250  Biso   1.000  C
  H82      1.0000 0.04770  0.87630  0.57190  Biso   1.000  H
  C113     1.0000 0.89170  0.83210  0.56490  Biso   1.000  C
  C114     1.0000 0.26890  0.08160  0.23180  Biso   1.000  C
  C115     1.0000 0.21480  0.10930  0.96510  Biso   1.000  C
  C116     1.0000 0.33730  0.87640  0.72480  Biso   1.000  C
  H83      1.0000 0.32980  0.91360  0.76550  Biso   1.000  H
  H84      1.0000 0.39630  0.86480  0.72580  Biso   1.000  H
  C117     1.0000 0.18770  0.05960  0.91890  Biso   1.000  C
  H85      1.0000 0.16100  0.02710  0.95270  Biso   1.000  H
  C118     1.0000 0.27620  0.08170  0.12310  Biso   1.000  C
  H86      1.0000 0.32650  0.10510  0.10530  Biso   1.000  H
  H87      1.0000 0.28340  0.03800  0.10150  Biso   1.000  H
  C119     1.0000 0.19800  0.05370  0.81800  Biso   1.000  C
  H88      1.0000 0.17800  0.01730  0.78700  Biso   1.000  H
  C120     1.0000 0.20640  0.10880  0.07310  Biso   1.000  C
  H89      1.0000 0.19880  0.15240  0.09510  Biso   1.000  H
  H90      1.0000 0.15620  0.08510  0.09010  Biso   1.000  H
  C121     1.0000 0.20630  0.82200  0.69850  Biso   1.000  C
  H91      1.0000 0.18590  0.77910  0.68670  Biso   1.000  H
  H92      1.0000 0.16160  0.84700  0.72760  Biso   1.000  H
  C122     1.0000 0.28430  0.82100  0.76310  Biso   1.000  C
  H93      1.0000 0.26930  0.82760  0.82990  Biso   1.000  H
  H94      1.0000 0.31410  0.78080  0.75720  Biso   1.000  H
  C123     1.0000 0.55060  0.96120  0.79480  Biso   1.000  C
  H95      1.0000 0.58460  0.93270  0.76130  Biso   1.000  H
  C124     1.0000 0.46550  0.95210  0.36400  Biso   1.000  C
  H96      1.0000 0.44080  0.91810  0.39650  Biso   1.000  H
  C125     1.0000 0.55340  0.96240  0.89000  Biso   1.000  C
  C126     1.0000 0.46500  0.95110  0.26260  Biso   1.000  C
  C127     1.0000 0.47970  0.97960  0.94020  Biso   1.000  C
  C128     1.0000 0.48970  0.98510  0.21910  Biso   1.000  C
  Cd5      1.0000 0.00000  0.50000  0.41958  Biso   1.000  Cd
  N13      1.0000 0.00000  0.50000  0.25340  Biso   1.000  N
  N14      1.0000 0.00000  0.50000  0.58300  Biso   1.000  N
  C129     1.0000 0.00000  0.50000  0.79100  Biso   1.000  C
  Cd6      1.0000 0.50000  0.00000  0.58042  Biso   1.000  Cd
  N15      1.0000 0.50000  0.00000  0.74660  Biso   1.000  N
  N16      1.0000 0.50000  0.00000  0.41700  Biso   1.000  N
  C130     1.0000 0.50000  0.00000  0.20900  Biso   1.000  C
