data_image0
_cell_length_a       22.8156
_cell_length_b       6.9955
_cell_length_c       14.4043
_cell_angle_alpha    90
_cell_angle_beta     106.694
_cell_angle_gamma    90

_symmetry_space_group_name_H-M    "P 1"
_symmetry_int_tables_number       1

loop_
  _symmetry_equiv_pos_as_xyz
  'x, y, z'

loop_
  _atom_site_label
  _atom_site_occupancy
  _atom_site_fract_x
  _atom_site_fract_y
  _atom_site_fract_z
  _atom_site_thermal_displace_type
  _atom_site_B_iso_or_equiv
  _atom_site_type_symbol
  Cd1      1.0000 0.91146  0.97942  0.69182  Biso   1.000  Cd
  O1       1.0000 0.59160  0.50920  0.12910  Biso   1.000  O
  O2       1.0000 0.93760  0.02650  0.10380  Biso   1.000  O
  O3       1.0000 0.92880  0.90520  0.54100  Biso   1.000  O
  C1       1.0000 0.94860  0.97520  0.18920  Biso   1.000  C
  N1       1.0000 0.74870  0.43950  0.15020  Biso   1.000  N
  O4       1.0000 0.69950  0.17480  0.18010  Biso   1.000  O
  C2       1.0000 0.91560  0.99470  0.34310  Biso   1.000  C
  H1       1.0000 0.95190  0.93500  0.37690  Biso   1.000  H
  O5       1.0000 0.99440  0.87220  0.23260  Biso   1.000  O
  O6       1.0000 0.67050  0.55990  0.25600  Biso   1.000  O
  C3       1.0000 0.80750  0.17640  0.24190  Biso   1.000  C
  C4       1.0000 0.88510  0.01110  0.49660  Biso   1.000  C
  C5       1.0000 0.64790  0.53820  0.16690  Biso   1.000  C
  C6       1.0000 0.69040  0.53270  0.10280  Biso   1.000  C
  H2       1.0000 0.67030  0.47010  0.04100  Biso   1.000  H
  C7       1.0000 0.90450  0.03530  0.24480  Biso   1.000  C
  O7       1.0000 0.85230  0.08760  0.54010  Biso   1.000  O
  C8       1.0000 0.85110  0.12820  0.19490  Biso   1.000  C
  H3       1.0000 0.84430  0.15850  0.12980  Biso   1.000  H
  C9       1.0000 0.87320  0.04260  0.39050  Biso   1.000  C
  C10      1.0000 0.74690  0.26210  0.18910  Biso   1.000  C
  C11      1.0000 0.81840  0.13270  0.33870  Biso   1.000  C
  H4       1.0000 0.78920  0.16310  0.37010  Biso   1.000  H
  C12      1.0000 0.71200  0.73410  0.08540  Biso   1.000  C
  H5       1.0000 0.68610  0.78670  0.02520  Biso   1.000  H
  H6       1.0000 0.71090  0.81900  0.13810  Biso   1.000  H
  C13      1.0000 0.80110  0.56470  0.16210  Biso   1.000  C
  H7       1.0000 0.83610  0.49580  0.15360  Biso   1.000  H
  H8       1.0000 0.81240  0.62610  0.22510  Biso   1.000  H
  C14      1.0000 0.77650  0.70960  0.08040  Biso   1.000  C
  H9       1.0000 0.79910  0.82890  0.09300  Biso   1.000  H
  H10      1.0000 0.77750  0.65920  0.01820  Biso   1.000  H
  C15      1.0000 0.55370  0.09800  0.99350  Biso   1.000  C
  C16      1.0000 0.55980  0.94300  0.04800  Biso   1.000  C
  N2       1.0000 0.50610  0.20300  0.03820  Biso   1.000  N
  N3       1.0000 0.50710  0.84900  0.06500  Biso   1.000  N
  C17      1.0000 0.55010  0.92600  0.97270  Biso   1.000  C
  Cd2      1.0000 0.41146  0.47942  0.69182  Biso   1.000  Cd
  O8       1.0000 0.09160  0.00920  0.12910  Biso   1.000  O
  O9       1.0000 0.43760  0.52650  0.10380  Biso   1.000  O
  O10      1.0000 0.42880  0.40520  0.54100  Biso   1.000  O
  C18      1.0000 0.44860  0.47520  0.18920  Biso   1.000  C
  N4       1.0000 0.24870  0.93950  0.15020  Biso   1.000  N
  O11      1.0000 0.19950  0.67480  0.18010  Biso   1.000  O
  C19      1.0000 0.41560  0.49470  0.34310  Biso   1.000  C
  H11      1.0000 0.45190  0.43500  0.37690  Biso   1.000  H
  O12      1.0000 0.49440  0.37220  0.23260  Biso   1.000  O
  O13      1.0000 0.17050  0.05990  0.25600  Biso   1.000  O
  C20      1.0000 0.30750  0.67640  0.24190  Biso   1.000  C
  C21      1.0000 0.38510  0.51110  0.49660  Biso   1.000  C
  C22      1.0000 0.14790  0.03820  0.16690  Biso   1.000  C
  C23      1.0000 0.19040  0.03270  0.10280  Biso   1.000  C
  H12      1.0000 0.17030  0.97010  0.04100  Biso   1.000  H
  C24      1.0000 0.40450  0.53530  0.24480  Biso   1.000  C
  O14      1.0000 0.35230  0.58760  0.54010  Biso   1.000  O
  C25      1.0000 0.35110  0.62820  0.19490  Biso   1.000  C
  H13      1.0000 0.34430  0.65850  0.12980  Biso   1.000  H
  C26      1.0000 0.37320  0.54260  0.39050  Biso   1.000  C
  C27      1.0000 0.24690  0.76210  0.18910  Biso   1.000  C
  C28      1.0000 0.31840  0.63270  0.33870  Biso   1.000  C
  H14      1.0000 0.28920  0.66310  0.37010  Biso   1.000  H
  C29      1.0000 0.21200  0.23410  0.08540  Biso   1.000  C
  H15      1.0000 0.18610  0.28670  0.02520  Biso   1.000  H
  H16      1.0000 0.21090  0.31900  0.13810  Biso   1.000  H
  C30      1.0000 0.30110  0.06470  0.16210  Biso   1.000  C
  H17      1.0000 0.33610  0.99580  0.15360  Biso   1.000  H
  H18      1.0000 0.31240  0.12610  0.22510  Biso   1.000  H
  C31      1.0000 0.27650  0.20960  0.08040  Biso   1.000  C
  H19      1.0000 0.29910  0.32890  0.09300  Biso   1.000  H
  H20      1.0000 0.27750  0.15920  0.01820  Biso   1.000  H
  C32      1.0000 0.05370  0.59800  0.99350  Biso   1.000  C
  C33      1.0000 0.05980  0.44300  0.04800  Biso   1.000  C
  N5       1.0000 0.00610  0.70300  0.03820  Biso   1.000  N
  N6       1.0000 0.00710  0.34900  0.06500  Biso   1.000  N
  C34      1.0000 0.05010  0.42600  0.97270  Biso   1.000  C
  Cd3      1.0000 0.08854  0.97942  0.30818  Biso   1.000  Cd
  O15      1.0000 0.40840  0.50920  0.87090  Biso   1.000  O
  O16      1.0000 0.06240  0.02650  0.89620  Biso   1.000  O
  O17      1.0000 0.07120  0.90520  0.45900  Biso   1.000  O
  C35      1.0000 0.05140  0.97520  0.81080  Biso   1.000  C
  N7       1.0000 0.25130  0.43950  0.84980  Biso   1.000  N
  O18      1.0000 0.30050  0.17480  0.81990  Biso   1.000  O
  C36      1.0000 0.08440  0.99470  0.65690  Biso   1.000  C
  H21      1.0000 0.04810  0.93500  0.62310  Biso   1.000  H
  O19      1.0000 0.00560  0.87220  0.76740  Biso   1.000  O
  O20      1.0000 0.32950  0.55990  0.74400  Biso   1.000  O
  C37      1.0000 0.19250  0.17640  0.75810  Biso   1.000  C
  C38      1.0000 0.11490  0.01110  0.50340  Biso   1.000  C
  C39      1.0000 0.35210  0.53820  0.83310  Biso   1.000  C
  C40      1.0000 0.30960  0.53270  0.89720  Biso   1.000  C
  H22      1.0000 0.32970  0.47010  0.95900  Biso   1.000  H
  C41      1.0000 0.09550  0.03530  0.75520  Biso   1.000  C
  O21      1.0000 0.14770  0.08760  0.45990  Biso   1.000  O
  C42      1.0000 0.14890  0.12820  0.80510  Biso   1.000  C
  H23      1.0000 0.15570  0.15850  0.87020  Biso   1.000  H
  C43      1.0000 0.12680  0.04260  0.60950  Biso   1.000  C
  C44      1.0000 0.25310  0.26210  0.81090  Biso   1.000  C
  C45      1.0000 0.18160  0.13270  0.66130  Biso   1.000  C
  H24      1.0000 0.21080  0.16310  0.62990  Biso   1.000  H
  C46      1.0000 0.28800  0.73410  0.91460  Biso   1.000  C
  H25      1.0000 0.31390  0.78670  0.97480  Biso   1.000  H
  H26      1.0000 0.28910  0.81900  0.86190  Biso   1.000  H
  C47      1.0000 0.19890  0.56470  0.83790  Biso   1.000  C
  H27      1.0000 0.16390  0.49580  0.84640  Biso   1.000  H
  H28      1.0000 0.18760  0.62610  0.77490  Biso   1.000  H
  C48      1.0000 0.22350  0.70960  0.91960  Biso   1.000  C
  H29      1.0000 0.20090  0.82890  0.90700  Biso   1.000  H
  H30      1.0000 0.22250  0.65920  0.98180  Biso   1.000  H
  C49      1.0000 0.44630  0.09800  0.00650  Biso   1.000  C
  C50      1.0000 0.44020  0.94300  0.95200  Biso   1.000  C
  N8       1.0000 0.49390  0.20300  0.96180  Biso   1.000  N
  N9       1.0000 0.49290  0.84900  0.93500  Biso   1.000  N
  C51      1.0000 0.44990  0.92600  0.02730  Biso   1.000  C
  Cd4      1.0000 0.58854  0.47942  0.30818  Biso   1.000  Cd
  O22      1.0000 0.90840  0.00920  0.87090  Biso   1.000  O
  O23      1.0000 0.56240  0.52650  0.89620  Biso   1.000  O
  O24      1.0000 0.57120  0.40520  0.45900  Biso   1.000  O
  C52      1.0000 0.55140  0.47520  0.81080  Biso   1.000  C
  N10      1.0000 0.75130  0.93950  0.84980  Biso   1.000  N
  O25      1.0000 0.80050  0.67480  0.81990  Biso   1.000  O
  C53      1.0000 0.58440  0.49470  0.65690  Biso   1.000  C
  H31      1.0000 0.54810  0.43500  0.62310  Biso   1.000  H
  O26      1.0000 0.50560  0.37220  0.76740  Biso   1.000  O
  O27      1.0000 0.82950  0.05990  0.74400  Biso   1.000  O
  C54      1.0000 0.69250  0.67640  0.75810  Biso   1.000  C
  C55      1.0000 0.61490  0.51110  0.50340  Biso   1.000  C
  C56      1.0000 0.85210  0.03820  0.83310  Biso   1.000  C
  C57      1.0000 0.80960  0.03270  0.89720  Biso   1.000  C
  H32      1.0000 0.82970  0.97010  0.95900  Biso   1.000  H
  C58      1.0000 0.59550  0.53530  0.75520  Biso   1.000  C
  O28      1.0000 0.64770  0.58760  0.45990  Biso   1.000  O
  C59      1.0000 0.64890  0.62820  0.80510  Biso   1.000  C
  H33      1.0000 0.65570  0.65850  0.87020  Biso   1.000  H
  C60      1.0000 0.62680  0.54260  0.60950  Biso   1.000  C
  C61      1.0000 0.75310  0.76210  0.81090  Biso   1.000  C
  C62      1.0000 0.68160  0.63270  0.66130  Biso   1.000  C
  H34      1.0000 0.71080  0.66310  0.62990  Biso   1.000  H
  C63      1.0000 0.78800  0.23410  0.91460  Biso   1.000  C
  H35      1.0000 0.81390  0.28670  0.97480  Biso   1.000  H
  H36      1.0000 0.78910  0.31900  0.86190  Biso   1.000  H
  C64      1.0000 0.69890  0.06470  0.83790  Biso   1.000  C
  H37      1.0000 0.66390  0.99580  0.84640  Biso   1.000  H
  H38      1.0000 0.68760  0.12610  0.77490  Biso   1.000  H
  C65      1.0000 0.72350  0.20960  0.91960  Biso   1.000  C
  H39      1.0000 0.70090  0.32890  0.90700  Biso   1.000  H
  H40      1.0000 0.72250  0.15920  0.98180  Biso   1.000  H
  C66      1.0000 0.94630  0.59800  0.00650  Biso   1.000  C
  C67      1.0000 0.94020  0.44300  0.95200  Biso   1.000  C
  N11      1.0000 0.99390  0.70300  0.96180  Biso   1.000  N
  N12      1.0000 0.99290  0.34900  0.93500  Biso   1.000  N
  C68      1.0000 0.94990  0.42600  0.02730  Biso   1.000  C
  Cd5      1.0000 0.50000  0.51178  0.00000  Biso   1.000  Cd
  N13      1.0000 0.50000  0.81000  0.00000  Biso   1.000  N
  Cd6      1.0000 0.00000  0.01178  0.00000  Biso   1.000  Cd
  N14      1.0000 0.00000  0.31000  0.00000  Biso   1.000  N
