data_image0
_cell_length_a       16.614
_cell_length_b       16.64
_cell_length_c       22.194
_cell_angle_alpha    90
_cell_angle_beta     90
_cell_angle_gamma    90

_symmetry_space_group_name_H-M    "P 1"
_symmetry_int_tables_number       1

loop_
  _symmetry_equiv_pos_as_xyz
  'x, y, z'

loop_
  _atom_site_label
  _atom_site_occupancy
  _atom_site_fract_x
  _atom_site_fract_y
  _atom_site_fract_z
  _atom_site_thermal_displace_type
  _atom_site_B_iso_or_equiv
  _atom_site_type_symbol
  O1       1.0000 0.91790  0.41550  0.54740  Biso   1.000  O
  C1       1.0000 0.79990  0.29900  0.55510  Biso   1.000  C
  H1       1.0000 0.81760  0.32080  0.59240  Biso   1.000  H
  C2       1.0000 0.74490  0.23760  0.55490  Biso   1.000  C
  H2       1.0000 0.72910  0.21270  0.59160  Biso   1.000  H
  N1       1.0000 0.93510  0.45040  0.92320  Biso   1.000  N
  C3       1.0000 0.94340  0.53880  0.69110  Biso   1.000  C
  H3       1.0000 0.90070  0.56400  0.66970  Biso   1.000  H
  C4       1.0000 0.93700  0.54780  0.75290  Biso   1.000  C
  H4       1.0000 0.89860  0.57930  0.77400  Biso   1.000  H
  C5       1.0000 0.94430  0.44690  0.86780  Biso   1.000  C
  C6       1.0000 0.88900  0.38580  0.84450  Biso   1.000  C
  H5       1.0000 0.87500  0.37860  0.80340  Biso   1.000  H
  C7       1.0000 0.86050  0.34040  0.89180  Biso   1.000  C
  H6       1.0000 0.84160  0.28650  0.89080  Biso   1.000  H
  C8       1.0000 0.86590  0.39370  0.94415  Biso   1.000  C
  O2       1.0000 0.08210  0.58450  0.54740  Biso   1.000  O
  C9       1.0000 0.20010  0.70100  0.55510  Biso   1.000  C
  H7       1.0000 0.18240  0.67920  0.59240  Biso   1.000  H
  C10      1.0000 0.25510  0.76240  0.55490  Biso   1.000  C
  H8       1.0000 0.27090  0.78730  0.59160  Biso   1.000  H
  N2       1.0000 0.06490  0.54960  0.92320  Biso   1.000  N
  C11      1.0000 0.05660  0.46120  0.69110  Biso   1.000  C
  H9       1.0000 0.09930  0.43600  0.66970  Biso   1.000  H
  C12      1.0000 0.06300  0.45220  0.75290  Biso   1.000  C
  H10      1.0000 0.10140  0.42070  0.77400  Biso   1.000  H
  C13      1.0000 0.05570  0.55310  0.86780  Biso   1.000  C
  C14      1.0000 0.11100  0.61420  0.84450  Biso   1.000  C
  H11      1.0000 0.12500  0.62140  0.80340  Biso   1.000  H
  C15      1.0000 0.13950  0.65960  0.89180  Biso   1.000  C
  H12      1.0000 0.15840  0.71350  0.89080  Biso   1.000  H
  C16      1.0000 0.13410  0.60630  0.94415  Biso   1.000  C
  O3       1.0000 0.08210  0.41550  0.45260  Biso   1.000  O
  C17      1.0000 0.20010  0.29900  0.44490  Biso   1.000  C
  H13      1.0000 0.18240  0.32080  0.40760  Biso   1.000  H
  C18      1.0000 0.25510  0.23760  0.44510  Biso   1.000  C
  H14      1.0000 0.27090  0.21270  0.40840  Biso   1.000  H
  N3       1.0000 0.06490  0.45040  0.07680  Biso   1.000  N
  C19      1.0000 0.05660  0.53880  0.30890  Biso   1.000  C
  H15      1.0000 0.09930  0.56400  0.33030  Biso   1.000  H
  C20      1.0000 0.06300  0.54780  0.24710  Biso   1.000  C
  H16      1.0000 0.10140  0.57930  0.22600  Biso   1.000  H
  C21      1.0000 0.05570  0.44690  0.13220  Biso   1.000  C
  C22      1.0000 0.11100  0.38580  0.15550  Biso   1.000  C
  H17      1.0000 0.12500  0.37860  0.19660  Biso   1.000  H
  C23      1.0000 0.13950  0.34040  0.10820  Biso   1.000  C
  H18      1.0000 0.15840  0.28650  0.10920  Biso   1.000  H
  C24      1.0000 0.13410  0.39370  0.05585  Biso   1.000  C
  O4       1.0000 0.91790  0.58450  0.45260  Biso   1.000  O
  C25      1.0000 0.79990  0.70100  0.44490  Biso   1.000  C
  H19      1.0000 0.81760  0.67920  0.40760  Biso   1.000  H
  C26      1.0000 0.74490  0.76240  0.44510  Biso   1.000  C
  H20      1.0000 0.72910  0.78730  0.40840  Biso   1.000  H
  N4       1.0000 0.93510  0.54960  0.07680  Biso   1.000  N
  C27      1.0000 0.94340  0.46120  0.30890  Biso   1.000  C
  H21      1.0000 0.90070  0.43600  0.33030  Biso   1.000  H
  C28      1.0000 0.93700  0.45220  0.24710  Biso   1.000  C
  H22      1.0000 0.89860  0.42070  0.22600  Biso   1.000  H
  C29      1.0000 0.94430  0.55310  0.13220  Biso   1.000  C
  C30      1.0000 0.88900  0.61420  0.15550  Biso   1.000  C
  H23      1.0000 0.87500  0.62140  0.19660  Biso   1.000  H
  C31      1.0000 0.86050  0.65960  0.10820  Biso   1.000  C
  H24      1.0000 0.84160  0.71350  0.10920  Biso   1.000  H
  C32      1.0000 0.86590  0.60630  0.05585  Biso   1.000  C
  O5       1.0000 0.08210  0.58450  0.45260  Biso   1.000  O
  C33      1.0000 0.20010  0.70100  0.44490  Biso   1.000  C
  H25      1.0000 0.18240  0.67920  0.40760  Biso   1.000  H
  C34      1.0000 0.25510  0.76240  0.44510  Biso   1.000  C
  H26      1.0000 0.27090  0.78730  0.40840  Biso   1.000  H
  N5       1.0000 0.06490  0.54960  0.07680  Biso   1.000  N
  C35      1.0000 0.05660  0.46120  0.30890  Biso   1.000  C
  H27      1.0000 0.09930  0.43600  0.33030  Biso   1.000  H
  C36      1.0000 0.06300  0.45220  0.24710  Biso   1.000  C
  H28      1.0000 0.10140  0.42070  0.22600  Biso   1.000  H
  C37      1.0000 0.05570  0.55310  0.13220  Biso   1.000  C
  C38      1.0000 0.11100  0.61420  0.15550  Biso   1.000  C
  H29      1.0000 0.12500  0.62140  0.19660  Biso   1.000  H
  C39      1.0000 0.13950  0.65960  0.10820  Biso   1.000  C
  H30      1.0000 0.15840  0.71350  0.10920  Biso   1.000  H
  C40      1.0000 0.13410  0.60630  0.05585  Biso   1.000  C
  O6       1.0000 0.91790  0.41550  0.45260  Biso   1.000  O
  C41      1.0000 0.79990  0.29900  0.44490  Biso   1.000  C
  H31      1.0000 0.81760  0.32080  0.40760  Biso   1.000  H
  C42      1.0000 0.74490  0.23760  0.44510  Biso   1.000  C
  H32      1.0000 0.72910  0.21270  0.40840  Biso   1.000  H
  N6       1.0000 0.93510  0.45040  0.07680  Biso   1.000  N
  C43      1.0000 0.94340  0.53880  0.30890  Biso   1.000  C
  H33      1.0000 0.90070  0.56400  0.33030  Biso   1.000  H
  C44      1.0000 0.93700  0.54780  0.24710  Biso   1.000  C
  H34      1.0000 0.89860  0.57930  0.22600  Biso   1.000  H
  C45      1.0000 0.94430  0.44690  0.13220  Biso   1.000  C
  C46      1.0000 0.88900  0.38580  0.15550  Biso   1.000  C
  H35      1.0000 0.87500  0.37860  0.19660  Biso   1.000  H
  C47      1.0000 0.86050  0.34040  0.10820  Biso   1.000  C
  H36      1.0000 0.84160  0.28650  0.10920  Biso   1.000  H
  C48      1.0000 0.86590  0.39370  0.05585  Biso   1.000  C
  O7       1.0000 0.91790  0.58450  0.54740  Biso   1.000  O
  C49      1.0000 0.79990  0.70100  0.55510  Biso   1.000  C
  H37      1.0000 0.81760  0.67920  0.59240  Biso   1.000  H
  C50      1.0000 0.74490  0.76240  0.55490  Biso   1.000  C
  H38      1.0000 0.72910  0.78730  0.59160  Biso   1.000  H
  N7       1.0000 0.93510  0.54960  0.92320  Biso   1.000  N
  C51      1.0000 0.94340  0.46120  0.69110  Biso   1.000  C
  H39      1.0000 0.90070  0.43600  0.66970  Biso   1.000  H
  C52      1.0000 0.93700  0.45220  0.75290  Biso   1.000  C
  H40      1.0000 0.89860  0.42070  0.77400  Biso   1.000  H
  C53      1.0000 0.94430  0.55310  0.86780  Biso   1.000  C
  C54      1.0000 0.88900  0.61420  0.84450  Biso   1.000  C
  H41      1.0000 0.87500  0.62140  0.80340  Biso   1.000  H
  C55      1.0000 0.86050  0.65960  0.89180  Biso   1.000  C
  H42      1.0000 0.84160  0.71350  0.89080  Biso   1.000  H
  C56      1.0000 0.86590  0.60630  0.94415  Biso   1.000  C
  O8       1.0000 0.08210  0.41550  0.54740  Biso   1.000  O
  C57      1.0000 0.20010  0.29900  0.55510  Biso   1.000  C
  H43      1.0000 0.18240  0.32080  0.59240  Biso   1.000  H
  C58      1.0000 0.25510  0.23760  0.55490  Biso   1.000  C
  H44      1.0000 0.27090  0.21270  0.59160  Biso   1.000  H
  N8       1.0000 0.06490  0.45040  0.92320  Biso   1.000  N
  C59      1.0000 0.05660  0.53880  0.69110  Biso   1.000  C
  H45      1.0000 0.09930  0.56400  0.66970  Biso   1.000  H
  C60      1.0000 0.06300  0.54780  0.75290  Biso   1.000  C
  H46      1.0000 0.10140  0.57930  0.77400  Biso   1.000  H
  C61      1.0000 0.05570  0.44690  0.86780  Biso   1.000  C
  C62      1.0000 0.11100  0.38580  0.84450  Biso   1.000  C
  H47      1.0000 0.12500  0.37860  0.80340  Biso   1.000  H
  C63      1.0000 0.13950  0.34040  0.89180  Biso   1.000  C
  H48      1.0000 0.15840  0.28650  0.89080  Biso   1.000  H
  C64      1.0000 0.13410  0.39370  0.94415  Biso   1.000  C
  Zn1      1.0000 0.00000  0.50000  0.56464  Biso   1.000  Zn
  N9       1.0000 0.00000  0.50000  0.65260  Biso   1.000  N
  C65      1.0000 0.00000  0.50000  0.77870  Biso   1.000  C
  C66      1.0000 0.00000  0.50000  0.84770  Biso   1.000  C
  Zn2      1.0000 0.00000  0.50000  0.43536  Biso   1.000  Zn
  N10      1.0000 0.00000  0.50000  0.34740  Biso   1.000  N
  C67      1.0000 0.00000  0.50000  0.22130  Biso   1.000  C
  C68      1.0000 0.00000  0.50000  0.15230  Biso   1.000  C
  Fe1      1.0000 0.50000  0.00000  0.50000  Biso   1.000  Fe
  F1       1.0000 0.70250  0.40580  0.00000  Biso   1.000  F
  F2       1.0000 0.56690  0.28820  0.00000  Biso   1.000  F
  F3       1.0000 0.75940  0.07230  0.00000  Biso   1.000  F
  F4       1.0000 0.88920  0.18370  0.00000  Biso   1.000  F
  C69      1.0000 0.85700  0.35300  0.00000  Biso   1.000  C
  C70      1.0000 0.78500  0.29000  0.00000  Biso   1.000  C
  C71      1.0000 0.70500  0.31470  0.00000  Biso   1.000  C
  C72      1.0000 0.64400  0.25800  0.00000  Biso   1.000  C
  C73      1.0000 0.66300  0.17600  0.00000  Biso   1.000  C
  C74      1.0000 0.74300  0.15200  0.00000  Biso   1.000  C
  C75      1.0000 0.80400  0.20900  0.00000  Biso   1.000  C
  F5       1.0000 0.29750  0.59420  0.00000  Biso   1.000  F
  F6       1.0000 0.43310  0.71180  0.00000  Biso   1.000  F
  F7       1.0000 0.24060  0.92770  0.00000  Biso   1.000  F
  F8       1.0000 0.11080  0.81630  0.00000  Biso   1.000  F
  C76      1.0000 0.14300  0.64700  0.00000  Biso   1.000  C
  C77      1.0000 0.21500  0.71000  0.00000  Biso   1.000  C
  C78      1.0000 0.29500  0.68530  0.00000  Biso   1.000  C
  C79      1.0000 0.35600  0.74200  0.00000  Biso   1.000  C
  C80      1.0000 0.33700  0.82400  0.00000  Biso   1.000  C
  C81      1.0000 0.25700  0.84800  0.00000  Biso   1.000  C
  C82      1.0000 0.19600  0.79100  0.00000  Biso   1.000  C
  F9       1.0000 0.29750  0.40580  0.00000  Biso   1.000  F
  F10      1.0000 0.43310  0.28820  0.00000  Biso   1.000  F
  F11      1.0000 0.24060  0.07230  0.00000  Biso   1.000  F
  F12      1.0000 0.11080  0.18370  0.00000  Biso   1.000  F
  C83      1.0000 0.14300  0.35300  0.00000  Biso   1.000  C
  C84      1.0000 0.21500  0.29000  0.00000  Biso   1.000  C
  C85      1.0000 0.29500  0.31470  0.00000  Biso   1.000  C
  C86      1.0000 0.35600  0.25800  0.00000  Biso   1.000  C
  C87      1.0000 0.33700  0.17600  0.00000  Biso   1.000  C
  C88      1.0000 0.25700  0.15200  0.00000  Biso   1.000  C
  C89      1.0000 0.19600  0.20900  0.00000  Biso   1.000  C
  F13      1.0000 0.70250  0.59420  0.00000  Biso   1.000  F
  F14      1.0000 0.56690  0.71180  0.00000  Biso   1.000  F
  F15      1.0000 0.75940  0.92770  0.00000  Biso   1.000  F
  F16      1.0000 0.88920  0.81630  0.00000  Biso   1.000  F
  C90      1.0000 0.85700  0.64700  0.00000  Biso   1.000  C
  C91      1.0000 0.78500  0.71000  0.00000  Biso   1.000  C
  C92      1.0000 0.70500  0.68530  0.00000  Biso   1.000  C
  C93      1.0000 0.64400  0.74200  0.00000  Biso   1.000  C
  C94      1.0000 0.66300  0.82400  0.00000  Biso   1.000  C
  C95      1.0000 0.74300  0.84800  0.00000  Biso   1.000  C
  C96      1.0000 0.80400  0.79100  0.00000  Biso   1.000  C
  Cl1      1.0000 0.50000  0.00000  0.38470  Biso   1.000  Cl
  Cl2      1.0000 0.50000  0.00000  0.61530  Biso   1.000  Cl
  N11      1.0000 0.50000  0.11980  0.50000  Biso   1.000  N
  N12      1.0000 0.50000  0.88020  0.50000  Biso   1.000  N
  N13      1.0000 0.62240  0.00000  0.50000  Biso   1.000  N
  N14      1.0000 0.37760  0.00000  0.50000  Biso   1.000  N
  C97      1.0000 0.88970  0.39070  0.50000  Biso   1.000  C
  C98      1.0000 0.83090  0.33070  0.50000  Biso   1.000  C
  C99      1.0000 0.71240  0.21220  0.50000  Biso   1.000  C
  C100     1.0000 0.64260  0.14530  0.50000  Biso   1.000  C
  C101     1.0000 0.67510  0.06270  0.50000  Biso   1.000  C
  C102     1.0000 0.74900  0.03830  0.50000  Biso   1.000  C
  H49      1.0000 0.79540  0.07180  0.50000  Biso   1.000  H
  C103     1.0000 0.56590  0.16840  0.50000  Biso   1.000  C
  C104     1.0000 0.54410  0.25540  0.50000  Biso   1.000  C
  H50      1.0000 0.57930  0.30040  0.50000  Biso   1.000  H
  C105     1.0000 0.11030  0.60930  0.50000  Biso   1.000  C
  C106     1.0000 0.16910  0.66930  0.50000  Biso   1.000  C
  C107     1.0000 0.28760  0.78780  0.50000  Biso   1.000  C
  C108     1.0000 0.35740  0.85470  0.50000  Biso   1.000  C
  C109     1.0000 0.32490  0.93730  0.50000  Biso   1.000  C
  C110     1.0000 0.25100  0.96170  0.50000  Biso   1.000  C
  H51      1.0000 0.20460  0.92820  0.50000  Biso   1.000  H
  C111     1.0000 0.43410  0.83160  0.50000  Biso   1.000  C
  C112     1.0000 0.45590  0.74460  0.50000  Biso   1.000  C
  H52      1.0000 0.42070  0.69960  0.50000  Biso   1.000  H
  C113     1.0000 0.11030  0.39070  0.50000  Biso   1.000  C
  C114     1.0000 0.16910  0.33070  0.50000  Biso   1.000  C
  C115     1.0000 0.28760  0.21220  0.50000  Biso   1.000  C
  C116     1.0000 0.35740  0.14530  0.50000  Biso   1.000  C
  C117     1.0000 0.32490  0.06270  0.50000  Biso   1.000  C
  C118     1.0000 0.25100  0.03830  0.50000  Biso   1.000  C
  H53      1.0000 0.20460  0.07180  0.50000  Biso   1.000  H
  C119     1.0000 0.43410  0.16840  0.50000  Biso   1.000  C
  C120     1.0000 0.45590  0.25540  0.50000  Biso   1.000  C
  H54      1.0000 0.42070  0.30040  0.50000  Biso   1.000  H
  C121     1.0000 0.88970  0.60930  0.50000  Biso   1.000  C
  C122     1.0000 0.83090  0.66930  0.50000  Biso   1.000  C
  C123     1.0000 0.71240  0.78780  0.50000  Biso   1.000  C
  C124     1.0000 0.64260  0.85470  0.50000  Biso   1.000  C
  C125     1.0000 0.67510  0.93730  0.50000  Biso   1.000  C
  C126     1.0000 0.74900  0.96170  0.50000  Biso   1.000  C
  H55      1.0000 0.79540  0.92820  0.50000  Biso   1.000  H
  C127     1.0000 0.56590  0.83160  0.50000  Biso   1.000  C
  C128     1.0000 0.54410  0.74460  0.50000  Biso   1.000  C
  H56      1.0000 0.57930  0.69960  0.50000  Biso   1.000  H
  Zn3      1.0000 0.00000  0.50000  0.00000  Biso   1.000  Zn
