data_image0
_cell_length_a       16.6121
_cell_length_b       16.6202
_cell_length_c       22.1631
_cell_angle_alpha    90
_cell_angle_beta     90
_cell_angle_gamma    90

_symmetry_space_group_name_H-M    "P 1"
_symmetry_int_tables_number       1

loop_
  _symmetry_equiv_pos_as_xyz
  'x, y, z'

loop_
  _atom_site_label
  _atom_site_occupancy
  _atom_site_fract_x
  _atom_site_fract_y
  _atom_site_fract_z
  _atom_site_thermal_displace_type
  _atom_site_B_iso_or_equiv
  _atom_site_type_symbol
  O1       1.0000 0.91631  0.41562  0.55085  Biso   1.000  O
  C1       1.0000 0.79920  0.29890  0.55370  Biso   1.000  C
  H1       1.0000 0.81980  0.31970  0.59050  Biso   1.000  H
  C2       1.0000 0.73960  0.24010  0.55550  Biso   1.000  C
  H2       1.0000 0.71920  0.22080  0.59280  Biso   1.000  H
  N1       1.0000 0.94070  0.43870  0.93400  Biso   1.000  N
  C3       1.0000 0.04970  0.54460  0.68490  Biso   1.000  C
  H3       1.0000 0.08720  0.57720  0.66370  Biso   1.000  H
  C4       1.0000 0.05040  0.54670  0.74550  Biso   1.000  C
  H4       1.0000 0.08730  0.58190  0.76480  Biso   1.000  H
  C5       1.0000 0.94610  0.44530  0.87440  Biso   1.000  C
  C6       1.0000 0.89030  0.39110  0.84560  Biso   1.000  C
  H5       1.0000 0.88220  0.38480  0.80340  Biso   1.000  H
  C7       1.0000 0.85200  0.35120  0.88970  Biso   1.000  C
  H6       1.0000 0.82070  0.30360  0.88630  Biso   1.000  H
  C8       1.0000 0.86930  0.39690  0.94360  Biso   1.000  C
  O2       1.0000 0.08369  0.58438  0.55085  Biso   1.000  O
  C9       1.0000 0.20080  0.70110  0.55370  Biso   1.000  C
  H7       1.0000 0.18020  0.68030  0.59050  Biso   1.000  H
  C10      1.0000 0.26040  0.75990  0.55550  Biso   1.000  C
  H8       1.0000 0.28080  0.77920  0.59280  Biso   1.000  H
  N2       1.0000 0.05930  0.56130  0.93400  Biso   1.000  N
  C11      1.0000 0.95030  0.45540  0.68490  Biso   1.000  C
  H9       1.0000 0.91280  0.42280  0.66370  Biso   1.000  H
  C12      1.0000 0.94960  0.45330  0.74550  Biso   1.000  C
  H10      1.0000 0.91270  0.41810  0.76480  Biso   1.000  H
  C13      1.0000 0.05390  0.55470  0.87440  Biso   1.000  C
  C14      1.0000 0.10970  0.60890  0.84560  Biso   1.000  C
  H11      1.0000 0.11780  0.61520  0.80340  Biso   1.000  H
  C15      1.0000 0.14800  0.64880  0.88970  Biso   1.000  C
  H12      1.0000 0.17930  0.69640  0.88630  Biso   1.000  H
  C16      1.0000 0.13070  0.60310  0.94360  Biso   1.000  C
  O3       1.0000 0.08369  0.41562  0.44915  Biso   1.000  O
  C17      1.0000 0.20080  0.29890  0.44630  Biso   1.000  C
  H13      1.0000 0.18020  0.31970  0.40950  Biso   1.000  H
  C18      1.0000 0.26040  0.24010  0.44450  Biso   1.000  C
  H14      1.0000 0.28080  0.22080  0.40720  Biso   1.000  H
  N3       1.0000 0.05930  0.43870  0.06600  Biso   1.000  N
  C19      1.0000 0.95030  0.54460  0.31510  Biso   1.000  C
  H15      1.0000 0.91280  0.57720  0.33630  Biso   1.000  H
  C20      1.0000 0.94960  0.54670  0.25450  Biso   1.000  C
  H16      1.0000 0.91270  0.58190  0.23520  Biso   1.000  H
  C21      1.0000 0.05390  0.44530  0.12560  Biso   1.000  C
  C22      1.0000 0.10970  0.39110  0.15440  Biso   1.000  C
  H17      1.0000 0.11780  0.38480  0.19660  Biso   1.000  H
  C23      1.0000 0.14800  0.35120  0.11030  Biso   1.000  C
  H18      1.0000 0.17930  0.30360  0.11370  Biso   1.000  H
  C24      1.0000 0.13070  0.39690  0.05640  Biso   1.000  C
  O4       1.0000 0.91631  0.58438  0.44915  Biso   1.000  O
  C25      1.0000 0.79920  0.70110  0.44630  Biso   1.000  C
  H19      1.0000 0.81980  0.68030  0.40950  Biso   1.000  H
  C26      1.0000 0.73960  0.75990  0.44450  Biso   1.000  C
  H20      1.0000 0.71920  0.77920  0.40720  Biso   1.000  H
  N4       1.0000 0.94070  0.56130  0.06600  Biso   1.000  N
  C27      1.0000 0.04970  0.45540  0.31510  Biso   1.000  C
  H21      1.0000 0.08720  0.42280  0.33630  Biso   1.000  H
  C28      1.0000 0.05040  0.45330  0.25450  Biso   1.000  C
  H22      1.0000 0.08730  0.41810  0.23520  Biso   1.000  H
  C29      1.0000 0.94610  0.55470  0.12560  Biso   1.000  C
  C30      1.0000 0.89030  0.60890  0.15440  Biso   1.000  C
  H23      1.0000 0.88220  0.61520  0.19660  Biso   1.000  H
  C31      1.0000 0.85200  0.64880  0.11030  Biso   1.000  C
  H24      1.0000 0.82070  0.69640  0.11370  Biso   1.000  H
  C32      1.0000 0.86930  0.60310  0.05640  Biso   1.000  C
  O5       1.0000 0.08369  0.58438  0.44915  Biso   1.000  O
  C33      1.0000 0.20080  0.70110  0.44630  Biso   1.000  C
  H25      1.0000 0.18020  0.68030  0.40950  Biso   1.000  H
  C34      1.0000 0.26040  0.75990  0.44450  Biso   1.000  C
  H26      1.0000 0.28080  0.77920  0.40720  Biso   1.000  H
  N5       1.0000 0.05930  0.56130  0.06600  Biso   1.000  N
  C35      1.0000 0.95030  0.45540  0.31510  Biso   1.000  C
  H27      1.0000 0.91280  0.42280  0.33630  Biso   1.000  H
  C36      1.0000 0.94960  0.45330  0.25450  Biso   1.000  C
  H28      1.0000 0.91270  0.41810  0.23520  Biso   1.000  H
  C37      1.0000 0.05390  0.55470  0.12560  Biso   1.000  C
  C38      1.0000 0.10970  0.60890  0.15440  Biso   1.000  C
  H29      1.0000 0.11780  0.61520  0.19660  Biso   1.000  H
  C39      1.0000 0.14800  0.64880  0.11030  Biso   1.000  C
  H30      1.0000 0.17930  0.69640  0.11370  Biso   1.000  H
  C40      1.0000 0.13070  0.60310  0.05640  Biso   1.000  C
  O6       1.0000 0.91631  0.41562  0.44915  Biso   1.000  O
  C41      1.0000 0.79920  0.29890  0.44630  Biso   1.000  C
  H31      1.0000 0.81980  0.31970  0.40950  Biso   1.000  H
  C42      1.0000 0.73960  0.24010  0.44450  Biso   1.000  C
  H32      1.0000 0.71920  0.22080  0.40720  Biso   1.000  H
  N6       1.0000 0.94070  0.43870  0.06600  Biso   1.000  N
  C43      1.0000 0.04970  0.54460  0.31510  Biso   1.000  C
  H33      1.0000 0.08720  0.57720  0.33630  Biso   1.000  H
  C44      1.0000 0.05040  0.54670  0.25450  Biso   1.000  C
  H34      1.0000 0.08730  0.58190  0.23520  Biso   1.000  H
  C45      1.0000 0.94610  0.44530  0.12560  Biso   1.000  C
  C46      1.0000 0.89030  0.39110  0.15440  Biso   1.000  C
  H35      1.0000 0.88220  0.38480  0.19660  Biso   1.000  H
  C47      1.0000 0.85200  0.35120  0.11030  Biso   1.000  C
  H36      1.0000 0.82070  0.30360  0.11370  Biso   1.000  H
  C48      1.0000 0.86930  0.39690  0.05640  Biso   1.000  C
  O7       1.0000 0.91631  0.58438  0.55085  Biso   1.000  O
  C49      1.0000 0.79920  0.70110  0.55370  Biso   1.000  C
  H37      1.0000 0.81980  0.68030  0.59050  Biso   1.000  H
  C50      1.0000 0.73960  0.75990  0.55550  Biso   1.000  C
  H38      1.0000 0.71920  0.77920  0.59280  Biso   1.000  H
  N7       1.0000 0.94070  0.56130  0.93400  Biso   1.000  N
  C51      1.0000 0.04970  0.45540  0.68490  Biso   1.000  C
  H39      1.0000 0.08720  0.42280  0.66370  Biso   1.000  H
  C52      1.0000 0.05040  0.45330  0.74550  Biso   1.000  C
  H40      1.0000 0.08730  0.41810  0.76480  Biso   1.000  H
  C53      1.0000 0.94610  0.55470  0.87440  Biso   1.000  C
  C54      1.0000 0.89030  0.60890  0.84560  Biso   1.000  C
  H41      1.0000 0.88220  0.61520  0.80340  Biso   1.000  H
  C55      1.0000 0.85200  0.64880  0.88970  Biso   1.000  C
  H42      1.0000 0.82070  0.69640  0.88630  Biso   1.000  H
  C56      1.0000 0.86930  0.60310  0.94360  Biso   1.000  C
  O8       1.0000 0.08369  0.41562  0.55085  Biso   1.000  O
  C57      1.0000 0.20080  0.29890  0.55370  Biso   1.000  C
  H43      1.0000 0.18020  0.31970  0.59050  Biso   1.000  H
  C58      1.0000 0.26040  0.24010  0.55550  Biso   1.000  C
  H44      1.0000 0.28080  0.22080  0.59280  Biso   1.000  H
  N8       1.0000 0.05930  0.43870  0.93400  Biso   1.000  N
  C59      1.0000 0.95030  0.54460  0.68490  Biso   1.000  C
  H45      1.0000 0.91280  0.57720  0.66370  Biso   1.000  H
  C60      1.0000 0.94960  0.54670  0.74550  Biso   1.000  C
  H46      1.0000 0.91270  0.58190  0.76480  Biso   1.000  H
  C61      1.0000 0.05390  0.44530  0.87440  Biso   1.000  C
  C62      1.0000 0.10970  0.39110  0.84560  Biso   1.000  C
  H47      1.0000 0.11780  0.38480  0.80340  Biso   1.000  H
  C63      1.0000 0.14800  0.35120  0.88970  Biso   1.000  C
  H48      1.0000 0.17930  0.30360  0.88630  Biso   1.000  H
  C64      1.0000 0.13070  0.39690  0.94360  Biso   1.000  C
  Zn1      1.0000 0.00000  0.50000  0.56538  Biso   1.000  Zn
  N9       1.0000 0.00000  0.50000  0.65350  Biso   1.000  N
  C65      1.0000 0.00000  0.50000  0.78130  Biso   1.000  C
  C66      1.0000 0.00000  0.50000  0.85030  Biso   1.000  C
  Zn2      1.0000 0.00000  0.50000  0.43462  Biso   1.000  Zn
  N10      1.0000 0.00000  0.50000  0.34650  Biso   1.000  N
  C67      1.0000 0.00000  0.50000  0.21870  Biso   1.000  C
  C68      1.0000 0.00000  0.50000  0.14970  Biso   1.000  C
  Zn3      1.0000 0.50000  0.00000  0.50000  Biso   1.000  Zn
  N11      1.0000 0.50000  0.12330  0.50000  Biso   1.000  N
  N12      1.0000 0.50000  0.87670  0.50000  Biso   1.000  N
  N13      1.0000 0.62150  0.00000  0.50000  Biso   1.000  N
  N14      1.0000 0.37850  0.00000  0.50000  Biso   1.000  N
  C69      1.0000 0.89320  0.39360  0.50000  Biso   1.000  C
  C70      1.0000 0.82920  0.32780  0.50000  Biso   1.000  C
  C71      1.0000 0.71020  0.21010  0.50000  Biso   1.000  C
  C72      1.0000 0.64580  0.14600  0.50000  Biso   1.000  C
  C73      1.0000 0.67290  0.06550  0.50000  Biso   1.000  C
  C74      1.0000 0.75530  0.04000  0.50000  Biso   1.000  C
  H49      1.0000 0.80130  0.07400  0.50000  Biso   1.000  H
  C75      1.0000 0.56550  0.17200  0.50000  Biso   1.000  C
  C76      1.0000 0.54040  0.25530  0.50000  Biso   1.000  C
  H50      1.0000 0.57450  0.30120  0.50000  Biso   1.000  H
  C77      1.0000 0.10680  0.60640  0.50000  Biso   1.000  C
  C78      1.0000 0.17080  0.67220  0.50000  Biso   1.000  C
  C79      1.0000 0.28980  0.78990  0.50000  Biso   1.000  C
  C80      1.0000 0.35420  0.85400  0.50000  Biso   1.000  C
  C81      1.0000 0.32710  0.93450  0.50000  Biso   1.000  C
  C82      1.0000 0.24470  0.96000  0.50000  Biso   1.000  C
  H51      1.0000 0.19870  0.92600  0.50000  Biso   1.000  H
  C83      1.0000 0.43450  0.82800  0.50000  Biso   1.000  C
  C84      1.0000 0.45960  0.74470  0.50000  Biso   1.000  C
  H52      1.0000 0.42550  0.69880  0.50000  Biso   1.000  H
  C85      1.0000 0.10680  0.39360  0.50000  Biso   1.000  C
  C86      1.0000 0.17080  0.32780  0.50000  Biso   1.000  C
  C87      1.0000 0.28980  0.21010  0.50000  Biso   1.000  C
  C88      1.0000 0.35420  0.14600  0.50000  Biso   1.000  C
  C89      1.0000 0.32710  0.06550  0.50000  Biso   1.000  C
  C90      1.0000 0.24470  0.04000  0.50000  Biso   1.000  C
  H53      1.0000 0.19870  0.07400  0.50000  Biso   1.000  H
  C91      1.0000 0.43450  0.17200  0.50000  Biso   1.000  C
  C92      1.0000 0.45960  0.25530  0.50000  Biso   1.000  C
  H54      1.0000 0.42550  0.30120  0.50000  Biso   1.000  H
  C93      1.0000 0.89320  0.60640  0.50000  Biso   1.000  C
  C94      1.0000 0.82920  0.67220  0.50000  Biso   1.000  C
  C95      1.0000 0.71020  0.78990  0.50000  Biso   1.000  C
  C96      1.0000 0.64580  0.85400  0.50000  Biso   1.000  C
  C97      1.0000 0.67290  0.93450  0.50000  Biso   1.000  C
  C98      1.0000 0.75530  0.96000  0.50000  Biso   1.000  C
  H55      1.0000 0.80130  0.92600  0.50000  Biso   1.000  H
  C99      1.0000 0.56550  0.82800  0.50000  Biso   1.000  C
  C100     1.0000 0.54040  0.74470  0.50000  Biso   1.000  C
  H56      1.0000 0.57450  0.69880  0.50000  Biso   1.000  H
  Mn1      1.0000 0.00000  0.50000  0.00000  Biso   1.000  Mn
  C101     1.0000 0.87900  0.36100  0.00000  Biso   1.000  C
  C102     1.0000 0.81300  0.29820  0.00000  Biso   1.000  C
  C103     1.0000 0.73310  0.33030  0.00000  Biso   1.000  C
  C104     1.0000 0.66480  0.27880  0.00000  Biso   1.000  C
  C105     1.0000 0.67670  0.19410  0.00000  Biso   1.000  C
  C106     1.0000 0.75650  0.16160  0.00000  Biso   1.000  C
  C107     1.0000 0.82480  0.21360  0.00000  Biso   1.000  C
  F1       1.0000 0.72390  0.41080  0.00000  Biso   1.000  F
  F2       1.0000 0.58990  0.31060  0.00000  Biso   1.000  F
  F3       1.0000 0.61280  0.14300  0.00000  Biso   1.000  F
  F4       1.0000 0.76700  0.08140  0.00000  Biso   1.000  F
  F5       1.0000 0.89990  0.18300  0.00000  Biso   1.000  F
  C108     1.0000 0.12100  0.63900  0.00000  Biso   1.000  C
  C109     1.0000 0.18700  0.70180  0.00000  Biso   1.000  C
  C110     1.0000 0.26690  0.66970  0.00000  Biso   1.000  C
  C111     1.0000 0.33520  0.72120  0.00000  Biso   1.000  C
  C112     1.0000 0.32330  0.80590  0.00000  Biso   1.000  C
  C113     1.0000 0.24350  0.83840  0.00000  Biso   1.000  C
  C114     1.0000 0.17520  0.78640  0.00000  Biso   1.000  C
  F6       1.0000 0.27610  0.58920  0.00000  Biso   1.000  F
  F7       1.0000 0.41010  0.68940  0.00000  Biso   1.000  F
  F8       1.0000 0.38720  0.85700  0.00000  Biso   1.000  F
  F9       1.0000 0.23300  0.91860  0.00000  Biso   1.000  F
  F10      1.0000 0.10010  0.81700  0.00000  Biso   1.000  F
  C115     1.0000 0.12100  0.36100  0.00000  Biso   1.000  C
  C116     1.0000 0.18700  0.29820  0.00000  Biso   1.000  C
  C117     1.0000 0.26690  0.33030  0.00000  Biso   1.000  C
  C118     1.0000 0.33520  0.27880  0.00000  Biso   1.000  C
  C119     1.0000 0.32330  0.19410  0.00000  Biso   1.000  C
  C120     1.0000 0.24350  0.16160  0.00000  Biso   1.000  C
  C121     1.0000 0.17520  0.21360  0.00000  Biso   1.000  C
  F11      1.0000 0.27610  0.41080  0.00000  Biso   1.000  F
  F12      1.0000 0.41010  0.31060  0.00000  Biso   1.000  F
  F13      1.0000 0.38720  0.14300  0.00000  Biso   1.000  F
  F14      1.0000 0.23300  0.08140  0.00000  Biso   1.000  F
  F15      1.0000 0.10010  0.18300  0.00000  Biso   1.000  F
  C122     1.0000 0.87900  0.63900  0.00000  Biso   1.000  C
  C123     1.0000 0.81300  0.70180  0.00000  Biso   1.000  C
  C124     1.0000 0.73310  0.66970  0.00000  Biso   1.000  C
  C125     1.0000 0.66480  0.72120  0.00000  Biso   1.000  C
  C126     1.0000 0.67670  0.80590  0.00000  Biso   1.000  C
  C127     1.0000 0.75650  0.83840  0.00000  Biso   1.000  C
  C128     1.0000 0.82480  0.78640  0.00000  Biso   1.000  C
  F16      1.0000 0.72390  0.58920  0.00000  Biso   1.000  F
  F17      1.0000 0.58990  0.68940  0.00000  Biso   1.000  F
  F18      1.0000 0.61280  0.85700  0.00000  Biso   1.000  F
  F19      1.0000 0.76700  0.91860  0.00000  Biso   1.000  F
  F20      1.0000 0.89990  0.81700  0.00000  Biso   1.000  F
