data_image0
_cell_length_a       16.598
_cell_length_b       16.643
_cell_length_c       22.494
_cell_angle_alpha    90
_cell_angle_beta     90
_cell_angle_gamma    90

_symmetry_space_group_name_H-M    "P 1"
_symmetry_int_tables_number       1

loop_
  _symmetry_equiv_pos_as_xyz
  'x, y, z'

loop_
  _atom_site_label
  _atom_site_occupancy
  _atom_site_fract_x
  _atom_site_fract_y
  _atom_site_fract_z
  _atom_site_thermal_displace_type
  _atom_site_B_iso_or_equiv
  _atom_site_type_symbol
  O1       1.0000 0.91750  0.41520  0.54910  Biso   1.000  O
  C1       1.0000 0.79740  0.29900  0.55170  Biso   1.000  C
  H1       1.0000 0.81590  0.32000  0.58860  Biso   1.000  H
  C2       1.0000 0.74080  0.24160  0.55100  Biso   1.000  C
  H2       1.0000 0.72060  0.22230  0.58780  Biso   1.000  H
  N1       1.0000 0.94850  0.43800  0.93180  Biso   1.000  N
  C3       1.0000 0.05770  0.46300  0.68590  Biso   1.000  C
  H3       1.0000 0.11060  0.45740  0.67040  Biso   1.000  H
  C4       1.0000 0.03690  0.43380  0.73960  Biso   1.000  C
  H4       1.0000 0.04520  0.38160  0.75550  Biso   1.000  H
  C5       1.0000 0.96200  0.44800  0.87300  Biso   1.000  C
  C6       1.0000 0.90300  0.40400  0.84000  Biso   1.000  C
  H5       1.0000 0.89510  0.40580  0.79810  Biso   1.000  H
  C7       1.0000 0.86000  0.36100  0.87960  Biso   1.000  C
  H6       1.0000 0.81730  0.32460  0.87040  Biso   1.000  H
  C8       1.0000 0.88900  0.38000  0.93910  Biso   1.000  C
  O2       1.0000 0.08250  0.58480  0.54910  Biso   1.000  O
  C9       1.0000 0.20260  0.70100  0.55170  Biso   1.000  C
  H7       1.0000 0.18410  0.68000  0.58860  Biso   1.000  H
  C10      1.0000 0.25920  0.75840  0.55100  Biso   1.000  C
  H8       1.0000 0.27940  0.77770  0.58780  Biso   1.000  H
  N2       1.0000 0.05150  0.56200  0.93180  Biso   1.000  N
  C11      1.0000 0.94230  0.53700  0.68590  Biso   1.000  C
  H9       1.0000 0.88940  0.54260  0.67040  Biso   1.000  H
  C12      1.0000 0.96310  0.56620  0.73960  Biso   1.000  C
  H10      1.0000 0.95480  0.61840  0.75550  Biso   1.000  H
  C13      1.0000 0.03800  0.55200  0.87300  Biso   1.000  C
  C14      1.0000 0.09700  0.59600  0.84000  Biso   1.000  C
  H11      1.0000 0.10490  0.59420  0.79810  Biso   1.000  H
  C15      1.0000 0.14000  0.63900  0.87960  Biso   1.000  C
  H12      1.0000 0.18270  0.67540  0.87040  Biso   1.000  H
  C16      1.0000 0.11100  0.62000  0.93910  Biso   1.000  C
  O3       1.0000 0.08250  0.41520  0.45090  Biso   1.000  O
  C17      1.0000 0.20260  0.29900  0.44830  Biso   1.000  C
  H13      1.0000 0.18410  0.32000  0.41140  Biso   1.000  H
  C18      1.0000 0.25920  0.24160  0.44900  Biso   1.000  C
  H14      1.0000 0.27940  0.22230  0.41220  Biso   1.000  H
  N3       1.0000 0.05150  0.43800  0.06820  Biso   1.000  N
  C19      1.0000 0.94230  0.46300  0.31410  Biso   1.000  C
  H15      1.0000 0.88940  0.45740  0.32960  Biso   1.000  H
  C20      1.0000 0.96310  0.43380  0.26040  Biso   1.000  C
  H16      1.0000 0.95480  0.38160  0.24450  Biso   1.000  H
  C21      1.0000 0.03800  0.44800  0.12700  Biso   1.000  C
  C22      1.0000 0.09700  0.40400  0.16000  Biso   1.000  C
  H17      1.0000 0.10490  0.40580  0.20190  Biso   1.000  H
  C23      1.0000 0.14000  0.36100  0.12040  Biso   1.000  C
  H18      1.0000 0.18270  0.32460  0.12960  Biso   1.000  H
  C24      1.0000 0.11100  0.38000  0.06090  Biso   1.000  C
  O4       1.0000 0.91750  0.58480  0.45090  Biso   1.000  O
  C25      1.0000 0.79740  0.70100  0.44830  Biso   1.000  C
  H19      1.0000 0.81590  0.68000  0.41140  Biso   1.000  H
  C26      1.0000 0.74080  0.75840  0.44900  Biso   1.000  C
  H20      1.0000 0.72060  0.77770  0.41220  Biso   1.000  H
  N4       1.0000 0.94850  0.56200  0.06820  Biso   1.000  N
  C27      1.0000 0.05770  0.53700  0.31410  Biso   1.000  C
  H21      1.0000 0.11060  0.54260  0.32960  Biso   1.000  H
  C28      1.0000 0.03690  0.56620  0.26040  Biso   1.000  C
  H22      1.0000 0.04520  0.61840  0.24450  Biso   1.000  H
  C29      1.0000 0.96200  0.55200  0.12700  Biso   1.000  C
  C30      1.0000 0.90300  0.59600  0.16000  Biso   1.000  C
  H23      1.0000 0.89510  0.59420  0.20190  Biso   1.000  H
  C31      1.0000 0.86000  0.63900  0.12040  Biso   1.000  C
  H24      1.0000 0.81730  0.67540  0.12960  Biso   1.000  H
  C32      1.0000 0.88900  0.62000  0.06090  Biso   1.000  C
  O5       1.0000 0.08250  0.58480  0.45090  Biso   1.000  O
  C33      1.0000 0.20260  0.70100  0.44830  Biso   1.000  C
  H25      1.0000 0.18410  0.68000  0.41140  Biso   1.000  H
  C34      1.0000 0.25920  0.75840  0.44900  Biso   1.000  C
  H26      1.0000 0.27940  0.77770  0.41220  Biso   1.000  H
  N5       1.0000 0.05150  0.56200  0.06820  Biso   1.000  N
  C35      1.0000 0.94230  0.53700  0.31410  Biso   1.000  C
  H27      1.0000 0.88940  0.54260  0.32960  Biso   1.000  H
  C36      1.0000 0.96310  0.56620  0.26040  Biso   1.000  C
  H28      1.0000 0.95480  0.61840  0.24450  Biso   1.000  H
  C37      1.0000 0.03800  0.55200  0.12700  Biso   1.000  C
  C38      1.0000 0.09700  0.59600  0.16000  Biso   1.000  C
  H29      1.0000 0.10490  0.59420  0.20190  Biso   1.000  H
  C39      1.0000 0.14000  0.63900  0.12040  Biso   1.000  C
  H30      1.0000 0.18270  0.67540  0.12960  Biso   1.000  H
  C40      1.0000 0.11100  0.62000  0.06090  Biso   1.000  C
  O6       1.0000 0.91750  0.41520  0.45090  Biso   1.000  O
  C41      1.0000 0.79740  0.29900  0.44830  Biso   1.000  C
  H31      1.0000 0.81590  0.32000  0.41140  Biso   1.000  H
  C42      1.0000 0.74080  0.24160  0.44900  Biso   1.000  C
  H32      1.0000 0.72060  0.22230  0.41220  Biso   1.000  H
  N6       1.0000 0.94850  0.43800  0.06820  Biso   1.000  N
  C43      1.0000 0.05770  0.46300  0.31410  Biso   1.000  C
  H33      1.0000 0.11060  0.45740  0.32960  Biso   1.000  H
  C44      1.0000 0.03690  0.43380  0.26040  Biso   1.000  C
  H34      1.0000 0.04520  0.38160  0.24450  Biso   1.000  H
  C45      1.0000 0.96200  0.44800  0.12700  Biso   1.000  C
  C46      1.0000 0.90300  0.40400  0.16000  Biso   1.000  C
  H35      1.0000 0.89510  0.40580  0.20190  Biso   1.000  H
  C47      1.0000 0.86000  0.36100  0.12040  Biso   1.000  C
  H36      1.0000 0.81730  0.32460  0.12960  Biso   1.000  H
  C48      1.0000 0.88900  0.38000  0.06090  Biso   1.000  C
  O7       1.0000 0.91750  0.58480  0.54910  Biso   1.000  O
  C49      1.0000 0.79740  0.70100  0.55170  Biso   1.000  C
  H37      1.0000 0.81590  0.68000  0.58860  Biso   1.000  H
  C50      1.0000 0.74080  0.75840  0.55100  Biso   1.000  C
  H38      1.0000 0.72060  0.77770  0.58780  Biso   1.000  H
  N7       1.0000 0.94850  0.56200  0.93180  Biso   1.000  N
  C51      1.0000 0.05770  0.53700  0.68590  Biso   1.000  C
  H39      1.0000 0.11060  0.54260  0.67040  Biso   1.000  H
  C52      1.0000 0.03690  0.56620  0.73960  Biso   1.000  C
  H40      1.0000 0.04520  0.61840  0.75550  Biso   1.000  H
  C53      1.0000 0.96200  0.55200  0.87300  Biso   1.000  C
  C54      1.0000 0.90300  0.59600  0.84000  Biso   1.000  C
  H41      1.0000 0.89510  0.59420  0.79810  Biso   1.000  H
  C55      1.0000 0.86000  0.63900  0.87960  Biso   1.000  C
  H42      1.0000 0.81730  0.67540  0.87040  Biso   1.000  H
  C56      1.0000 0.88900  0.62000  0.93910  Biso   1.000  C
  O8       1.0000 0.08250  0.41520  0.54910  Biso   1.000  O
  C57      1.0000 0.20260  0.29900  0.55170  Biso   1.000  C
  H43      1.0000 0.18410  0.32000  0.58860  Biso   1.000  H
  C58      1.0000 0.25920  0.24160  0.55100  Biso   1.000  C
  H44      1.0000 0.27940  0.22230  0.58780  Biso   1.000  H
  N8       1.0000 0.05150  0.43800  0.93180  Biso   1.000  N
  C59      1.0000 0.94230  0.46300  0.68590  Biso   1.000  C
  H45      1.0000 0.88940  0.45740  0.67040  Biso   1.000  H
  C60      1.0000 0.96310  0.43380  0.73960  Biso   1.000  C
  H46      1.0000 0.95480  0.38160  0.75550  Biso   1.000  H
  C61      1.0000 0.03800  0.44800  0.87300  Biso   1.000  C
  C62      1.0000 0.09700  0.40400  0.84000  Biso   1.000  C
  H47      1.0000 0.10490  0.40580  0.79810  Biso   1.000  H
  C63      1.0000 0.14000  0.36100  0.87960  Biso   1.000  C
  H48      1.0000 0.18270  0.32460  0.87040  Biso   1.000  H
  C64      1.0000 0.11100  0.38000  0.93910  Biso   1.000  C
  Zn1      1.0000 0.00000  0.50000  0.56530  Biso   1.000  Zn
  N9       1.0000 0.00000  0.50000  0.65640  Biso   1.000  N
  C65      1.0000 0.00000  0.50000  0.76540  Biso   1.000  C
  C66      1.0000 0.00000  0.50000  0.83250  Biso   1.000  C
  Zn2      1.0000 0.00000  0.50000  0.43470  Biso   1.000  Zn
  N10      1.0000 0.00000  0.50000  0.34360  Biso   1.000  N
  C67      1.0000 0.00000  0.50000  0.23460  Biso   1.000  C
  C68      1.0000 0.00000  0.50000  0.16750  Biso   1.000  C
  Zn3      1.0000 0.50000  0.00000  0.50000  Biso   1.000  Zn
  N11      1.0000 0.50000  0.11400  0.50000  Biso   1.000  N
  N12      1.0000 0.50000  0.88600  0.50000  Biso   1.000  N
  N13      1.0000 0.62060  0.00000  0.50000  Biso   1.000  N
  N14      1.0000 0.37940  0.00000  0.50000  Biso   1.000  N
  C69      1.0000 0.89380  0.39330  0.50000  Biso   1.000  C
  C70      1.0000 0.82860  0.32740  0.50000  Biso   1.000  C
  C71      1.0000 0.71120  0.20980  0.50000  Biso   1.000  C
  C72      1.0000 0.64730  0.14970  0.50000  Biso   1.000  C
  C73      1.0000 0.67100  0.06570  0.50000  Biso   1.000  C
  C74      1.0000 0.75180  0.04050  0.50000  Biso   1.000  C
  H49      1.0000 0.79790  0.07430  0.50000  Biso   1.000  H
  C75      1.0000 0.56830  0.17310  0.50000  Biso   1.000  C
  C76      1.0000 0.54130  0.25250  0.50000  Biso   1.000  C
  H50      1.0000 0.57470  0.29890  0.50000  Biso   1.000  H
  C77      1.0000 0.10620  0.60670  0.50000  Biso   1.000  C
  C78      1.0000 0.17140  0.67260  0.50000  Biso   1.000  C
  C79      1.0000 0.28880  0.79020  0.50000  Biso   1.000  C
  C80      1.0000 0.35270  0.85030  0.50000  Biso   1.000  C
  C81      1.0000 0.32900  0.93430  0.50000  Biso   1.000  C
  C82      1.0000 0.24820  0.95950  0.50000  Biso   1.000  C
  H51      1.0000 0.20210  0.92570  0.50000  Biso   1.000  H
  C83      1.0000 0.43170  0.82690  0.50000  Biso   1.000  C
  C84      1.0000 0.45870  0.74750  0.50000  Biso   1.000  C
  H52      1.0000 0.42530  0.70110  0.50000  Biso   1.000  H
  C85      1.0000 0.10620  0.39330  0.50000  Biso   1.000  C
  C86      1.0000 0.17140  0.32740  0.50000  Biso   1.000  C
  C87      1.0000 0.28880  0.20980  0.50000  Biso   1.000  C
  C88      1.0000 0.35270  0.14970  0.50000  Biso   1.000  C
  C89      1.0000 0.32900  0.06570  0.50000  Biso   1.000  C
  C90      1.0000 0.24820  0.04050  0.50000  Biso   1.000  C
  H53      1.0000 0.20210  0.07430  0.50000  Biso   1.000  H
  C91      1.0000 0.43170  0.17310  0.50000  Biso   1.000  C
  C92      1.0000 0.45870  0.25250  0.50000  Biso   1.000  C
  H54      1.0000 0.42530  0.29890  0.50000  Biso   1.000  H
  C93      1.0000 0.89380  0.60670  0.50000  Biso   1.000  C
  C94      1.0000 0.82860  0.67260  0.50000  Biso   1.000  C
  C95      1.0000 0.71120  0.79020  0.50000  Biso   1.000  C
  C96      1.0000 0.64730  0.85030  0.50000  Biso   1.000  C
  C97      1.0000 0.67100  0.93430  0.50000  Biso   1.000  C
  C98      1.0000 0.75180  0.95950  0.50000  Biso   1.000  C
  H55      1.0000 0.79790  0.92570  0.50000  Biso   1.000  H
  C99      1.0000 0.56830  0.82690  0.50000  Biso   1.000  C
  C100     1.0000 0.54130  0.74750  0.50000  Biso   1.000  C
  H56      1.0000 0.57470  0.70110  0.50000  Biso   1.000  H
  Zn4      1.0000 0.00000  0.50000  0.00000  Biso   1.000  Zn
  C101     1.0000 0.87900  0.36400  0.00000  Biso   1.000  C
  C102     1.0000 0.81400  0.30040  0.00000  Biso   1.000  C
  C103     1.0000 0.73640  0.33400  0.00000  Biso   1.000  C
  C104     1.0000 0.66810  0.28320  0.00000  Biso   1.000  C
  C105     1.0000 0.67730  0.19920  0.00000  Biso   1.000  C
  C106     1.0000 0.75500  0.16600  0.00000  Biso   1.000  C
  C107     1.0000 0.82300  0.21580  0.00000  Biso   1.000  C
  F1       1.0000 0.72670  0.41300  0.00000  Biso   1.000  F
  F2       1.0000 0.59400  0.31590  0.00000  Biso   1.000  F
  F3       1.0000 0.61230  0.15140  0.00000  Biso   1.000  F
  F4       1.0000 0.76390  0.08600  0.00000  Biso   1.000  F
  F5       1.0000 0.89700  0.18400  0.00000  Biso   1.000  F
  C108     1.0000 0.12100  0.63600  0.00000  Biso   1.000  C
  C109     1.0000 0.18600  0.69960  0.00000  Biso   1.000  C
  C110     1.0000 0.26360  0.66600  0.00000  Biso   1.000  C
  C111     1.0000 0.33190  0.71680  0.00000  Biso   1.000  C
  C112     1.0000 0.32270  0.80080  0.00000  Biso   1.000  C
  C113     1.0000 0.24500  0.83400  0.00000  Biso   1.000  C
  C114     1.0000 0.17700  0.78420  0.00000  Biso   1.000  C
  F6       1.0000 0.27330  0.58700  0.00000  Biso   1.000  F
  F7       1.0000 0.40600  0.68410  0.00000  Biso   1.000  F
  F8       1.0000 0.38770  0.84860  0.00000  Biso   1.000  F
  F9       1.0000 0.23610  0.91400  0.00000  Biso   1.000  F
  F10      1.0000 0.10300  0.81600  0.00000  Biso   1.000  F
  C115     1.0000 0.12100  0.36400  0.00000  Biso   1.000  C
  C116     1.0000 0.18600  0.30040  0.00000  Biso   1.000  C
  C117     1.0000 0.26360  0.33400  0.00000  Biso   1.000  C
  C118     1.0000 0.33190  0.28320  0.00000  Biso   1.000  C
  C119     1.0000 0.32270  0.19920  0.00000  Biso   1.000  C
  C120     1.0000 0.24500  0.16600  0.00000  Biso   1.000  C
  C121     1.0000 0.17700  0.21580  0.00000  Biso   1.000  C
  F11      1.0000 0.27330  0.41300  0.00000  Biso   1.000  F
  F12      1.0000 0.40600  0.31590  0.00000  Biso   1.000  F
  F13      1.0000 0.38770  0.15140  0.00000  Biso   1.000  F
  F14      1.0000 0.23610  0.08600  0.00000  Biso   1.000  F
  F15      1.0000 0.10300  0.18400  0.00000  Biso   1.000  F
  C122     1.0000 0.87900  0.63600  0.00000  Biso   1.000  C
  C123     1.0000 0.81400  0.69960  0.00000  Biso   1.000  C
  C124     1.0000 0.73640  0.66600  0.00000  Biso   1.000  C
  C125     1.0000 0.66810  0.71680  0.00000  Biso   1.000  C
  C126     1.0000 0.67730  0.80080  0.00000  Biso   1.000  C
  C127     1.0000 0.75500  0.83400  0.00000  Biso   1.000  C
  C128     1.0000 0.82300  0.78420  0.00000  Biso   1.000  C
  F16      1.0000 0.72670  0.58700  0.00000  Biso   1.000  F
  F17      1.0000 0.59400  0.68410  0.00000  Biso   1.000  F
  F18      1.0000 0.61230  0.84860  0.00000  Biso   1.000  F
  F19      1.0000 0.76390  0.91400  0.00000  Biso   1.000  F
  F20      1.0000 0.89700  0.81600  0.00000  Biso   1.000  F
