data_image0
_cell_length_a       8.6931
_cell_length_b       14.4394
_cell_length_c       12.6492
_cell_angle_alpha    90
_cell_angle_beta     96.418
_cell_angle_gamma    90

_symmetry_space_group_name_H-M    "P 1"
_symmetry_int_tables_number       1

loop_
  _symmetry_equiv_pos_as_xyz
  'x, y, z'

loop_
  _atom_site_label
  _atom_site_occupancy
  _atom_site_fract_x
  _atom_site_fract_y
  _atom_site_fract_z
  _atom_site_thermal_displace_type
  _atom_site_B_iso_or_equiv
  _atom_site_type_symbol
  Zn1      1.0000 0.14035  0.37305  0.95441  Biso   1.000  Zn
  Zn2      1.0000 0.61942  0.48990  0.64352  Biso   1.000  Zn
  P1       1.0000 0.88563  0.51266  0.84665  Biso   1.000  P
  P2       1.0000 0.10577  0.15091  0.95339  Biso   1.000  P
  P3       1.0000 0.37419  0.46126  0.80659  Biso   1.000  P
  O1       1.0000 0.80850  0.51334  0.73352  Biso   1.000  O
  O2       1.0000 0.19060  0.08430  0.03184  Biso   1.000  O
  O3       1.0000 0.46260  0.43170  0.71670  Biso   1.000  O
  O4       1.0000 0.94380  0.11301  0.91492  Biso   1.000  O
  O5       1.0000 0.94840  0.41763  0.87677  Biso   1.000  O
  O6       1.0000 0.77750  0.54981  0.92432  Biso   1.000  O
  O7       1.0000 0.09460  0.24755  0.99720  Biso   1.000  O
  O8       1.0000 0.29270  0.38070  0.85030  Biso   1.000  O
  O9       1.0000 0.02360  0.58382  0.85501  Biso   1.000  O
  H1       1.0000 0.08630  0.56820  0.81450  Biso   1.000  H
  O10      1.0000 0.20080  0.16081  0.85532  Biso   1.000  O
  H2       1.0000 0.21090  0.10970  0.82860  Biso   1.000  H
  O11      1.0000 0.23260  0.51890  0.74630  Biso   1.000  O
  O12      1.0000 0.46230  0.53450  0.88220  Biso   1.000  O
  O13      1.0000 0.29340  0.54660  0.80070  Biso   1.000  O
  O14      1.0000 0.50920  0.45830  0.90690  Biso   1.000  O
  Zn3      1.0000 0.35965  0.87305  0.54559  Biso   1.000  Zn
  Zn4      1.0000 0.88058  0.98990  0.85648  Biso   1.000  Zn
  P4       1.0000 0.61437  0.01266  0.65335  Biso   1.000  P
  P5       1.0000 0.39423  0.65091  0.54661  Biso   1.000  P
  P6       1.0000 0.12581  0.96126  0.69341  Biso   1.000  P
  O15      1.0000 0.69150  0.01334  0.76648  Biso   1.000  O
  O16      1.0000 0.30940  0.58430  0.46816  Biso   1.000  O
  O17      1.0000 0.03740  0.93170  0.78330  Biso   1.000  O
  O18      1.0000 0.55620  0.61301  0.58508  Biso   1.000  O
  O19      1.0000 0.55160  0.91763  0.62323  Biso   1.000  O
  O20      1.0000 0.72250  0.04981  0.57568  Biso   1.000  O
  O21      1.0000 0.40540  0.74755  0.50280  Biso   1.000  O
  O22      1.0000 0.20730  0.88070  0.64970  Biso   1.000  O
  O23      1.0000 0.47640  0.08382  0.64499  Biso   1.000  O
  H3       1.0000 0.41370  0.06820  0.68550  Biso   1.000  H
  O24      1.0000 0.29920  0.66081  0.64468  Biso   1.000  O
  H4       1.0000 0.28910  0.60970  0.67140  Biso   1.000  H
  O25      1.0000 0.26740  0.01890  0.75370  Biso   1.000  O
  O26      1.0000 0.03770  0.03450  0.61780  Biso   1.000  O
  O27      1.0000 0.20660  0.04660  0.69930  Biso   1.000  O
  O28      1.0000 0.99080  0.95830  0.59310  Biso   1.000  O
  Zn5      1.0000 0.85965  0.62695  0.04559  Biso   1.000  Zn
  Zn6      1.0000 0.38058  0.51010  0.35648  Biso   1.000  Zn
  P7       1.0000 0.11437  0.48734  0.15335  Biso   1.000  P
  P8       1.0000 0.89423  0.84909  0.04661  Biso   1.000  P
  P9       1.0000 0.62581  0.53874  0.19341  Biso   1.000  P
  O29      1.0000 0.19150  0.48666  0.26648  Biso   1.000  O
  O30      1.0000 0.80940  0.91570  0.96816  Biso   1.000  O
  O31      1.0000 0.53740  0.56830  0.28330  Biso   1.000  O
  O32      1.0000 0.05620  0.88699  0.08508  Biso   1.000  O
  O33      1.0000 0.05160  0.58237  0.12323  Biso   1.000  O
  O34      1.0000 0.22250  0.45019  0.07568  Biso   1.000  O
  O35      1.0000 0.90540  0.75245  0.00280  Biso   1.000  O
  O36      1.0000 0.70730  0.61930  0.14970  Biso   1.000  O
  O37      1.0000 0.97640  0.41618  0.14499  Biso   1.000  O
  H5       1.0000 0.91370  0.43180  0.18550  Biso   1.000  H
  O38      1.0000 0.79920  0.83919  0.14468  Biso   1.000  O
  H6       1.0000 0.78910  0.89030  0.17140  Biso   1.000  H
  O39      1.0000 0.76740  0.48110  0.25370  Biso   1.000  O
  O40      1.0000 0.53770  0.46550  0.11780  Biso   1.000  O
  O41      1.0000 0.70660  0.45340  0.19930  Biso   1.000  O
  O42      1.0000 0.49080  0.54170  0.09310  Biso   1.000  O
  Zn7      1.0000 0.64035  0.12695  0.45441  Biso   1.000  Zn
  Zn8      1.0000 0.11942  0.01010  0.14352  Biso   1.000  Zn
  P10      1.0000 0.38563  0.98734  0.34665  Biso   1.000  P
  P11      1.0000 0.60577  0.34909  0.45339  Biso   1.000  P
  P12      1.0000 0.87419  0.03874  0.30659  Biso   1.000  P
  O43      1.0000 0.30850  0.98666  0.23352  Biso   1.000  O
  O44      1.0000 0.69060  0.41570  0.53184  Biso   1.000  O
  O45      1.0000 0.96260  0.06830  0.21670  Biso   1.000  O
  O46      1.0000 0.44380  0.38699  0.41492  Biso   1.000  O
  O47      1.0000 0.44840  0.08237  0.37677  Biso   1.000  O
  O48      1.0000 0.27750  0.95019  0.42432  Biso   1.000  O
  O49      1.0000 0.59460  0.25245  0.49720  Biso   1.000  O
  O50      1.0000 0.79270  0.11930  0.35030  Biso   1.000  O
  O51      1.0000 0.52360  0.91618  0.35501  Biso   1.000  O
  H7       1.0000 0.58630  0.93180  0.31450  Biso   1.000  H
  O52      1.0000 0.70080  0.33919  0.35532  Biso   1.000  O
  H8       1.0000 0.71090  0.39030  0.32860  Biso   1.000  H
  O53      1.0000 0.73260  0.98110  0.24630  Biso   1.000  O
  O54      1.0000 0.96230  0.96550  0.38220  Biso   1.000  O
  O55      1.0000 0.79340  0.95340  0.30070  Biso   1.000  O
  O56      1.0000 0.00920  0.04170  0.40690  Biso   1.000  O
