data_ic062019u-file003_clean
_audit_creation_date              2015-08-19
_audit_creation_method            'Materials Studio'
_symmetry_space_group_name_H-M    'P1'
_symmetry_Int_Tables_number       1
_symmetry_cell_setting            triclinic
loop_
_symmetry_equiv_pos_as_xyz
  x,y,z
_cell_length_a                    7.6493
_cell_length_b                    21.9250
_cell_length_c                    19.6691
_cell_angle_alpha                 90.0000
_cell_angle_beta                  90.0000
_cell_angle_gamma                 90.0000
loop_
_atom_site_label
_atom_site_type_symbol
_atom_site_fract_x
_atom_site_fract_y
_atom_site_fract_z
_atom_site_U_iso_or_equiv
_atom_site_adp_type
_atom_site_occupancy
Eu1    Eu    0.57508   0.28059   0.55354   0.01267  Uiso   1.00
Eu2    Eu    0.42492   0.71941   0.44646   0.01267  Uiso   1.00
Eu3    Eu    0.07508   0.21941   0.55354   0.01267  Uiso   1.00
Eu4    Eu    0.92492   0.78059   0.44646   0.01267  Uiso   1.00
Eu5    Eu    0.92492   0.21941   0.05355   0.01267  Uiso   1.00
Eu6    Eu    0.57508   0.71941   0.94646   0.01267  Uiso   1.00
Eu7    Eu    0.07508   0.78059   0.94646   0.01267  Uiso   1.00
Eu8    Eu    0.42492   0.28059   0.05355   0.01267  Uiso   1.00
H1     H     0.12200   0.67270   0.78970   0.01267  Uiso   1.00
H2     H     0.84380   0.25960   0.22600   0.01267  Uiso   1.00
H3     H     0.54230   0.81660   0.09330   0.01267  Uiso   1.00
H4     H     0.69940   0.23150   0.79600   0.01267  Uiso   1.00
H5     H     0.87800   0.32730   0.21030   0.01267  Uiso   1.00
H6     H     0.96200   0.26630   0.35970   0.01267  Uiso   1.00
H7     H     0.34380   0.24040   0.22600   0.01267  Uiso   1.00
H8     H     0.38800   0.17920   0.20600   0.01267  Uiso   1.00
H9     H     0.17000   0.11510   0.28620   0.01267  Uiso   1.00
H10    H     0.66590   0.31920   0.28310   0.01267  Uiso   1.00
H11    H     0.53800   0.76630   0.64030   0.01267  Uiso   1.00
H12    H     0.11200   0.32080   0.70600   0.01267  Uiso   1.00
H13    H     0.16210   0.81470   0.20240   0.01267  Uiso   1.00
H14    H     0.33410   0.68080   0.71690   0.01267  Uiso   1.00
H15    H     0.64730   0.96350   0.51460   0.01267  Uiso   1.00
H16    H     0.19940   0.73150   0.70400   0.01267  Uiso   1.00
H17    H     0.03800   0.26630   0.85970   0.01267  Uiso   1.00
H18    H     0.92380   0.54290   0.89820   0.01267  Uiso   1.00
H19    H     0.63480   0.11100   0.85850   0.01267  Uiso   1.00
H20    H     0.50970   0.85960   0.69430   0.01267  Uiso   1.00
H21    H     0.50970   0.14040   0.80570   0.01267  Uiso   1.00
H22    H     0.88510   0.43770   0.08250   0.01267  Uiso   1.00
H23    H     0.65620   0.75960   0.77400   0.01267  Uiso   1.00
H24    H     0.83410   0.18080   0.78310   0.01267  Uiso   1.00
H25    H     0.63480   0.88900   0.64150   0.01267  Uiso   1.00
H26    H     0.17000   0.88490   0.21380   0.01267  Uiso   1.00
H27    H     0.38800   0.82080   0.29400   0.01267  Uiso   1.00
H28    H     0.83410   0.81920   0.71690   0.01267  Uiso   1.00
H29    H     0.36520   0.11100   0.35850   0.01267  Uiso   1.00
H30    H     0.46200   0.23370   0.35970   0.01267  Uiso   1.00
H31    H     0.35270   0.03650   0.48540   0.01267  Uiso   1.00
H32    H     0.33790   0.68530   0.70240   0.01267  Uiso   1.00
H33    H     0.03800   0.73370   0.64030   0.01267  Uiso   1.00
H34    H     0.04230   0.31660   0.40670   0.01267  Uiso   1.00
H35    H     0.53800   0.23370   0.85970   0.01267  Uiso   1.00
H36    H     0.66210   0.68530   0.20240   0.01267  Uiso   1.00
H37    H     0.92380   0.45710   0.60180   0.01267  Uiso   1.00
H38    H     0.16590   0.81920   0.21690   0.01267  Uiso   1.00
H39    H     0.42380   0.95710   0.89820   0.01267  Uiso   1.00
H40    H     0.86520   0.61100   0.14150   0.01267  Uiso   1.00
H41    H     0.88800   0.32080   0.20600   0.01267  Uiso   1.00
H42    H     0.36520   0.88900   0.14150   0.01267  Uiso   1.00
H43    H     0.66210   0.31470   0.29760   0.01267  Uiso   1.00
H44    H     0.61200   0.17920   0.70600   0.01267  Uiso   1.00
H45    H     0.77380   0.62250   0.31170   0.01267  Uiso   1.00
H46    H     0.14730   0.53650   0.51460   0.01267  Uiso   1.00
H47    H     0.67000   0.61510   0.21380   0.01267  Uiso   1.00
H48    H     0.13480   0.38900   0.85850   0.01267  Uiso   1.00
H49    H     0.07620   0.45710   0.10180   0.01267  Uiso   1.00
H50    H     0.83000   0.88490   0.71380   0.01267  Uiso   1.00
H51    H     0.67000   0.38490   0.28620   0.01267  Uiso   1.00
H52    H     0.96200   0.73370   0.14030   0.01267  Uiso   1.00
H53    H     0.27380   0.87750   0.31170   0.01267  Uiso   1.00
H54    H     0.77380   0.37750   0.18830   0.01267  Uiso   1.00
H55    H     0.86520   0.38900   0.35850   0.01267  Uiso   1.00
H56    H     0.11200   0.67920   0.79400   0.01267  Uiso   1.00
H57    H     0.45540   0.94520   0.53340   0.01267  Uiso   1.00
H58    H     0.16590   0.18080   0.28310   0.01267  Uiso   1.00
H59    H     0.16210   0.18530   0.29760   0.01267  Uiso   1.00
H60    H     0.83790   0.81470   0.70240   0.01267  Uiso   1.00
H61    H     0.65620   0.24040   0.72600   0.01267  Uiso   1.00
H62    H     0.00970   0.64040   0.69430   0.01267  Uiso   1.00
H63    H     0.30060   0.23150   0.29600   0.01267  Uiso   1.00
H64    H     0.33000   0.61510   0.71380   0.01267  Uiso   1.00
H65    H     0.95540   0.44520   0.96660   0.01267  Uiso   1.00
H66    H     0.88800   0.67920   0.29400   0.01267  Uiso   1.00
H67    H     0.72620   0.12250   0.68830   0.01267  Uiso   1.00
H68    H     0.27380   0.12250   0.18830   0.01267  Uiso   1.00
H69    H     0.22620   0.37750   0.68830   0.01267  Uiso   1.00
H70    H     0.57620   0.04290   0.10180   0.01267  Uiso   1.00
H71    H     0.88510   0.56230   0.41750   0.01267  Uiso   1.00
H72    H     0.49030   0.85960   0.19430   0.01267  Uiso   1.00
H73    H     0.54230   0.18340   0.40670   0.01267  Uiso   1.00
H74    H     0.33410   0.31920   0.78310   0.01267  Uiso   1.00
H75    H     0.04230   0.68340   0.09330   0.01267  Uiso   1.00
H76    H     0.66590   0.68080   0.21690   0.01267  Uiso   1.00
H77    H     0.15620   0.25960   0.72600   0.01267  Uiso   1.00
H78    H     0.15620   0.74040   0.77400   0.01267  Uiso   1.00
H79    H     0.19940   0.26850   0.79600   0.01267  Uiso   1.00
H80    H     0.45770   0.18340   0.90670   0.01267  Uiso   1.00
H81    H     0.64730   0.03650   0.98540   0.01267  Uiso   1.00
H82    H     0.95770   0.68340   0.59330   0.01267  Uiso   1.00
H83    H     0.11490   0.56230   0.91750   0.01267  Uiso   1.00
H84    H     0.34380   0.75960   0.27400   0.01267  Uiso   1.00
H85    H     0.61490   0.93770   0.91750   0.01267  Uiso   1.00
H86    H     0.37800   0.82730   0.28970   0.01267  Uiso   1.00
H87    H     0.12200   0.32730   0.71030   0.01267  Uiso   1.00
H88    H     0.83000   0.11510   0.78620   0.01267  Uiso   1.00
H89    H     0.00970   0.35960   0.80570   0.01267  Uiso   1.00
H90    H     0.85270   0.46350   0.48540   0.01267  Uiso   1.00
H91    H     0.37800   0.17270   0.21030   0.01267  Uiso   1.00
H92    H     0.80060   0.26850   0.29600   0.01267  Uiso   1.00
H93    H     0.80060   0.73150   0.20400   0.01267  Uiso   1.00
H94    H     0.04460   0.55480   0.03340   0.01267  Uiso   1.00
H95    H     0.72620   0.87750   0.81170   0.01267  Uiso   1.00
H96    H     0.46200   0.76630   0.14030   0.01267  Uiso   1.00
H97    H     0.54460   0.94520   0.03340   0.01267  Uiso   1.00
H98    H     0.35270   0.96350   0.01460   0.01267  Uiso   1.00
H99    H     0.38510   0.06230   0.08250   0.01267  Uiso   1.00
H100   H     0.69940   0.76850   0.70400   0.01267  Uiso   1.00
H101   H     0.95770   0.31660   0.90670   0.01267  Uiso   1.00
H102   H     0.30060   0.76850   0.20400   0.01267  Uiso   1.00
H103   H     0.95540   0.55480   0.53340   0.01267  Uiso   1.00
H104   H     0.61200   0.82080   0.79400   0.01267  Uiso   1.00
H105   H     0.87800   0.67270   0.28970   0.01267  Uiso   1.00
H106   H     0.85270   0.53650   0.01460   0.01267  Uiso   1.00
H107   H     0.38510   0.93770   0.41750   0.01267  Uiso   1.00
H108   H     0.62200   0.17270   0.71030   0.01267  Uiso   1.00
H109   H     0.99030   0.64040   0.19430   0.01267  Uiso   1.00
H110   H     0.62200   0.82730   0.78970   0.01267  Uiso   1.00
H111   H     0.61490   0.06230   0.58250   0.01267  Uiso   1.00
H112   H     0.84380   0.74040   0.27400   0.01267  Uiso   1.00
H113   H     0.54460   0.05480   0.46660   0.01267  Uiso   1.00
H114   H     0.45770   0.81660   0.59330   0.01267  Uiso   1.00
H115   H     0.13480   0.61100   0.64150   0.01267  Uiso   1.00
H116   H     0.83790   0.18530   0.79760   0.01267  Uiso   1.00
H117   H     0.22620   0.62250   0.81170   0.01267  Uiso   1.00
H118   H     0.49030   0.14040   0.30570   0.01267  Uiso   1.00
H119   H     0.42380   0.04290   0.60180   0.01267  Uiso   1.00
H120   H     0.11490   0.43770   0.58250   0.01267  Uiso   1.00
H121   H     0.14730   0.46350   0.98540   0.01267  Uiso   1.00
H122   H     0.99030   0.35960   0.30570   0.01267  Uiso   1.00
H123   H     0.57620   0.95710   0.39820   0.01267  Uiso   1.00
H124   H     0.33000   0.38490   0.78620   0.01267  Uiso   1.00
H125   H     0.07620   0.54290   0.39820   0.01267  Uiso   1.00
H126   H     0.33790   0.31470   0.79760   0.01267  Uiso   1.00
H127   H     0.04460   0.44520   0.46660   0.01267  Uiso   1.00
H128   H     0.45540   0.05480   0.96660   0.01267  Uiso   1.00
C1     C     0.43610   0.80380   0.11610   0.01267  Uiso   1.00
C2     C     0.02640   0.53340   0.50020   0.01267  Uiso   1.00
C3     C     0.21000   0.70040   0.77230   0.01267  Uiso   1.00
C4     C     0.71000   0.20040   0.72770   0.01267  Uiso   1.00
C5     C     0.11390   0.64790   0.66740   0.01267  Uiso   1.00
C6     C     0.78800   0.30880   0.27600   0.01267  Uiso   1.00
C7     C     0.43610   0.19620   0.38390   0.01267  Uiso   1.00
C8     C     0.23700   0.15240   0.28240   0.01267  Uiso   1.00
C9     C     0.77100   0.33800   0.20990   0.01267  Uiso   1.00
C10    C     0.06390   0.30380   0.88390   0.01267  Uiso   1.00
C11    C     0.64890   0.29690   0.16700   0.01267  Uiso   1.00
C12    C     0.52640   0.03340   0.99980   0.01267  Uiso   1.00
C13    C     0.73700   0.65240   0.21760   0.01267  Uiso   1.00
C14    C     0.11390   0.35210   0.83260   0.01267  Uiso   1.00
C15    C     0.50640   0.06440   0.06830   0.01267  Uiso   1.00
C16    C     0.97360   0.46660   0.49980   0.01267  Uiso   1.00
C17    C     0.88610   0.64790   0.16740   0.01267  Uiso   1.00
C18    C     0.21200   0.30880   0.77600   0.01267  Uiso   1.00
C19    C     0.21200   0.69120   0.72400   0.01267  Uiso   1.00
C20    C     0.02640   0.46660   0.99980   0.01267  Uiso   1.00
C21    C     0.00640   0.43560   0.06830   0.01267  Uiso   1.00
C22    C     0.93610   0.30380   0.38390   0.01267  Uiso   1.00
C23    C     0.56390   0.19620   0.88390   0.01267  Uiso   1.00
C24    C     0.29000   0.20040   0.22770   0.01267  Uiso   1.00
C25    C     0.72900   0.16200   0.70990   0.01267  Uiso   1.00
C26    C     0.71200   0.19120   0.77600   0.01267  Uiso   1.00
C27    C     0.00640   0.56440   0.43170   0.01267  Uiso   1.00
C28    C     0.21000   0.29960   0.72770   0.01267  Uiso   1.00
C29    C     0.79800   0.29020   0.43770   0.01267  Uiso   1.00
C30    C     0.29000   0.79960   0.27230   0.01267  Uiso   1.00
C31    C     0.22900   0.66200   0.79010   0.01267  Uiso   1.00
C32    C     0.47360   0.03340   0.49980   0.01267  Uiso   1.00
C33    C     0.71000   0.79960   0.77230   0.01267  Uiso   1.00
C34    C     0.73700   0.34760   0.28240   0.01267  Uiso   1.00
C35    C     0.20200   0.70980   0.56230   0.01267  Uiso   1.00
C36    C     0.38610   0.14790   0.33260   0.01267  Uiso   1.00
C37    C     0.29800   0.79020   0.06230   0.01267  Uiso   1.00
C38    C     0.38610   0.85210   0.16740   0.01267  Uiso   1.00
C39    C     0.71200   0.80880   0.72400   0.01267  Uiso   1.00
C40    C     0.20200   0.29020   0.93770   0.01267  Uiso   1.00
C41    C     0.06260   0.37040   0.06550   0.01267  Uiso   1.00
C42    C     0.85110   0.79690   0.83300   0.01267  Uiso   1.00
C43    C     0.56260   0.87040   0.43450   0.01267  Uiso   1.00
C44    C     0.97360   0.53340   0.00020   0.01267  Uiso   1.00
C45    C     0.06390   0.69620   0.61610   0.01267  Uiso   1.00
C46    C     0.14890   0.79690   0.33300   0.01267  Uiso   1.00
C47    C     0.61390   0.14790   0.83260   0.01267  Uiso   1.00
C48    C     0.26300   0.65240   0.71760   0.01267  Uiso   1.00
C49    C     0.27100   0.83800   0.29010   0.01267  Uiso   1.00
C50    C     0.64890   0.70310   0.33300   0.01267  Uiso   1.00
C51    C     0.76300   0.15240   0.78240   0.01267  Uiso   1.00
C52    C     0.49360   0.06440   0.56830   0.01267  Uiso   1.00
C53    C     0.14890   0.20310   0.16700   0.01267  Uiso   1.00
C54    C     0.56390   0.80380   0.61610   0.01267  Uiso   1.00
C55    C     0.26300   0.34760   0.78240   0.01267  Uiso   1.00
C56    C     0.99360   0.43560   0.56830   0.01267  Uiso   1.00
C57    C     0.72900   0.83800   0.79010   0.01267  Uiso   1.00
C58    C     0.28800   0.19120   0.27600   0.01267  Uiso   1.00
C59    C     0.43740   0.12960   0.56550   0.01267  Uiso   1.00
C60    C     0.29800   0.20980   0.43770   0.01267  Uiso   1.00
C61    C     0.06260   0.62960   0.43450   0.01267  Uiso   1.00
C62    C     0.50640   0.93560   0.43170   0.01267  Uiso   1.00
C63    C     0.56260   0.12960   0.06550   0.01267  Uiso   1.00
C64    C     0.78800   0.69120   0.22400   0.01267  Uiso   1.00
C65    C     0.79000   0.70040   0.27230   0.01267  Uiso   1.00
C66    C     0.93740   0.37040   0.56550   0.01267  Uiso   1.00
C67    C     0.70200   0.79020   0.56230   0.01267  Uiso   1.00
C68    C     0.76300   0.84760   0.71760   0.01267  Uiso   1.00
C69    C     0.52640   0.96660   0.50020   0.01267  Uiso   1.00
C70    C     0.49360   0.93560   0.93170   0.01267  Uiso   1.00
C71    C     0.35110   0.29690   0.66700   0.01267  Uiso   1.00
C72    C     0.85110   0.20310   0.66700   0.01267  Uiso   1.00
C73    C     0.43740   0.87040   0.93450   0.01267  Uiso   1.00
C74    C     0.77100   0.66200   0.29010   0.01267  Uiso   1.00
C75    C     0.70200   0.20980   0.93770   0.01267  Uiso   1.00
C76    C     0.88610   0.35210   0.33260   0.01267  Uiso   1.00
C77    C     0.79000   0.29960   0.22770   0.01267  Uiso   1.00
C78    C     0.93740   0.62960   0.93450   0.01267  Uiso   1.00
C79    C     0.47360   0.96660   0.00020   0.01267  Uiso   1.00
C80    C     0.99360   0.56440   0.93170   0.01267  Uiso   1.00
C81    C     0.61390   0.85210   0.66740   0.01267  Uiso   1.00
C82    C     0.93610   0.69620   0.11610   0.01267  Uiso   1.00
C83    C     0.79800   0.70980   0.06230   0.01267  Uiso   1.00
C84    C     0.22900   0.33800   0.70990   0.01267  Uiso   1.00
C85    C     0.35110   0.70310   0.83300   0.01267  Uiso   1.00
C86    C     0.27100   0.16200   0.20990   0.01267  Uiso   1.00
C87    C     0.23700   0.84760   0.21760   0.01267  Uiso   1.00
C88    C     0.28800   0.80880   0.22400   0.01267  Uiso   1.00
O1     O     0.22420   0.35940   0.07190   0.01267  Uiso   1.00
O2     O     0.16010   0.18080   0.43900   0.01267  Uiso   1.00
O3     O     0.99890   0.81730   0.32820   0.01267  Uiso   1.00
O4     O     0.33990   0.31920   0.93900   0.01267  Uiso   1.00
O5     O     0.05290   0.33040   0.55480   0.01267  Uiso   1.00
O6     O     0.49890   0.68270   0.32820   0.01267  Uiso   1.00
O7     O     0.33080   0.25160   0.48120   0.01267  Uiso   1.00
O8     O     0.16920   0.24840   0.98120   0.01267  Uiso   1.00
O9     O     0.99890   0.18270   0.17180   0.01267  Uiso   1.00
O10    O     0.69480   0.73920   0.37940   0.01267  Uiso   1.00
O11    O     0.30520   0.73920   0.87940   0.01267  Uiso   1.00
O12    O     0.83990   0.81920   0.56100   0.01267  Uiso   1.00
O13    O     0.33990   0.68080   0.56100   0.01267  Uiso   1.00
O14    O     0.05290   0.66960   0.94520   0.01267  Uiso   1.00
O15    O     0.50110   0.31730   0.67180   0.01267  Uiso   1.00
O16    O     0.80520   0.23920   0.62060   0.01267  Uiso   1.00
O17    O     0.33080   0.74840   0.01880   0.01267  Uiso   1.00
O18    O     0.80520   0.76080   0.87940   0.01267  Uiso   1.00
O19    O     0.49890   0.31730   0.17180   0.01267  Uiso   1.00
O20    O     0.16010   0.81920   0.06100   0.01267  Uiso   1.00
O21    O     0.83080   0.24840   0.48120   0.01267  Uiso   1.00
O22    O     0.27580   0.14060   0.57190   0.01267  Uiso   1.00
O23    O     0.44710   0.16960   0.05480   0.01267  Uiso   1.00
O24    O     0.69480   0.26080   0.12060   0.01267  Uiso   1.00
O25    O     0.22420   0.64060   0.42810   0.01267  Uiso   1.00
O26    O     0.44710   0.83040   0.44520   0.01267  Uiso   1.00
O27    O     0.83990   0.18080   0.93900   0.01267  Uiso   1.00
O28    O     0.83080   0.75160   0.01880   0.01267  Uiso   1.00
O29    O     0.72420   0.14060   0.07190   0.01267  Uiso   1.00
O30    O     0.66010   0.31920   0.43900   0.01267  Uiso   1.00
O31    O     0.66010   0.68080   0.06100   0.01267  Uiso   1.00
O32    O     0.00110   0.81730   0.82820   0.01267  Uiso   1.00
O33    O     0.30520   0.26080   0.62060   0.01267  Uiso   1.00
O34    O     0.19480   0.76080   0.37940   0.01267  Uiso   1.00
O35    O     0.94710   0.33040   0.05480   0.01267  Uiso   1.00
O36    O     0.72420   0.85940   0.42810   0.01267  Uiso   1.00
O37    O     0.66920   0.25160   0.98120   0.01267  Uiso   1.00
O38    O     0.27580   0.85940   0.92810   0.01267  Uiso   1.00
O39    O     0.77580   0.35940   0.57190   0.01267  Uiso   1.00
O40    O     0.00110   0.18270   0.67180   0.01267  Uiso   1.00
O41    O     0.77580   0.64060   0.92810   0.01267  Uiso   1.00
O42    O     0.55290   0.83040   0.94520   0.01267  Uiso   1.00
O43    O     0.50110   0.68270   0.82820   0.01267  Uiso   1.00
O44    O     0.94710   0.66960   0.44520   0.01267  Uiso   1.00
O45    O     0.55290   0.16960   0.55480   0.01267  Uiso   1.00
O46    O     0.19480   0.23920   0.12060   0.01267  Uiso   1.00
O47    O     0.66920   0.74840   0.51880   0.01267  Uiso   1.00
O48    O     0.16920   0.75160   0.51880   0.01267  Uiso   1.00
