data_ic402614w_si_002_clean
_audit_creation_date              2015-08-19
_audit_creation_method            'Materials Studio'
_symmetry_space_group_name_H-M    'P1'
_symmetry_Int_Tables_number       1
_symmetry_cell_setting            triclinic
loop_
_symmetry_equiv_pos_as_xyz
  x,y,z
_cell_length_a                    18.7705
_cell_length_b                    18.7705
_cell_length_c                    18.7705
_cell_angle_alpha                 101.8840
_cell_angle_beta                  101.8840
_cell_angle_gamma                 101.8840
loop_
_atom_site_label
_atom_site_type_symbol
_atom_site_fract_x
_atom_site_fract_y
_atom_site_fract_z
_atom_site_U_iso_or_equiv
_atom_site_adp_type
_atom_site_occupancy
Zn1    Zn    0.90022   0.33305   0.70270   0.01267  Uiso   1.00
Zn2    Zn    0.29730   0.66695   0.09978   0.01267  Uiso   1.00
Zn3    Zn    0.80573   0.16921   0.60173   0.01267  Uiso   1.00
Zn4    Zn    0.19427   0.39827   0.83079   0.01267  Uiso   1.00
Zn5    Zn    0.83079   0.19427   0.39827   0.01267  Uiso   1.00
Zn6    Zn    0.60173   0.80573   0.16921   0.01267  Uiso   1.00
Zn7    Zn    0.70270   0.90022   0.33305   0.01267  Uiso   1.00
Zn8    Zn    0.39827   0.83079   0.19427   0.01267  Uiso   1.00
Zn9    Zn    0.09978   0.29730   0.66695   0.01267  Uiso   1.00
Zn10   Zn    0.16921   0.60174   0.80573   0.01267  Uiso   1.00
Zn11   Zn    0.66695   0.09978   0.29730   0.01267  Uiso   1.00
Zn12   Zn    0.33305   0.70270   0.90022   0.01267  Uiso   1.00
H1     H     0.65350   0.91260   0.98280   0.01267  Uiso   1.00
H2     H     0.40890   0.15990   0.86580   0.01267  Uiso   1.00
H3     H     0.63690   0.33700   0.09200   0.01267  Uiso   1.00
H4     H     0.56240   0.93900   0.74510   0.01267  Uiso   1.00
H5     H     0.99110   0.43340   0.88500   0.01267  Uiso   1.00
H6     H     0.04440   0.37250   0.12840   0.01267  Uiso   1.00
H7     H     0.09150   0.57730   0.11140   0.01267  Uiso   1.00
H8     H     0.00890   0.11500   0.56660   0.01267  Uiso   1.00
H9     H     0.24590   0.59690   0.91640   0.01267  Uiso   1.00
H10    H     0.46970   0.85560   0.98450   0.01267  Uiso   1.00
H11    H     0.82640   0.74160   0.36160   0.01267  Uiso   1.00
H12    H     0.47050   0.68410   0.46690   0.01267  Uiso   1.00
H13    H     0.00600   0.36350   0.12000   0.01267  Uiso   1.00
H14    H     0.75850   0.67010   0.13350   0.01267  Uiso   1.00
H15    H     0.15600   0.42520   0.49240   0.01267  Uiso   1.00
H16    H     0.13350   0.75850   0.67010   0.01267  Uiso   1.00
H17    H     0.68410   0.46690   0.47050   0.01267  Uiso   1.00
H18    H     0.98280   0.65350   0.91260   0.01267  Uiso   1.00
H19    H     0.35630   0.48100   0.93450   0.01267  Uiso   1.00
H20    H     0.53310   0.31590   0.52950   0.01267  Uiso   1.00
H21    H     0.74160   0.36160   0.82640   0.01267  Uiso   1.00
H22    H     0.41830   0.38700   0.90560   0.01267  Uiso   1.00
H23    H     0.32990   0.24150   0.86650   0.01267  Uiso   1.00
H24    H     0.43760   0.25490   0.06100   0.01267  Uiso   1.00
H25    H     0.09440   0.61300   0.58170   0.01267  Uiso   1.00
H26    H     0.25490   0.06100   0.43760   0.01267  Uiso   1.00
H27    H     0.40310   0.75410   0.08360   0.01267  Uiso   1.00
H28    H     0.52950   0.53310   0.31590   0.01267  Uiso   1.00
H29    H     0.88000   0.63650   0.99400   0.01267  Uiso   1.00
H30    H     0.59690   0.91640   0.24590   0.01267  Uiso   1.00
H31    H     0.95560   0.87160   0.62750   0.01267  Uiso   1.00
H32    H     0.34650   0.01720   0.08740   0.01267  Uiso   1.00
H33    H     0.58170   0.09440   0.61300   0.01267  Uiso   1.00
H34    H     0.58070   0.50000   0.41930   0.01267  Uiso   1.00
H35    H     0.08740   0.34650   0.01720   0.01267  Uiso   1.00
H36    H     0.12000   0.00600   0.36350   0.01267  Uiso   1.00
H37    H     0.61300   0.58170   0.09440   0.01267  Uiso   1.00
H38    H     0.08360   0.40310   0.75410   0.01267  Uiso   1.00
H39    H     0.90850   0.88860   0.42270   0.01267  Uiso   1.00
H40    H     0.99400   0.88000   0.63650   0.01267  Uiso   1.00
H41    H     0.88500   0.99110   0.43340   0.01267  Uiso   1.00
H42    H     0.84860   0.42560   0.04070   0.01267  Uiso   1.00
H43    H     0.59110   0.13420   0.84010   0.01267  Uiso   1.00
H44    H     0.45480   0.07640   0.64900   0.01267  Uiso   1.00
H45    H     0.62750   0.95560   0.87160   0.01267  Uiso   1.00
H46    H     0.86650   0.32990   0.24150   0.01267  Uiso   1.00
H47    H     0.56660   0.00890   0.11500   0.01267  Uiso   1.00
H48    H     0.37250   0.12840   0.04440   0.01267  Uiso   1.00
H49    H     0.85560   0.98450   0.46970   0.01267  Uiso   1.00
H50    H     0.47950   0.39210   0.12730   0.01267  Uiso   1.00
H51    H     0.38700   0.90560   0.41830   0.01267  Uiso   1.00
H52    H     0.63650   0.99400   0.88000   0.01267  Uiso   1.00
H53    H     0.63840   0.25840   0.17360   0.01267  Uiso   1.00
H54    H     0.24150   0.86650   0.32990   0.01267  Uiso   1.00
H55    H     0.51900   0.64370   0.06550   0.01267  Uiso   1.00
H56    H     0.15990   0.86580   0.40890   0.01267  Uiso   1.00
H57    H     0.41930   0.58070   0.50000   0.01267  Uiso   1.00
H58    H     0.57440   0.15140   0.95930   0.01267  Uiso   1.00
H59    H     0.09200   0.63690   0.33700   0.01267  Uiso   1.00
H60    H     0.84010   0.59110   0.13420   0.01267  Uiso   1.00
H61    H     0.31590   0.52950   0.53310   0.01267  Uiso   1.00
H62    H     0.50760   0.57480   0.84400   0.01267  Uiso   1.00
H63    H     0.60790   0.52050   0.87270   0.01267  Uiso   1.00
H64    H     0.02140   0.05360   0.31610   0.01267  Uiso   1.00
H65    H     0.76240   0.38690   0.47040   0.01267  Uiso   1.00
H66    H     0.52050   0.87270   0.60790   0.01267  Uiso   1.00
H67    H     0.15140   0.95930   0.57440   0.01267  Uiso   1.00
H68    H     0.64370   0.06550   0.51900   0.01267  Uiso   1.00
H69    H     0.68390   0.94640   0.97860   0.01267  Uiso   1.00
H70    H     0.39210   0.12730   0.47950   0.01267  Uiso   1.00
H71    H     0.14440   0.53030   0.01550   0.01267  Uiso   1.00
H72    H     0.84400   0.50760   0.57480   0.01267  Uiso   1.00
H73    H     0.92360   0.54520   0.35100   0.01267  Uiso   1.00
H74    H     0.48100   0.93450   0.35630   0.01267  Uiso   1.00
H75    H     0.23760   0.52960   0.61310   0.01267  Uiso   1.00
H76    H     0.54520   0.35100   0.92360   0.01267  Uiso   1.00
H77    H     0.67010   0.13350   0.75850   0.01267  Uiso   1.00
H78    H     0.07640   0.64900   0.45480   0.01267  Uiso   1.00
H79    H     0.91640   0.24590   0.59690   0.01267  Uiso   1.00
H80    H     0.06100   0.43760   0.25490   0.01267  Uiso   1.00
H81    H     0.33700   0.09200   0.63690   0.01267  Uiso   1.00
H82    H     0.42270   0.90850   0.88860   0.01267  Uiso   1.00
H83    H     0.04070   0.84860   0.42560   0.01267  Uiso   1.00
H84    H     0.74510   0.56240   0.93900   0.01267  Uiso   1.00
H85    H     0.05360   0.31610   0.02140   0.01267  Uiso   1.00
H86    H     0.61310   0.23760   0.52960   0.01267  Uiso   1.00
H87    H     0.41860   0.93960   0.88950   0.01267  Uiso   1.00
H88    H     0.12730   0.47950   0.39210   0.01267  Uiso   1.00
H89    H     0.25840   0.17360   0.63840   0.01267  Uiso   1.00
H90    H     0.90560   0.41830   0.38700   0.01267  Uiso   1.00
H91    H     0.11500   0.56660   0.00890   0.01267  Uiso   1.00
H92    H     0.95930   0.57440   0.15140   0.01267  Uiso   1.00
H93    H     0.57480   0.84400   0.50760   0.01267  Uiso   1.00
H94    H     0.42560   0.04070   0.84860   0.01267  Uiso   1.00
H95    H     0.36350   0.12000   0.00600   0.01267  Uiso   1.00
H96    H     0.87160   0.62750   0.95560   0.01267  Uiso   1.00
H97    H     0.75410   0.08360   0.40310   0.01267  Uiso   1.00
H98    H     0.46690   0.47050   0.68410   0.01267  Uiso   1.00
H99    H     0.58140   0.11050   0.06040   0.01267  Uiso   1.00
H100   H     0.52960   0.61310   0.23760   0.01267  Uiso   1.00
H101   H     0.66300   0.36310   0.90800   0.01267  Uiso   1.00
H102   H     0.01550   0.14440   0.53030   0.01267  Uiso   1.00
H103   H     0.47040   0.76240   0.38690   0.01267  Uiso   1.00
H104   H     0.06550   0.51900   0.64370   0.01267  Uiso   1.00
H105   H     0.01720   0.08740   0.34650   0.01267  Uiso   1.00
H106   H     0.87270   0.60790   0.52050   0.01267  Uiso   1.00
H107   H     0.12840   0.04440   0.37250   0.01267  Uiso   1.00
H108   H     0.42520   0.49240   0.15600   0.01267  Uiso   1.00
H109   H     0.64900   0.45480   0.07640   0.01267  Uiso   1.00
H110   H     0.36160   0.82640   0.74160   0.01267  Uiso   1.00
H111   H     0.49240   0.15600   0.42520   0.01267  Uiso   1.00
H112   H     0.11050   0.06040   0.58140   0.01267  Uiso   1.00
H113   H     0.88860   0.42270   0.90850   0.01267  Uiso   1.00
H114   H     0.93900   0.74510   0.56240   0.01267  Uiso   1.00
H115   H     0.31610   0.02140   0.05360   0.01267  Uiso   1.00
H116   H     0.36310   0.90800   0.66300   0.01267  Uiso   1.00
H117   H     0.43340   0.88500   0.99110   0.01267  Uiso   1.00
H118   H     0.35100   0.92360   0.54520   0.01267  Uiso   1.00
H119   H     0.17360   0.63840   0.25840   0.01267  Uiso   1.00
H120   H     0.93960   0.88950   0.41860   0.01267  Uiso   1.00
H121   H     0.91260   0.98280   0.65350   0.01267  Uiso   1.00
H122   H     0.90800   0.66300   0.36310   0.01267  Uiso   1.00
H123   H     0.93450   0.35630   0.48100   0.01267  Uiso   1.00
H124   H     0.86580   0.40890   0.15990   0.01267  Uiso   1.00
H125   H     0.50000   0.41930   0.58070   0.01267  Uiso   1.00
H126   H     0.38690   0.47040   0.76240   0.01267  Uiso   1.00
H127   H     0.53030   0.01550   0.14440   0.01267  Uiso   1.00
H128   H     0.13420   0.84010   0.59110   0.01267  Uiso   1.00
H129   H     0.97860   0.68390   0.94640   0.01267  Uiso   1.00
H130   H     0.06040   0.58140   0.11050   0.01267  Uiso   1.00
H131   H     0.94640   0.97860   0.68390   0.01267  Uiso   1.00
H132   H     0.57730   0.11140   0.09150   0.01267  Uiso   1.00
H133   H     0.11140   0.09150   0.57730   0.01267  Uiso   1.00
H134   H     0.98450   0.46970   0.85560   0.01267  Uiso   1.00
H135   H     0.88950   0.41860   0.93960   0.01267  Uiso   1.00
C1     C     0.11806   0.75050   0.38202   0.01267  Uiso   1.00
C2     C     0.63100   0.93800   0.96010   0.01267  Uiso   1.00
C3     C     0.30404   0.50000   0.69596   0.01267  Uiso   1.00
C4     C     0.96010   0.63100   0.93800   0.01267  Uiso   1.00
C5     C     0.28912   0.17103   0.68438   0.01267  Uiso   1.00
C6     C     0.54810   0.50000   0.45190   0.01267  Uiso   1.00
C7     C     0.44350   0.94090   0.14530   0.01267  Uiso   1.00
C8     C     0.38598   0.49533   0.04865   0.01267  Uiso   1.00
C9     C     0.31115   0.94703   0.53471   0.01267  Uiso   1.00
C10    C     0.68661   0.51349   0.00506   0.01267  Uiso   1.00
C11    C     0.05580   0.41090   0.10320   0.01267  Uiso   1.00
C12    C     0.78872   0.66837   0.18016   0.01267  Uiso   1.00
C13    C     0.19176   0.96756   0.55122   0.01267  Uiso   1.00
C14    C     0.42248   0.46976   0.10495   0.01267  Uiso   1.00
C15    C     0.66382   0.31636   0.87748   0.01267  Uiso   1.00
C16    C     0.45564   0.41066   0.08799   0.01267  Uiso   1.00
C17    C     0.52995   0.97176   0.74644   0.01267  Uiso   1.00
C18    C     0.05297   0.68885   0.46529   0.01267  Uiso   1.00
C19    C     0.62738   0.28436   0.51746   0.01267  Uiso   1.00
C20    C     0.68364   0.33618   0.12252   0.01267  Uiso   1.00
C21    C     0.05910   0.55650   0.85470   0.01267  Uiso   1.00
C22    C     0.42021   0.48246   0.66933   0.01267  Uiso   1.00
C23    C     0.28436   0.51746   0.62738   0.01267  Uiso   1.00
C24    C     0.68438   0.28912   0.17103   0.01267  Uiso   1.00
C25    C     0.58934   0.54436   0.91201   0.01267  Uiso   1.00
C26    C     0.46976   0.10495   0.42248   0.01267  Uiso   1.00
C27    C     0.41090   0.10320   0.05580   0.01267  Uiso   1.00
C28    C     0.45375   0.37846   0.01294   0.01267  Uiso   1.00
C29    C     0.55650   0.85470   0.05910   0.01267  Uiso   1.00
C30    C     0.50000   0.54820   0.45180   0.01267  Uiso   1.00
C31    C     0.39750   0.09830   0.03390   0.01267  Uiso   1.00
C32    C     0.64850   0.93810   0.44120   0.01267  Uiso   1.00
C33    C     0.35150   0.55880   0.06190   0.01267  Uiso   1.00
C34    C     0.46660   0.93210   0.90870   0.01267  Uiso   1.00
C35    C     0.89980   0.96900   0.47340   0.01267  Uiso   1.00
C36    C     0.60250   0.96610   0.90170   0.01267  Uiso   1.00
C37    C     0.33163   0.21128   0.81984   0.01267  Uiso   1.00
C38    C     0.55880   0.06190   0.35150   0.01267  Uiso   1.00
C39    C     0.75338   0.23662   0.26835   0.01267  Uiso   1.00
C40    C     0.74644   0.52995   0.97176   0.01267  Uiso   1.00
C41    C     0.14530   0.44350   0.94090   0.01267  Uiso   1.00
C42    C     0.00640   0.10820   0.45410   0.01267  Uiso   1.00
C43    C     0.03390   0.39750   0.09830   0.01267  Uiso   1.00
C44    C     0.52660   0.03100   0.10020   0.01267  Uiso   1.00
C45    C     0.09450   0.08470   0.52450   0.01267  Uiso   1.00
C46    C     0.57752   0.89505   0.53024   0.01267  Uiso   1.00
C47    C     0.03100   0.10020   0.52660   0.01267  Uiso   1.00
C48    C     0.93340   0.56735   0.25131   0.01267  Uiso   1.00
C49    C     0.75050   0.38202   0.11806   0.01267  Uiso   1.00
C50    C     0.31636   0.87748   0.66382   0.01267  Uiso   1.00
C51    C     0.91530   0.90550   0.47550   0.01267  Uiso   1.00
C52    C     0.74728   0.25272   0.50000   0.01267  Uiso   1.00
C53    C     0.91550   0.96160   0.60400   0.01267  Uiso   1.00
C54    C     0.10340   0.41840   0.00790   0.01267  Uiso   1.00
C55    C     0.06190   0.35150   0.55880   0.01267  Uiso   1.00
C56    C     0.47728   0.12759   0.04519   0.01267  Uiso   1.00
C57    C     0.39600   0.03840   0.08450   0.01267  Uiso   1.00
C58    C     0.46372   0.97356   0.38270   0.01267  Uiso   1.00
C59    C     0.94420   0.13370   0.39000   0.01267  Uiso   1.00
C60    C     0.36900   0.03990   0.06200   0.01267  Uiso   1.00
C61    C     0.78394   0.71266   0.24652   0.01267  Uiso   1.00
C62    C     0.03620   0.11520   0.49620   0.01267  Uiso   1.00
C63    C     0.59990   0.40010   0.50000   0.01267  Uiso   1.00
C64    C     0.74869   0.43265   0.06660   0.01267  Uiso   1.00
C65    C     0.90170   0.60250   0.96610   0.01267  Uiso   1.00
C66    C     0.53628   0.61730   0.02644   0.01267  Uiso   1.00
C67    C     0.41822   0.40676   0.95642   0.01267  Uiso   1.00
C68    C     0.41066   0.08799   0.45564   0.01267  Uiso   1.00
C69    C     0.21128   0.81984   0.33163   0.01267  Uiso   1.00
C70    C     0.02824   0.47005   0.25356   0.01267  Uiso   1.00
C71    C     0.25131   0.93340   0.56735   0.01267  Uiso   1.00
C72    C     0.68885   0.46529   0.05297   0.01267  Uiso   1.00
C73    C     0.93800   0.96010   0.63100   0.01267  Uiso   1.00
C74    C     0.65250   0.92820   0.44380   0.01267  Uiso   1.00
C75    C     0.50000   0.69596   0.30404   0.01267  Uiso   1.00
C76    C     0.45190   0.54810   0.50000   0.01267  Uiso   1.00
C77    C     0.51754   0.57979   0.33067   0.01267  Uiso   1.00
C78    C     0.00506   0.68661   0.51349   0.01267  Uiso   1.00
C79    C     0.52450   0.09450   0.08470   0.01267  Uiso   1.00
C80    C     0.62154   0.54625   0.98706   0.01267  Uiso   1.00
C81    C     0.31339   0.99494   0.48651   0.01267  Uiso   1.00
C82    C     0.61402   0.95135   0.50467   0.01267  Uiso   1.00
C83    C     0.40010   0.50000   0.59990   0.01267  Uiso   1.00
C84    C     0.93810   0.44120   0.64850   0.01267  Uiso   1.00
C85    C     0.56735   0.25131   0.93340   0.01267  Uiso   1.00
C86    C     0.96756   0.55122   0.19176   0.01267  Uiso   1.00
C87    C     0.10020   0.52660   0.03100   0.01267  Uiso   1.00
C88    C     0.71266   0.24652   0.78394   0.01267  Uiso   1.00
C89    C     0.47550   0.91530   0.90550   0.01267  Uiso   1.00
C90    C     0.07180   0.34750   0.55620   0.01267  Uiso   1.00
C91    C     0.24652   0.78394   0.71266   0.01267  Uiso   1.00
C92    C     0.44380   0.65250   0.92820   0.01267  Uiso   1.00
C93    C     0.66933   0.42021   0.48246   0.01267  Uiso   1.00
C94    C     0.99210   0.58160   0.89660   0.01267  Uiso   1.00
C95    C     0.37893   0.16273   0.81956   0.01267  Uiso   1.00
C96    C     0.08470   0.52450   0.09450   0.01267  Uiso   1.00
C97    C     0.24950   0.88194   0.61798   0.01267  Uiso   1.00
C98    C     0.12759   0.04519   0.47728   0.01267  Uiso   1.00
C99    C     0.94420   0.89680   0.58910   0.01267  Uiso   1.00
C100   C     0.95642   0.41822   0.40676   0.01267  Uiso   1.00
C101   C     0.82897   0.71088   0.31562   0.01267  Uiso   1.00
C102   C     0.48246   0.66933   0.42021   0.01267  Uiso   1.00
C103   C     0.89660   0.99210   0.58160   0.01267  Uiso   1.00
C104   C     0.90550   0.47550   0.91530   0.01267  Uiso   1.00
C105   C     0.46529   0.05297   0.68885   0.01267  Uiso   1.00
C106   C     0.58910   0.94420   0.89680   0.01267  Uiso   1.00
C107   C     0.58178   0.04358   0.59324   0.01267  Uiso   1.00
C108   C     0.49620   0.03620   0.11520   0.01267  Uiso   1.00
C109   C     0.90870   0.46660   0.93210   0.01267  Uiso   1.00
C110   C     0.51349   0.00506   0.68661   0.01267  Uiso   1.00
C111   C     0.75348   0.28734   0.21606   0.01267  Uiso   1.00
C112   C     0.44878   0.03244   0.80824   0.01267  Uiso   1.00
C113   C     0.87241   0.52272   0.95481   0.01267  Uiso   1.00
C114   C     0.08450   0.39600   0.03840   0.01267  Uiso   1.00
C115   C     0.80824   0.44878   0.03244   0.01267  Uiso   1.00
C116   C     0.94090   0.14530   0.44350   0.01267  Uiso   1.00
C117   C     0.01294   0.45375   0.37846   0.01267  Uiso   1.00
C118   C     0.53340   0.09130   0.06790   0.01267  Uiso   1.00
C119   C     0.13370   0.39000   0.94420   0.01267  Uiso   1.00
C120   C     0.09130   0.06790   0.53340   0.01267  Uiso   1.00
C121   C     0.50380   0.88480   0.96380   0.01267  Uiso   1.00
C122   C     0.94703   0.53471   0.31115   0.01267  Uiso   1.00
C123   C     0.88194   0.61798   0.24950   0.01267  Uiso   1.00
C124   C     0.06660   0.74869   0.43265   0.01267  Uiso   1.00
C125   C     0.41840   0.00790   0.10340   0.01267  Uiso   1.00
C126   C     0.08799   0.45564   0.41066   0.01267  Uiso   1.00
C127   C     0.98706   0.62154   0.54625   0.01267  Uiso   1.00
C128   C     0.54820   0.45180   0.50000   0.01267  Uiso   1.00
C129   C     0.33618   0.12252   0.68364   0.01267  Uiso   1.00
C130   C     0.55620   0.07180   0.34750   0.01267  Uiso   1.00
C131   C     0.89180   0.99360   0.54590   0.01267  Uiso   1.00
C132   C     0.61798   0.24950   0.88194   0.01267  Uiso   1.00
C133   C     0.18044   0.83727   0.62107   0.01267  Uiso   1.00
C134   C     0.89680   0.58910   0.94420   0.01267  Uiso   1.00
C135   C     0.01376   0.50103   0.19179   0.01267  Uiso   1.00
C136   C     0.44120   0.64850   0.93810   0.01267  Uiso   1.00
C137   C     0.54625   0.98706   0.62154   0.01267  Uiso   1.00
C138   C     0.45410   0.00640   0.10820   0.01267  Uiso   1.00
C139   C     0.03244   0.80824   0.44878   0.01267  Uiso   1.00
C140   C     0.09830   0.03390   0.39750   0.01267  Uiso   1.00
C141   C     0.10495   0.42248   0.46976   0.01267  Uiso   1.00
C142   C     0.43265   0.06660   0.74869   0.01267  Uiso   1.00
C143   C     0.45180   0.50000   0.54820   0.01267  Uiso   1.00
C144   C     0.54590   0.89180   0.99360   0.01267  Uiso   1.00
C145   C     0.97176   0.74644   0.52995   0.01267  Uiso   1.00
C146   C     0.71088   0.31562   0.82897   0.01267  Uiso   1.00
C147   C     0.16273   0.81956   0.37893   0.01267  Uiso   1.00
C148   C     0.10820   0.45410   0.00640   0.01267  Uiso   1.00
C149   C     0.05580   0.61000   0.86630   0.01267  Uiso   1.00
C150   C     0.04865   0.38598   0.49533   0.01267  Uiso   1.00
C151   C     0.50103   0.19179   0.01376   0.01267  Uiso   1.00
C152   C     0.25272   0.50000   0.74728   0.01267  Uiso   1.00
C153   C     0.69596   0.30404   0.50000   0.01267  Uiso   1.00
C154   C     0.26835   0.75338   0.23662   0.01267  Uiso   1.00
C155   C     0.89505   0.53024   0.57752   0.01267  Uiso   1.00
C156   C     0.17103   0.68438   0.28912   0.01267  Uiso   1.00
C157   C     0.28734   0.21606   0.75348   0.01267  Uiso   1.00
C158   C     0.51746   0.62738   0.28436   0.01267  Uiso   1.00
C159   C     0.37262   0.48254   0.71564   0.01267  Uiso   1.00
C160   C     0.52272   0.95481   0.87241   0.01267  Uiso   1.00
C161   C     0.38202   0.11806   0.75050   0.01267  Uiso   1.00
C162   C     0.95481   0.87241   0.52272   0.01267  Uiso   1.00
C163   C     0.40676   0.95642   0.41822   0.01267  Uiso   1.00
C164   C     0.83727   0.62107   0.18044   0.01267  Uiso   1.00
C165   C     0.88480   0.96380   0.50380   0.01267  Uiso   1.00
C166   C     0.47340   0.89980   0.96900   0.01267  Uiso   1.00
C167   C     0.47005   0.25356   0.02824   0.01267  Uiso   1.00
C168   C     0.55122   0.19176   0.96756   0.01267  Uiso   1.00
C169   C     0.50000   0.59990   0.40010   0.01267  Uiso   1.00
C170   C     0.61000   0.86630   0.05580   0.01267  Uiso   1.00
C171   C     0.60400   0.91550   0.96160   0.01267  Uiso   1.00
C172   C     0.00790   0.10340   0.41840   0.01267  Uiso   1.00
C173   C     0.92820   0.44380   0.65250   0.01267  Uiso   1.00
C174   C     0.50000   0.45190   0.54810   0.01267  Uiso   1.00
C175   C     0.98624   0.80821   0.49897   0.01267  Uiso   1.00
C176   C     0.99494   0.48651   0.31339   0.01267  Uiso   1.00
C177   C     0.97356   0.38270   0.46372   0.01267  Uiso   1.00
C178   C     0.54436   0.91201   0.58934   0.01267  Uiso   1.00
C179   C     0.96610   0.90170   0.60250   0.01267  Uiso   1.00
C180   C     0.39000   0.94420   0.13370   0.01267  Uiso   1.00
C181   C     0.81984   0.33163   0.21128   0.01267  Uiso   1.00
C182   C     0.53024   0.57752   0.89505   0.01267  Uiso   1.00
C183   C     0.34750   0.55620   0.07180   0.01267  Uiso   1.00
C184   C     0.66837   0.18016   0.78872   0.01267  Uiso   1.00
C185   C     0.03990   0.06200   0.36900   0.01267  Uiso   1.00
C186   C     0.95135   0.50467   0.61402   0.01267  Uiso   1.00
C187   C     0.96160   0.60400   0.91550   0.01267  Uiso   1.00
C188   C     0.06790   0.53340   0.09130   0.01267  Uiso   1.00
C189   C     0.04519   0.47728   0.12759   0.01267  Uiso   1.00
C190   C     0.81956   0.37893   0.16273   0.01267  Uiso   1.00
C191   C     0.31562   0.82897   0.71088   0.01267  Uiso   1.00
C192   C     0.50467   0.61402   0.95135   0.01267  Uiso   1.00
C193   C     0.19179   0.01376   0.50103   0.01267  Uiso   1.00
C194   C     0.57979   0.33067   0.51754   0.01267  Uiso   1.00
C195   C     0.50000   0.74728   0.25272   0.01267  Uiso   1.00
C196   C     0.49897   0.98624   0.80821   0.01267  Uiso   1.00
C197   C     0.37846   0.01294   0.45375   0.01267  Uiso   1.00
C198   C     0.03840   0.08450   0.39600   0.01267  Uiso   1.00
C199   C     0.21606   0.75348   0.28734   0.01267  Uiso   1.00
C200   C     0.93210   0.90870   0.46660   0.01267  Uiso   1.00
C201   C     0.73165   0.76338   0.24662   0.01267  Uiso   1.00
C202   C     0.48651   0.31339   0.99494   0.01267  Uiso   1.00
C203   C     0.12252   0.68364   0.33618   0.01267  Uiso   1.00
C204   C     0.80821   0.49897   0.98624   0.01267  Uiso   1.00
C205   C     0.59324   0.58178   0.04358   0.01267  Uiso   1.00
C206   C     0.61730   0.02644   0.53628   0.01267  Uiso   1.00
C207   C     0.38270   0.46372   0.97356   0.01267  Uiso   1.00
C208   C     0.25356   0.02824   0.47005   0.01267  Uiso   1.00
C209   C     0.23662   0.26835   0.75338   0.01267  Uiso   1.00
C210   C     0.24662   0.73165   0.76338   0.01267  Uiso   1.00
C211   C     0.02644   0.53628   0.61730   0.01267  Uiso   1.00
C212   C     0.91201   0.58934   0.54436   0.01267  Uiso   1.00
C213   C     0.85470   0.05910   0.55650   0.01267  Uiso   1.00
C214   C     0.53471   0.31115   0.94703   0.01267  Uiso   1.00
C215   C     0.99360   0.54590   0.89180   0.01267  Uiso   1.00
C216   C     0.87748   0.66382   0.31636   0.01267  Uiso   1.00
C217   C     0.96900   0.47340   0.89980   0.01267  Uiso   1.00
C218   C     0.10320   0.05580   0.41090   0.01267  Uiso   1.00
C219   C     0.58160   0.89660   0.99210   0.01267  Uiso   1.00
C220   C     0.76338   0.24662   0.73165   0.01267  Uiso   1.00
C221   C     0.18016   0.78872   0.66837   0.01267  Uiso   1.00
C222   C     0.33067   0.51754   0.57979   0.01267  Uiso   1.00
C223   C     0.04358   0.59324   0.58178   0.01267  Uiso   1.00
C224   C     0.96380   0.50380   0.88480   0.01267  Uiso   1.00
C225   C     0.11520   0.49620   0.03620   0.01267  Uiso   1.00
C226   C     0.48254   0.71564   0.37262   0.01267  Uiso   1.00
C227   C     0.71564   0.37262   0.48254   0.01267  Uiso   1.00
C228   C     0.06200   0.36900   0.03990   0.01267  Uiso   1.00
C229   C     0.86630   0.05580   0.61000   0.01267  Uiso   1.00
C230   C     0.62107   0.18044   0.83727   0.01267  Uiso   1.00
C231   C     0.49533   0.04865   0.38598   0.01267  Uiso   1.00
O1     O     0.14990   0.48520   0.90210   0.01267  Uiso   1.00
O2     O     0.75634   0.09811   0.36919   0.01267  Uiso   1.00
O3     O     0.70810   0.96830   0.43060   0.01267  Uiso   1.00
O4     O     0.18570   0.43650   0.93000   0.01267  Uiso   1.00
O5     O     0.07000   0.56350   0.81430   0.01267  Uiso   1.00
O6     O     0.85010   0.09790   0.51480   0.01267  Uiso   1.00
O7     O     0.42070   0.65650   0.87740   0.01267  Uiso   1.00
O8     O     0.85660   0.39860   0.62920   0.01267  Uiso   1.00
O9     O     0.09811   0.36919   0.75634   0.01267  Uiso   1.00
O10    O     0.18385   0.68973   0.76049   0.01267  Uiso   1.00
O11    O     0.73292   0.80444   0.30908   0.01267  Uiso   1.00
O12    O     0.99350   0.41440   0.67000   0.01267  Uiso   1.00
O13    O     0.93000   0.18570   0.43650   0.01267  Uiso   1.00
O14    O     0.90210   0.14990   0.48520   0.01267  Uiso   1.00
O15    O     0.58560   0.00650   0.33000   0.01267  Uiso   1.00
O16    O     0.19556   0.26708   0.69092   0.01267  Uiso   1.00
O17    O     0.09109   0.67704   0.88910   0.01267  Uiso   1.00
O18    O     0.46958   0.80070   0.26665   0.01267  Uiso   1.00
O19    O     0.24366   0.63081   0.90189   0.01267  Uiso   1.00
O20    O     0.29190   0.56940   0.03170   0.01267  Uiso   1.00
O21    O     0.26708   0.69092   0.19556   0.01267  Uiso   1.00
O22    O     0.43650   0.93000   0.18570   0.01267  Uiso   1.00
O23    O     0.83920   0.07330   0.62200   0.01267  Uiso   1.00
O24    O     0.41440   0.67000   0.99350   0.01267  Uiso   1.00
O25    O     0.36919   0.75634   0.09811   0.01267  Uiso   1.00
O26    O     0.26665   0.46958   0.80070   0.01267  Uiso   1.00
O27    O     0.69092   0.19556   0.26708   0.01267  Uiso   1.00
O28    O     0.53042   0.73335   0.19930   0.01267  Uiso   1.00
O29    O     0.00650   0.33000   0.58560   0.01267  Uiso   1.00
O30    O     0.63081   0.90189   0.24366   0.01267  Uiso   1.00
O31    O     0.56940   0.03170   0.29190   0.01267  Uiso   1.00
O32    O     0.43060   0.70810   0.96830   0.01267  Uiso   1.00
O33    O     0.03170   0.29190   0.56940   0.01267  Uiso   1.00
O34    O     0.80070   0.26665   0.46958   0.01267  Uiso   1.00
O35    O     0.81615   0.23951   0.31027   0.01267  Uiso   1.00
O36    O     0.39860   0.62920   0.85660   0.01267  Uiso   1.00
O37    O     0.48520   0.90210   0.14990   0.01267  Uiso   1.00
O38    O     0.23951   0.31027   0.81615   0.01267  Uiso   1.00
O39    O     0.88910   0.09109   0.67704   0.01267  Uiso   1.00
O40    O     0.76049   0.18385   0.68973   0.01267  Uiso   1.00
O41    O     0.67000   0.99350   0.41440   0.01267  Uiso   1.00
O42    O     0.33000   0.58560   0.00650   0.01267  Uiso   1.00
O43    O     0.37080   0.60140   0.14340   0.01267  Uiso   1.00
O44    O     0.16080   0.37800   0.92670   0.01267  Uiso   1.00
O45    O     0.92670   0.16080   0.37800   0.01267  Uiso   1.00
O46    O     0.14340   0.37080   0.60140   0.01267  Uiso   1.00
O47    O     0.90189   0.24366   0.63081   0.01267  Uiso   1.00
O48    O     0.68973   0.76049   0.18385   0.01267  Uiso   1.00
O49    O     0.37800   0.92670   0.16080   0.01267  Uiso   1.00
O50    O     0.51480   0.85010   0.09790   0.01267  Uiso   1.00
O51    O     0.32296   0.90891   0.11090   0.01267  Uiso   1.00
O52    O     0.65650   0.87740   0.42070   0.01267  Uiso   1.00
O53    O     0.19930   0.53042   0.73335   0.01267  Uiso   1.00
O54    O     0.73335   0.19930   0.53042   0.01267  Uiso   1.00
O55    O     0.30908   0.73292   0.80444   0.01267  Uiso   1.00
O56    O     0.31027   0.81615   0.23951   0.01267  Uiso   1.00
O57    O     0.80444   0.30908   0.73292   0.01267  Uiso   1.00
O58    O     0.60140   0.14340   0.37080   0.01267  Uiso   1.00
O59    O     0.62920   0.85660   0.39860   0.01267  Uiso   1.00
O60    O     0.12260   0.34350   0.57930   0.01267  Uiso   1.00
O61    O     0.62200   0.83920   0.07330   0.01267  Uiso   1.00
O62    O     0.34350   0.57930   0.12260   0.01267  Uiso   1.00
O63    O     0.57930   0.12260   0.34350   0.01267  Uiso   1.00
O64    O     0.11090   0.32296   0.90891   0.01267  Uiso   1.00
O65    O     0.07330   0.62200   0.83920   0.01267  Uiso   1.00
O66    O     0.87740   0.42070   0.65650   0.01267  Uiso   1.00
O67    O     0.90891   0.11090   0.32296   0.01267  Uiso   1.00
O68    O     0.09790   0.51480   0.85010   0.01267  Uiso   1.00
O69    O     0.56350   0.81430   0.07000   0.01267  Uiso   1.00
O70    O     0.81430   0.07000   0.56350   0.01267  Uiso   1.00
O71    O     0.67704   0.88910   0.09109   0.01267  Uiso   1.00
O72    O     0.96830   0.43060   0.70810   0.01267  Uiso   1.00
