data_ic5b00561_si_002_clean
_audit_creation_date              2015-08-19
_audit_creation_method            'Materials Studio'
_symmetry_space_group_name_H-M    'P1'
_symmetry_Int_Tables_number       1
_symmetry_cell_setting            triclinic
loop_
_symmetry_equiv_pos_as_xyz
  x,y,z
_cell_length_a                    14.7194
_cell_length_b                    14.7194
_cell_length_c                    27.1139
_cell_angle_alpha                 85.9669
_cell_angle_beta                  85.9669
_cell_angle_gamma                 60.0355
loop_
_atom_site_label
_atom_site_type_symbol
_atom_site_fract_x
_atom_site_fract_y
_atom_site_fract_z
_atom_site_U_iso_or_equiv
_atom_site_adp_type
_atom_site_occupancy
Cu1    Cu    0.63515   0.56303   0.93408   0.01267  Uiso   1.00
Cu2    Cu    0.69020   0.76340   0.38447   0.01267  Uiso   1.00
Cu3    Cu    0.76340   0.69020   0.88447   0.01267  Uiso   1.00
Cu4    Cu    0.81422   0.51124   0.38454   0.01267  Uiso   1.00
Cu5    Cu    0.51124   0.81422   0.88454   0.01267  Uiso   1.00
Cu6    Cu    0.56303   0.63515   0.43408   0.01267  Uiso   1.00
H1     H     0.55230   0.41770   0.45350   0.01267  Uiso   1.00
H2     H     0.29070   0.82150   0.87430   0.01267  Uiso   1.00
H3     H     0.08000   0.29040   0.97010   0.01267  Uiso   1.00
H4     H     0.76470   0.71370   0.66640   0.01267  Uiso   1.00
H5     H     0.79750   0.64110   0.75390   0.01267  Uiso   1.00
H6     H     0.84460   0.33020   0.93030   0.01267  Uiso   1.00
H7     H     0.82150   0.29070   0.37430   0.01267  Uiso   1.00
H8     H     0.47740   0.97900   0.35680   0.01267  Uiso   1.00
H9     H     0.77160   0.68220   0.58290   0.01267  Uiso   1.00
H10    H     0.24680   0.09200   0.92070   0.01267  Uiso   1.00
H11    H     0.62410   0.22870   0.48250   0.01267  Uiso   1.00
H12    H     0.09770   0.65270   0.46820   0.01267  Uiso   1.00
H13    H     0.33020   0.84460   0.43030   0.01267  Uiso   1.00
H14    H     0.09750   0.25030   0.93700   0.01267  Uiso   1.00
H15    H     0.62210   0.53350   0.10670   0.01267  Uiso   1.00
H16    H     0.68220   0.77160   0.08290   0.01267  Uiso   1.00
H17    H     0.53350   0.62210   0.60670   0.01267  Uiso   1.00
H18    H     0.22870   0.62410   0.98250   0.01267  Uiso   1.00
H19    H     0.79030   0.89890   0.89670   0.01267  Uiso   1.00
H20    H     0.41770   0.55230   0.95350   0.01267  Uiso   1.00
H21    H     0.30720   0.61360   0.32480   0.01267  Uiso   1.00
H22    H     0.09910   0.14810   0.28690   0.01267  Uiso   1.00
H23    H     0.12940   0.23680   0.47440   0.01267  Uiso   1.00
H24    H     0.29040   0.08000   0.47010   0.01267  Uiso   1.00
H25    H     0.65060   0.25760   0.97240   0.01267  Uiso   1.00
H26    H     0.97900   0.47740   0.85680   0.01267  Uiso   1.00
H27    H     0.89890   0.79030   0.39670   0.01267  Uiso   1.00
H28    H     0.04500   0.22840   0.83070   0.01267  Uiso   1.00
H29    H     0.07310   0.61930   0.98040   0.01267  Uiso   1.00
H30    H     0.23680   0.12940   0.97440   0.01267  Uiso   1.00
H31    H     0.20640   0.07060   0.83750   0.01267  Uiso   1.00
H32    H     0.05280   0.48220   0.38470   0.01267  Uiso   1.00
H33    H     0.25760   0.65060   0.47240   0.01267  Uiso   1.00
H34    H     0.65270   0.09770   0.96820   0.01267  Uiso   1.00
H35    H     0.64000   0.71400   0.94410   0.01267  Uiso   1.00
H36    H     0.73440   0.03740   0.33860   0.01267  Uiso   1.00
H37    H     0.19410   0.73790   0.84060   0.01267  Uiso   1.00
H38    H     0.25030   0.09750   0.43700   0.01267  Uiso   1.00
H39    H     0.53020   0.64540   0.69110   0.01267  Uiso   1.00
H40    H     0.07060   0.20640   0.33750   0.01267  Uiso   1.00
H41    H     0.73790   0.19410   0.34060   0.01267  Uiso   1.00
H42    H     0.64110   0.79750   0.25390   0.01267  Uiso   1.00
H43    H     0.22840   0.04500   0.33070   0.01267  Uiso   1.00
H44    H     0.61360   0.30720   0.82480   0.01267  Uiso   1.00
H45    H     0.14810   0.09910   0.78690   0.01267  Uiso   1.00
H46    H     0.77610   0.48690   0.25920   0.01267  Uiso   1.00
H47    H     0.61930   0.07310   0.48040   0.01267  Uiso   1.00
H48    H     0.71370   0.76470   0.16640   0.01267  Uiso   1.00
H49    H     0.61420   0.14780   0.82010   0.01267  Uiso   1.00
H50    H     0.14780   0.61420   0.32010   0.01267  Uiso   1.00
H51    H     0.03740   0.73440   0.83860   0.01267  Uiso   1.00
H52    H     0.48690   0.77610   0.75920   0.01267  Uiso   1.00
H53    H     0.25700   0.99820   0.30250   0.01267  Uiso   1.00
H54    H     0.64540   0.53020   0.19110   0.01267  Uiso   1.00
H55    H     0.09200   0.24680   0.42070   0.01267  Uiso   1.00
H56    H     0.99820   0.25700   0.80250   0.01267  Uiso   1.00
H57    H     0.71400   0.64000   0.44410   0.01267  Uiso   1.00
H58    H     0.48220   0.05280   0.88470   0.01267  Uiso   1.00
C1     C     0.26400   0.03740   0.37080   0.01267  Uiso   1.00
C2     C     0.04970   0.22250   0.82670   0.01267  Uiso   1.00
C3     C     0.13040   0.13740   0.31780   0.01267  Uiso   1.00
C4     C     0.67566   0.93886   0.41007   0.01267  Uiso   1.00
C5     C     0.93886   0.67566   0.91007   0.01267  Uiso   1.00
C6     C     0.63430   0.11070   0.89430   0.01267  Uiso   1.00
C7     C     0.21010   0.08230   0.85240   0.01267  Uiso   1.00
C8     C     0.18930   0.64670   0.95340   0.01267  Uiso   1.00
C9     C     0.46370   0.92930   0.37500   0.01267  Uiso   1.00
C10    C     0.62971   0.40031   0.90050   0.01267  Uiso   1.00
C11    C     0.65530   0.63590   0.53182   0.01267  Uiso   1.00
C12    C     0.09740   0.64380   0.95200   0.01267  Uiso   1.00
C13    C     0.67560   0.72620   0.26551   0.01267  Uiso   1.00
C14    C     0.03740   0.26400   0.87080   0.01267  Uiso   1.00
C15    C     0.26440   0.62160   0.35380   0.01267  Uiso   1.00
C16    C     0.71810   0.69430   0.65420   0.01267  Uiso   1.00
C17    C     0.98940   0.34100   0.40760   0.01267  Uiso   1.00
C18    C     0.17030   0.62210   0.35070   0.01267  Uiso   1.00
C19    C     0.23390   0.08970   0.90540   0.01267  Uiso   1.00
C20    C     0.40813   0.61393   0.93537   0.01267  Uiso   1.00
C21    C     0.64380   0.09740   0.45200   0.01267  Uiso   1.00
C22    C     0.68330   0.64590   0.18582   0.01267  Uiso   1.00
C23    C     0.64000   0.58120   0.11892   0.01267  Uiso   1.00
C24    C     0.64480   0.14060   0.93920   0.01267  Uiso   1.00
C25    C     0.61393   0.40813   0.43537   0.01267  Uiso   1.00
C26    C     0.31200   0.97880   0.84250   0.01267  Uiso   1.00
C27    C     0.19790   0.15110   0.94520   0.01267  Uiso   1.00
C28    C     0.65480   0.57800   0.16891   0.01267  Uiso   1.00
C29    C     0.22250   0.04970   0.32670   0.01267  Uiso   1.00
C30    C     0.27110   0.04930   0.40070   0.01267  Uiso   1.00
C31    C     0.99790   0.55290   0.38690   0.01267  Uiso   1.00
C32    C     0.24500   0.10500   0.44310   0.01267  Uiso   1.00
C33    C     0.71190   0.07630   0.36780   0.01267  Uiso   1.00
C34    C     0.62210   0.17030   0.85070   0.01267  Uiso   1.00
C35    C     0.76036   0.33916   0.39235   0.01267  Uiso   1.00
C36    C     0.10500   0.24500   0.94310   0.01267  Uiso   1.00
C37    C     0.65220   0.65080   0.58618   0.01267  Uiso   1.00
C38    C     0.63590   0.65530   0.03182   0.01267  Uiso   1.00
C39    C     0.40031   0.62971   0.40050   0.01267  Uiso   1.00
C40    C     0.19540   0.12620   0.89640   0.01267  Uiso   1.00
C41    C     0.67596   0.04016   0.40956   0.01267  Uiso   1.00
C42    C     0.58120   0.64000   0.61892   0.01267  Uiso   1.00
C43    C     0.16870   0.71470   0.86900   0.01267  Uiso   1.00
C44    C     0.68333   0.22313   0.41170   0.01267  Uiso   1.00
C45    C     0.22313   0.68333   0.91170   0.01267  Uiso   1.00
C46    C     0.92930   0.46370   0.87500   0.01267  Uiso   1.00
C47    C     0.71470   0.16870   0.36900   0.01267  Uiso   1.00
C48    C     0.21860   0.10840   0.40620   0.01267  Uiso   1.00
C49    C     0.11630   0.17930   0.36440   0.01267  Uiso   1.00
C50    C     0.91440   0.72020   0.39330   0.01267  Uiso   1.00
C51    C     0.55724   0.74904   0.76826   0.01267  Uiso   1.00
C52    C     0.74904   0.55724   0.26826   0.01267  Uiso   1.00
C53    C     0.67660   0.72100   0.10470   0.01267  Uiso   1.00
C54    C     0.62160   0.26440   0.85380   0.01267  Uiso   1.00
C55    C     0.72020   0.91440   0.89330   0.01267  Uiso   1.00
C56    C     0.69430   0.71810   0.15420   0.01267  Uiso   1.00
C57    C     0.23510   0.64370   0.44160   0.01267  Uiso   1.00
C58    C     0.85640   0.38360   0.91490   0.01267  Uiso   1.00
C59    C     0.15110   0.19790   0.44520   0.01267  Uiso   1.00
C60    C     0.34100   0.98940   0.90760   0.01267  Uiso   1.00
C61    C     0.63251   0.29671   0.89860   0.01267  Uiso   1.00
C62    C     0.29671   0.63251   0.39860   0.01267  Uiso   1.00
C63    C     0.10840   0.21860   0.90620   0.01267  Uiso   1.00
C64    C     0.64370   0.23510   0.94160   0.01267  Uiso   1.00
C65    C     0.33916   0.76036   0.89235   0.01267  Uiso   1.00
C66    C     0.11070   0.63430   0.39430   0.01267  Uiso   1.00
C67    C     0.08380   0.20900   0.85980   0.01267  Uiso   1.00
C68    C     0.57800   0.65480   0.66891   0.01267  Uiso   1.00
C69    C     0.97880   0.31200   0.34250   0.01267  Uiso   1.00
C70    C     0.17930   0.11630   0.86440   0.01267  Uiso   1.00
C71    C     0.13740   0.13040   0.81780   0.01267  Uiso   1.00
C72    C     0.08970   0.23390   0.40540   0.01267  Uiso   1.00
C73    C     0.64590   0.68330   0.68582   0.01267  Uiso   1.00
C74    C     0.38360   0.85640   0.41490   0.01267  Uiso   1.00
C75    C     0.14060   0.64480   0.43920   0.01267  Uiso   1.00
C76    C     0.65080   0.65220   0.08618   0.01267  Uiso   1.00
C77    C     0.08230   0.21010   0.35240   0.01267  Uiso   1.00
C78    C     0.04930   0.27110   0.90070   0.01267  Uiso   1.00
C79    C     0.55290   0.99790   0.88690   0.01267  Uiso   1.00
C80    C     0.72100   0.67660   0.60470   0.01267  Uiso   1.00
C81    C     0.64670   0.18930   0.45340   0.01267  Uiso   1.00
C82    C     0.20900   0.08380   0.35980   0.01267  Uiso   1.00
C83    C     0.04016   0.67596   0.90956   0.01267  Uiso   1.00
C84    C     0.07630   0.71190   0.86780   0.01267  Uiso   1.00
C85    C     0.12620   0.19540   0.39640   0.01267  Uiso   1.00
C86    C     0.72620   0.67560   0.76551   0.01267  Uiso   1.00
N1     N     0.47871   0.64251   0.92785   0.01267  Uiso   1.00
N2     N     0.64251   0.47871   0.42785   0.01267  Uiso   1.00
N3     N     0.31888   0.68568   0.91328   0.01267  Uiso   1.00
N4     N     0.48377   0.78897   0.41440   0.01267  Uiso   1.00
N5     N     0.78897   0.48377   0.91440   0.01267  Uiso   1.00
N6     N     0.64295   0.70115   0.73720   0.01267  Uiso   1.00
N7     N     0.63575   0.01155   0.89130   0.01267  Uiso   1.00
N8     N     0.89846   0.58386   0.38605   0.01267  Uiso   1.00
N9     N     0.83630   0.53430   0.88896   0.01267  Uiso   1.00
N10    N     0.68568   0.31888   0.41328   0.01267  Uiso   1.00
N11    N     0.73621   0.43401   0.40064   0.01267  Uiso   1.00
N12    N     0.01155   0.63575   0.39130   0.01267  Uiso   1.00
N13    N     0.94589   0.36729   0.88990   0.01267  Uiso   1.00
N14    N     0.53430   0.83630   0.38896   0.01267  Uiso   1.00
N15    N     0.69400   0.70500   0.81074   0.01267  Uiso   1.00
N16    N     0.58511   0.75271   0.81231   0.01267  Uiso   1.00
N17    N     0.58386   0.89846   0.88605   0.01267  Uiso   1.00
N18    N     0.70115   0.64295   0.23720   0.01267  Uiso   1.00
N19    N     0.75271   0.58511   0.31231   0.01267  Uiso   1.00
N20    N     0.36729   0.94589   0.38990   0.01267  Uiso   1.00
N21    N     0.84445   0.69105   0.38980   0.01267  Uiso   1.00
N22    N     0.69105   0.84445   0.88980   0.01267  Uiso   1.00
N23    N     0.70500   0.69400   0.31074   0.01267  Uiso   1.00
N24    N     0.43401   0.73621   0.90064   0.01267  Uiso   1.00
O1     O     0.62411   0.45211   0.86149   0.01267  Uiso   1.00
O2     O     0.37924   0.94224   0.87169   0.01267  Uiso   1.00
O3     O     0.62993   0.58093   0.01492   0.01267  Uiso   1.00
O4     O     0.11190   0.29410   0.50260   0.01267  Uiso   1.00
O5     O     0.89765   0.68725   0.86798   0.01267  Uiso   1.00
O6     O     0.66543   0.89763   0.44962   0.01267  Uiso   1.00
O7     O     0.96020   0.38440   0.44680   0.01267  Uiso   1.00
O8     O     0.69516   0.63576   0.41616   0.01267  Uiso   1.00
O9     O     0.68725   0.89765   0.36798   0.01267  Uiso   1.00
O10    O     0.63549   0.42889   0.94300   0.01267  Uiso   1.00
O11    O     0.42889   0.63549   0.44300   0.01267  Uiso   1.00
O12    O     0.29410   0.11190   0.00260   0.01267  Uiso   1.00
O13    O     0.73168   0.63268   0.50633   0.01267  Uiso   1.00
O14    O     0.93170   0.32470   0.30390   0.01267  Uiso   1.00
O15    O     0.63268   0.73168   0.00633   0.01267  Uiso   1.00
O16    O     0.58093   0.62993   0.51492   0.01267  Uiso   1.00
O17    O     0.63576   0.69516   0.91616   0.01267  Uiso   1.00
O18    O     0.89763   0.66543   0.94962   0.01267  Uiso   1.00
O19    O     0.94224   0.37924   0.37169   0.01267  Uiso   1.00
O20    O     0.45211   0.62411   0.36149   0.01267  Uiso   1.00
O21    O     0.32470   0.93170   0.80390   0.01267  Uiso   1.00
O22    O     0.38440   0.96020   0.94680   0.01267  Uiso   1.00
Cu7    Cu    0.48876   0.18578   0.11546   0.01267  Uiso   1.00
Cu8    Cu    0.43697   0.36485   0.56592   0.01267  Uiso   1.00
Cu9    Cu    0.36485   0.43697   0.06592   0.01267  Uiso   1.00
Cu10   Cu    0.30980   0.23660   0.61553   0.01267  Uiso   1.00
Cu11   Cu    0.23660   0.30980   0.11553   0.01267  Uiso   1.00
Cu12   Cu    0.18578   0.48876   0.61546   0.01267  Uiso   1.00
H59    H     0.37790   0.46650   0.89330   0.01267  Uiso   1.00
H60    H     0.44770   0.58230   0.54650   0.01267  Uiso   1.00
H61    H     0.79360   0.92940   0.16250   0.01267  Uiso   1.00
H62    H     0.02100   0.52260   0.14320   0.01267  Uiso   1.00
H63    H     0.74970   0.90250   0.56300   0.01267  Uiso   1.00
H64    H     0.76320   0.87060   0.02560   0.01267  Uiso   1.00
H65    H     0.20250   0.35890   0.24610   0.01267  Uiso   1.00
H66    H     0.51310   0.22390   0.24080   0.01267  Uiso   1.00
H67    H     0.92940   0.79360   0.66250   0.01267  Uiso   1.00
H68    H     0.51780   0.94720   0.11530   0.01267  Uiso   1.00
H69    H     0.28600   0.36000   0.55590   0.01267  Uiso   1.00
H70    H     0.70930   0.17850   0.12570   0.01267  Uiso   1.00
H71    H     0.94720   0.51780   0.61530   0.01267  Uiso   1.00
H72    H     0.35460   0.46980   0.80890   0.01267  Uiso   1.00
H73    H     0.17850   0.70930   0.62570   0.01267  Uiso   1.00
H74    H     0.58230   0.44770   0.04650   0.01267  Uiso   1.00
H75    H     0.00180   0.74300   0.19750   0.01267  Uiso   1.00
H76    H     0.38640   0.69280   0.17520   0.01267  Uiso   1.00
H77    H     0.80590   0.26210   0.15940   0.01267  Uiso   1.00
H78    H     0.77160   0.95500   0.66930   0.01267  Uiso   1.00
H79    H     0.34730   0.90230   0.03180   0.01267  Uiso   1.00
H80    H     0.22840   0.31780   0.41710   0.01267  Uiso   1.00
H81    H     0.75320   0.90800   0.07930   0.01267  Uiso   1.00
H82    H     0.37590   0.77130   0.51750   0.01267  Uiso   1.00
H83    H     0.66980   0.15540   0.56970   0.01267  Uiso   1.00
H84    H     0.85220   0.38580   0.67990   0.01267  Uiso   1.00
H85    H     0.92000   0.70960   0.02990   0.01267  Uiso   1.00
H86    H     0.20970   0.10110   0.10330   0.01267  Uiso   1.00
H87    H     0.34940   0.74240   0.02760   0.01267  Uiso   1.00
H88    H     0.31780   0.22840   0.91710   0.01267  Uiso   1.00
H89    H     0.15540   0.66980   0.06970   0.01267  Uiso   1.00
H90    H     0.35890   0.20250   0.74610   0.01267  Uiso   1.00
H91    H     0.10110   0.20970   0.60330   0.01267  Uiso   1.00
H92    H     0.69280   0.38640   0.67520   0.01267  Uiso   1.00
H93    H     0.26560   0.96260   0.66140   0.01267  Uiso   1.00
H94    H     0.90250   0.74970   0.06300   0.01267  Uiso   1.00
H95    H     0.90800   0.75320   0.57930   0.01267  Uiso   1.00
H96    H     0.70960   0.92000   0.52990   0.01267  Uiso   1.00
H97    H     0.74300   0.00180   0.69750   0.01267  Uiso   1.00
H98    H     0.85190   0.90090   0.21310   0.01267  Uiso   1.00
H99    H     0.90090   0.85190   0.71310   0.01267  Uiso   1.00
H100   H     0.38070   0.92690   0.51960   0.01267  Uiso   1.00
H101   H     0.95500   0.77160   0.16930   0.01267  Uiso   1.00
H102   H     0.28630   0.23530   0.83360   0.01267  Uiso   1.00
H103   H     0.38580   0.85220   0.17990   0.01267  Uiso   1.00
H104   H     0.22390   0.51310   0.74080   0.01267  Uiso   1.00
H105   H     0.77130   0.37590   0.01750   0.01267  Uiso   1.00
H106   H     0.26210   0.80590   0.65940   0.01267  Uiso   1.00
H107   H     0.23530   0.28630   0.33360   0.01267  Uiso   1.00
H108   H     0.96260   0.26560   0.16140   0.01267  Uiso   1.00
H109   H     0.36000   0.28600   0.05590   0.01267  Uiso   1.00
H110   H     0.90230   0.34730   0.53180   0.01267  Uiso   1.00
H111   H     0.46980   0.35460   0.30890   0.01267  Uiso   1.00
H112   H     0.52260   0.02100   0.64320   0.01267  Uiso   1.00
H113   H     0.74240   0.34940   0.52760   0.01267  Uiso   1.00
H114   H     0.92690   0.38070   0.01960   0.01267  Uiso   1.00
H115   H     0.46650   0.37790   0.39330   0.01267  Uiso   1.00
H116   H     0.87060   0.76320   0.52560   0.01267  Uiso   1.00
C87    C     0.00210   0.44710   0.61310   0.01267  Uiso   1.00
C88    C     0.91030   0.76610   0.59460   0.01267  Uiso   1.00
C89    C     0.59187   0.38607   0.06463   0.01267  Uiso   1.00
C90    C     0.28190   0.30570   0.34580   0.01267  Uiso   1.00
C91    C     0.89160   0.78140   0.09380   0.01267  Uiso   1.00
C92    C     0.34920   0.34780   0.91382   0.01267  Uiso   1.00
C93    C     0.77750   0.95030   0.67330   0.01267  Uiso   1.00
C94    C     0.36000   0.41880   0.88108   0.01267  Uiso   1.00
C95    C     0.77687   0.31667   0.08830   0.01267  Uiso   1.00
C96    C     0.91770   0.78990   0.64760   0.01267  Uiso   1.00
C97    C     0.36570   0.88930   0.10570   0.01267  Uiso   1.00
C98    C     0.27380   0.32440   0.23449   0.01267  Uiso   1.00
C99    C     0.70329   0.36749   0.60140   0.01267  Uiso   1.00
C100   C     0.32434   0.06114   0.58993   0.01267  Uiso   1.00
C101   C     0.76610   0.91030   0.09460   0.01267  Uiso   1.00
C102   C     0.35330   0.81070   0.54660   0.01267  Uiso   1.00
C103   C     0.95070   0.72890   0.09930   0.01267  Uiso   1.00
C104   C     0.89500   0.75500   0.05690   0.01267  Uiso   1.00
C105   C     0.90260   0.35620   0.04800   0.01267  Uiso   1.00
C106   C     0.34470   0.36410   0.46818   0.01267  Uiso   1.00
C107   C     0.37840   0.73560   0.14620   0.01267  Uiso   1.00
C108   C     0.85940   0.35520   0.56080   0.01267  Uiso   1.00
C109   C     0.73560   0.37840   0.64620   0.01267  Uiso   1.00
C110   C     0.81070   0.35330   0.04660   0.01267  Uiso   1.00
C111   C     0.37790   0.82970   0.14930   0.01267  Uiso   1.00
C112   C     0.32340   0.27900   0.89530   0.01267  Uiso   1.00
C113   C     0.96260   0.73600   0.12920   0.01267  Uiso   1.00
C114   C     0.75500   0.89500   0.55690   0.01267  Uiso   1.00
C115   C     0.78990   0.91770   0.14760   0.01267  Uiso   1.00
C116   C     0.80460   0.87380   0.10360   0.01267  Uiso   1.00
C117   C     0.95984   0.32404   0.09044   0.01267  Uiso   1.00
C118   C     0.25096   0.44276   0.73174   0.01267  Uiso   1.00
C119   C     0.37029   0.59969   0.09950   0.01267  Uiso   1.00
C120   C     0.06114   0.32434   0.08993   0.01267  Uiso   1.00
C121   C     0.07070   0.53630   0.12500   0.01267  Uiso   1.00
C122   C     0.34520   0.42200   0.83109   0.01267  Uiso   1.00
C123   C     0.38607   0.59187   0.56463   0.01267  Uiso   1.00
C124   C     0.83130   0.28530   0.13100   0.01267  Uiso   1.00
C125   C     0.32404   0.95984   0.59044   0.01267  Uiso   1.00
C126   C     0.34780   0.34920   0.41382   0.01267  Uiso   1.00
C127   C     0.95030   0.77750   0.17330   0.01267  Uiso   1.00
C128   C     0.87380   0.80460   0.60360   0.01267  Uiso   1.00
C129   C     0.30570   0.28190   0.84580   0.01267  Uiso   1.00
C130   C     0.88370   0.82070   0.63560   0.01267  Uiso   1.00
C131   C     0.23964   0.66084   0.60765   0.01267  Uiso   1.00
C132   C     0.79100   0.91620   0.64020   0.01267  Uiso   1.00
C133   C     0.59969   0.37029   0.59950   0.01267  Uiso   1.00
C134   C     0.86260   0.86960   0.18220   0.01267  Uiso   1.00
C135   C     0.76490   0.35630   0.55840   0.01267  Uiso   1.00
C136   C     0.86960   0.86260   0.68220   0.01267  Uiso   1.00
C137   C     0.01060   0.65900   0.59240   0.01267  Uiso   1.00
C138   C     0.65900   0.01060   0.09240   0.01267  Uiso   1.00
C139   C     0.78140   0.89160   0.59380   0.01267  Uiso   1.00
C140   C     0.35630   0.76490   0.05840   0.01267  Uiso   1.00
C141   C     0.42200   0.34520   0.33109   0.01267  Uiso   1.00
C142   C     0.92370   0.28810   0.13220   0.01267  Uiso   1.00
C143   C     0.84890   0.80210   0.55480   0.01267  Uiso   1.00
C144   C     0.82070   0.88370   0.13560   0.01267  Uiso   1.00
C145   C     0.35620   0.90260   0.54800   0.01267  Uiso   1.00
C146   C     0.82970   0.37790   0.64930   0.01267  Uiso   1.00
C147   C     0.32440   0.27380   0.73449   0.01267  Uiso   1.00
C148   C     0.91620   0.79100   0.14020   0.01267  Uiso   1.00
C149   C     0.08560   0.27980   0.60670   0.01267  Uiso   1.00
C150   C     0.02120   0.68800   0.65750   0.01267  Uiso   1.00
C151   C     0.41880   0.36000   0.38108   0.01267  Uiso   1.00
C152   C     0.36410   0.34470   0.96818   0.01267  Uiso   1.00
C153   C     0.14360   0.61640   0.08510   0.01267  Uiso   1.00
C154   C     0.28530   0.83130   0.63100   0.01267  Uiso   1.00
C155   C     0.31667   0.77687   0.58830   0.01267  Uiso   1.00
C156   C     0.35520   0.85940   0.06080   0.01267  Uiso   1.00
C157   C     0.68800   0.02120   0.15750   0.01267  Uiso   1.00
C158   C     0.44710   0.00210   0.11310   0.01267  Uiso   1.00
C159   C     0.31670   0.35410   0.81418   0.01267  Uiso   1.00
C160   C     0.72890   0.95070   0.59930   0.01267  Uiso   1.00
C161   C     0.35410   0.31670   0.31418   0.01267  Uiso   1.00
C162   C     0.27980   0.08560   0.10670   0.01267  Uiso   1.00
C163   C     0.80210   0.84890   0.05480   0.01267  Uiso   1.00
C164   C     0.53630   0.07070   0.62500   0.01267  Uiso   1.00
C165   C     0.73600   0.96260   0.62920   0.01267  Uiso   1.00
C166   C     0.36749   0.70329   0.10140   0.01267  Uiso   1.00
C167   C     0.44276   0.25096   0.23174   0.01267  Uiso   1.00
C168   C     0.27900   0.32340   0.39530   0.01267  Uiso   1.00
C169   C     0.61640   0.14360   0.58510   0.01267  Uiso   1.00
C170   C     0.88930   0.36570   0.60570   0.01267  Uiso   1.00
C171   C     0.28810   0.92370   0.63220   0.01267  Uiso   1.00
C172   C     0.66084   0.23964   0.10765   0.01267  Uiso   1.00
N25    N     0.30600   0.29500   0.18926   0.01267  Uiso   1.00
N26    N     0.36425   0.98845   0.10870   0.01267  Uiso   1.00
N27    N     0.31432   0.68112   0.58672   0.01267  Uiso   1.00
N28    N     0.30895   0.15555   0.11020   0.01267  Uiso   1.00
N29    N     0.10154   0.41614   0.61395   0.01267  Uiso   1.00
N30    N     0.68112   0.31432   0.08672   0.01267  Uiso   1.00
N31    N     0.05411   0.63271   0.11010   0.01267  Uiso   1.00
N32    N     0.41614   0.10154   0.11395   0.01267  Uiso   1.00
N33    N     0.52129   0.35749   0.07215   0.01267  Uiso   1.00
N34    N     0.26379   0.56599   0.59936   0.01267  Uiso   1.00
N35    N     0.24729   0.41489   0.68769   0.01267  Uiso   1.00
N36    N     0.51623   0.21103   0.58560   0.01267  Uiso   1.00
N37    N     0.46570   0.16370   0.61104   0.01267  Uiso   1.00
N38    N     0.15555   0.30895   0.61020   0.01267  Uiso   1.00
N39    N     0.35705   0.29885   0.26280   0.01267  Uiso   1.00
N40    N     0.41489   0.24729   0.18769   0.01267  Uiso   1.00
N41    N     0.98845   0.36425   0.60870   0.01267  Uiso   1.00
N42    N     0.21103   0.51623   0.08560   0.01267  Uiso   1.00
N43    N     0.29500   0.30600   0.68926   0.01267  Uiso   1.00
N44    N     0.29885   0.35705   0.76280   0.01267  Uiso   1.00
N45    N     0.63271   0.05411   0.61010   0.01267  Uiso   1.00
N46    N     0.16370   0.46570   0.11104   0.01267  Uiso   1.00
N47    N     0.56599   0.26379   0.09936   0.01267  Uiso   1.00
N48    N     0.35749   0.52129   0.57215   0.01267  Uiso   1.00
O23    O     0.57111   0.36451   0.55700   0.01267  Uiso   1.00
O24    O     0.88810   0.70590   0.49740   0.01267  Uiso   1.00
O25    O     0.62076   0.05776   0.12831   0.01267  Uiso   1.00
O26    O     0.61560   0.03980   0.05320   0.01267  Uiso   1.00
O27    O     0.26832   0.36732   0.49367   0.01267  Uiso   1.00
O28    O     0.36732   0.26832   0.99367   0.01267  Uiso   1.00
O29    O     0.05776   0.62076   0.62831   0.01267  Uiso   1.00
O30    O     0.36451   0.57111   0.05700   0.01267  Uiso   1.00
O31    O     0.06830   0.67530   0.69610   0.01267  Uiso   1.00
O32    O     0.33457   0.10237   0.55038   0.01267  Uiso   1.00
O33    O     0.54789   0.37589   0.63851   0.01267  Uiso   1.00
O34    O     0.37589   0.54789   0.13851   0.01267  Uiso   1.00
O35    O     0.67530   0.06830   0.19610   0.01267  Uiso   1.00
O36    O     0.37007   0.41907   0.98508   0.01267  Uiso   1.00
O37    O     0.70590   0.88810   0.99740   0.01267  Uiso   1.00
O38    O     0.36424   0.30484   0.08384   0.01267  Uiso   1.00
O39    O     0.10235   0.31275   0.13202   0.01267  Uiso   1.00
O40    O     0.41907   0.37007   0.48508   0.01267  Uiso   1.00
O41    O     0.31275   0.10235   0.63202   0.01267  Uiso   1.00
O42    O     0.30484   0.36424   0.58384   0.01267  Uiso   1.00
O43    O     0.03980   0.61560   0.55320   0.01267  Uiso   1.00
O44    O     0.10237   0.33457   0.05038   0.01267  Uiso   1.00
