data_ic801677y_si_001_clean
_audit_creation_date              2015-08-19
_audit_creation_method            'Materials Studio'
_symmetry_space_group_name_H-M    'P1'
_symmetry_Int_Tables_number       1
_symmetry_cell_setting            triclinic
loop_
_symmetry_equiv_pos_as_xyz
  x,y,z
_cell_length_a                    16.6008
_cell_length_b                    16.6008
_cell_length_c                    17.0350
_cell_angle_alpha                 60.8385
_cell_angle_beta                  60.8385
_cell_angle_gamma                 89.9991
loop_
_atom_site_label
_atom_site_type_symbol
_atom_site_fract_x
_atom_site_fract_y
_atom_site_fract_z
_atom_site_U_iso_or_equiv
_atom_site_adp_type
_atom_site_occupancy
Co1    Co    0.44722   0.44722   0.10556   0.01267  Uiso   1.00
Co2    Co    0.00000   0.00000   0.00000   0.01267  Uiso   1.00
Co3    Co    0.55278   0.55278   0.89444   0.01267  Uiso   1.00
H1     H     0.52890   0.67740   0.71540   0.01267  Uiso   1.00
H2     H     0.70150   0.13750   0.16100   0.01267  Uiso   1.00
H3     H     0.90750   0.90750   0.35720   0.01267  Uiso   1.00
H4     H     0.26470   0.09250   0.64280   0.01267  Uiso   1.00
H5     H     0.99420   0.99420   0.17780   0.01267  Uiso   1.00
H6     H     0.24430   0.32260   0.28460   0.01267  Uiso   1.00
H7     H     0.09250   0.09250   0.64280   0.01267  Uiso   1.00
H8     H     0.26470   0.26470   0.64280   0.01267  Uiso   1.00
H9     H     0.13750   0.70150   0.16100   0.01267  Uiso   1.00
H10    H     0.67740   0.52890   0.71540   0.01267  Uiso   1.00
H11    H     0.14980   0.22780   0.47120   0.01267  Uiso   1.00
H12    H     0.92660   0.29760   0.00000   0.01267  Uiso   1.00
H13    H     0.32260   0.24430   0.28460   0.01267  Uiso   1.00
H14    H     0.60720   0.52890   0.71540   0.01267  Uiso   1.00
H15    H     0.07340   0.29760   0.00000   0.01267  Uiso   1.00
H16    H     0.39910   0.39910   0.83580   0.01267  Uiso   1.00
H17    H     0.62100   0.77220   0.52880   0.01267  Uiso   1.00
H18    H     0.30100   0.37900   0.47120   0.01267  Uiso   1.00
H19    H     0.22780   0.37900   0.47120   0.01267  Uiso   1.00
H20    H     0.17200   0.17200   0.82220   0.01267  Uiso   1.00
H21    H     0.24430   0.39280   0.28460   0.01267  Uiso   1.00
H22    H     0.62100   0.69900   0.52880   0.01267  Uiso   1.00
H23    H     0.76510   0.76510   0.83580   0.01267  Uiso   1.00
H24    H     0.75570   0.60720   0.71540   0.01267  Uiso   1.00
H25    H     0.29760   0.07340   0.00000   0.01267  Uiso   1.00
H26    H     0.70240   0.92660   0.00000   0.01267  Uiso   1.00
H27    H     0.73530   0.90750   0.35720   0.01267  Uiso   1.00
H28    H     0.39280   0.24430   0.28460   0.01267  Uiso   1.00
H29    H     0.82800   0.82800   0.17780   0.01267  Uiso   1.00
H30    H     0.60720   0.75570   0.71540   0.01267  Uiso   1.00
H31    H     0.30100   0.14980   0.47120   0.01267  Uiso   1.00
H32    H     0.90750   0.73530   0.35720   0.01267  Uiso   1.00
H33    H     0.60090   0.23490   0.16420   0.01267  Uiso   1.00
H34    H     0.77220   0.62100   0.52880   0.01267  Uiso   1.00
H35    H     0.23490   0.60090   0.16420   0.01267  Uiso   1.00
H36    H     0.29760   0.92660  -0.00000   0.01267  Uiso   1.00
H37    H     0.39280   0.47110   0.28460   0.01267  Uiso   1.00
H38    H     0.37900   0.22780   0.47120   0.01267  Uiso   1.00
H39    H     0.47110   0.32260   0.28460   0.01267  Uiso   1.00
H40    H     0.69900   0.62100   0.52880   0.01267  Uiso   1.00
H41    H     0.37900   0.30100   0.47120   0.01267  Uiso   1.00
H42    H     0.07340   0.70240  -0.00000   0.01267  Uiso   1.00
H43    H     0.77220   0.85020   0.52880   0.01267  Uiso   1.00
H44    H     0.32260   0.47110   0.28460   0.01267  Uiso   1.00
H45    H     0.17200   0.00580   0.82220   0.01267  Uiso   1.00
H46    H     0.23490   0.23490   0.16420   0.01267  Uiso   1.00
H47    H     0.00580   0.17200   0.82220   0.01267  Uiso   1.00
H48    H     0.00580   0.00580   0.82220   0.01267  Uiso   1.00
H49    H     0.29850   0.86250   0.83900   0.01267  Uiso   1.00
H50    H     0.39910   0.76510   0.83580   0.01267  Uiso   1.00
H51    H     0.76510   0.39910   0.83580   0.01267  Uiso   1.00
H52    H     0.67740   0.75570   0.71540   0.01267  Uiso   1.00
H53    H     0.69900   0.85020   0.52880   0.01267  Uiso   1.00
H54    H     0.52890   0.60720   0.71540   0.01267  Uiso   1.00
H55    H     0.47110   0.39280   0.28460   0.01267  Uiso   1.00
H56    H     0.22780   0.14980   0.47120   0.01267  Uiso   1.00
H57    H     0.86250   0.29850   0.83900   0.01267  Uiso   1.00
H58    H     0.09250   0.26470   0.64280   0.01267  Uiso   1.00
H59    H     0.13750   0.13750   0.16100   0.01267  Uiso   1.00
H60    H     0.85020   0.77220   0.52880   0.01267  Uiso   1.00
H61    H     0.75570   0.67740   0.71540   0.01267  Uiso   1.00
H62    H     0.70240   0.07340   0.00000   0.01267  Uiso   1.00
H63    H     0.29850   0.29850   0.83900   0.01267  Uiso   1.00
H64    H     0.92660   0.70240   0.00000   0.01267  Uiso   1.00
H65    H     0.86250   0.86250   0.83900   0.01267  Uiso   1.00
H66    H     0.70150   0.70150   0.16100   0.01267  Uiso   1.00
H67    H     0.82800   0.99420   0.17780   0.01267  Uiso   1.00
H68    H     0.60090   0.60090   0.16420   0.01267  Uiso   1.00
H69    H     0.99420   0.82800   0.17780   0.01267  Uiso   1.00
H70    H     0.85020   0.69900   0.52880   0.01267  Uiso   1.00
H71    H     0.14980   0.30100   0.47120   0.01267  Uiso   1.00
H72    H     0.73530   0.73530   0.35720   0.01267  Uiso   1.00
C1     C     0.14462   0.14462  -0.00000   0.01267  Uiso   1.00
C2     C     0.21610   0.30410   0.43420   0.01267  Uiso   1.00
C3     C     0.67320   0.32680   0.00000   0.01267  Uiso   1.00
C4     C     0.83092   0.06499   0.00000   0.01267  Uiso   1.00
C5     C     0.11127   0.11127   0.67740   0.01267  Uiso   1.00
C6     C     0.75140   0.34568   0.90292   0.01267  Uiso   1.00
C7     C     0.96058   0.74844  -0.00000   0.01267  Uiso   1.00
C8     C     0.69590   0.65030   0.56580   0.01267  Uiso   1.00
C9     C     0.72800   0.68240   0.67640   0.01267  Uiso   1.00
C10    C     0.67320   0.67320  -0.00000   0.01267  Uiso   1.00
C11    C     0.21133   0.21133   0.67740   0.01267  Uiso   1.00
C12    C     0.25156   0.03942  -0.00000   0.01267  Uiso   1.00
C13    C     0.16908   0.06499  -0.00000   0.01267  Uiso   1.00
C14    C     0.25311   0.25311   0.49378   0.01267  Uiso   1.00
C15    C     0.40440   0.31760   0.32360   0.01267  Uiso   1.00
C16    C     0.64120   0.72800   0.67640   0.01267  Uiso   1.00
C17    C     0.19110   0.71416   0.09474   0.01267  Uiso   1.00
C18    C     0.19400   0.19400   0.61200   0.01267  Uiso   1.00
C19    C     0.27200   0.31760   0.32360   0.01267  Uiso   1.00
C20    C     0.79059   0.79059   0.00000   0.01267  Uiso   1.00
C21    C     0.80890   0.80890   0.90526   0.01267  Uiso   1.00
C22    C     0.32680   0.32680  -0.00000   0.01267  Uiso   1.00
C23    C     0.79059   0.20941   0.00000   0.01267  Uiso   1.00
C24    C     0.38980   0.61020   0.00000   0.01267  Uiso   1.00
C25    C     0.73830   0.65030   0.56580   0.01267  Uiso   1.00
C26    C     0.93992   0.93992   0.21652   0.01267  Uiso   1.00
C27    C     0.14462   0.85538  -0.00000   0.01267  Uiso   1.00
C28    C     0.61020   0.38980   0.00000   0.01267  Uiso   1.00
C29    C     0.80890   0.28584   0.90526   0.01267  Uiso   1.00
C30    C     0.68240   0.72800   0.67640   0.01267  Uiso   1.00
C31    C     0.28584   0.80890   0.90526   0.01267  Uiso   1.00
C32    C     0.20941   0.79059  -0.00000   0.01267  Uiso   1.00
C33    C     0.31760   0.27200   0.32360   0.01267  Uiso   1.00
C34    C     0.34568   0.75140   0.90292   0.01267  Uiso   1.00
C35    C     0.65030   0.73830   0.56580   0.01267  Uiso   1.00
C36    C     0.21133   0.11127   0.67740   0.01267  Uiso   1.00
C37    C     0.34568   0.34568   0.90292   0.01267  Uiso   1.00
C38    C     0.88873   0.78867   0.32260   0.01267  Uiso   1.00
C39    C     0.32680   0.67320  -0.00000   0.01267  Uiso   1.00
C40    C     0.69590   0.78390   0.56580   0.01267  Uiso   1.00
C41    C     0.75140   0.75140   0.90292   0.01267  Uiso   1.00
C42    C     0.93501   0.83092  -0.00000   0.01267  Uiso   1.00
C43    C     0.06008   0.06008   0.78348   0.01267  Uiso   1.00
C44    C     0.11127   0.21133   0.67740   0.01267  Uiso   1.00
C45    C     0.26170   0.34970   0.43420   0.01267  Uiso   1.00
C46    C     0.59560   0.64120   0.67640   0.01267  Uiso   1.00
C47    C     0.30410   0.21610   0.43420   0.01267  Uiso   1.00
C48    C     0.35880   0.40440   0.32360   0.01267  Uiso   1.00
C49    C     0.74844   0.96058  -0.00000   0.01267  Uiso   1.00
C50    C     0.78867   0.78867   0.32260   0.01267  Uiso   1.00
C51    C     0.93501   0.16908   0.00000   0.01267  Uiso   1.00
C52    C     0.27200   0.35880   0.32360   0.01267  Uiso   1.00
C53    C     0.85538   0.85538  -0.00000   0.01267  Uiso   1.00
C54    C     0.35880   0.27200   0.32360   0.01267  Uiso   1.00
C55    C     0.28584   0.28584   0.90526   0.01267  Uiso   1.00
C56    C     0.88873   0.88873   0.32260   0.01267  Uiso   1.00
C57    C     0.65432   0.24860   0.09708   0.01267  Uiso   1.00
C58    C     0.31760   0.40440   0.32360   0.01267  Uiso   1.00
C59    C     0.71416   0.71416   0.09474   0.01267  Uiso   1.00
C60    C     0.19110   0.19110   0.09474   0.01267  Uiso   1.00
C61    C     0.80600   0.80600   0.38800   0.01267  Uiso   1.00
C62    C     0.03942   0.74844   0.00000   0.01267  Uiso   1.00
C63    C     0.78390   0.73830   0.56580   0.01267  Uiso   1.00
C64    C     0.26170   0.21610   0.43420   0.01267  Uiso   1.00
C65    C     0.71416   0.19110   0.09474   0.01267  Uiso   1.00
C66    C     0.84356   0.84356   0.21652   0.01267  Uiso   1.00
C67    C     0.78390   0.69590   0.56580   0.01267  Uiso   1.00
C68    C     0.61020   0.61020   0.00000   0.01267  Uiso   1.00
C69    C     0.24860   0.65432   0.09708   0.01267  Uiso   1.00
C70    C     0.96058   0.25156   0.00000   0.01267  Uiso   1.00
C71    C     0.84356   0.93992   0.21652   0.01267  Uiso   1.00
C72    C     0.65432   0.65432   0.09708   0.01267  Uiso   1.00
C73    C     0.06499   0.16908   0.00000   0.01267  Uiso   1.00
C74    C     0.21610   0.26170   0.43420   0.01267  Uiso   1.00
C75    C     0.24860   0.24860   0.09708   0.01267  Uiso   1.00
C76    C     0.93992   0.84356   0.21652   0.01267  Uiso   1.00
C77    C     0.83092   0.93501   0.00000   0.01267  Uiso   1.00
C78    C     0.38980   0.38980   0.00000   0.01267  Uiso   1.00
C79    C     0.34970   0.26170   0.43420   0.01267  Uiso   1.00
C80    C     0.15644   0.15644   0.78348   0.01267  Uiso   1.00
C81    C     0.30410   0.34970   0.43420   0.01267  Uiso   1.00
C82    C     0.78867   0.88873   0.32260   0.01267  Uiso   1.00
C83    C     0.34970   0.30410   0.43420   0.01267  Uiso   1.00
C84    C     0.40440   0.35880   0.32360   0.01267  Uiso   1.00
C85    C     0.74689   0.74689   0.50622   0.01267  Uiso   1.00
C86    C     0.25156   0.96058   0.00000   0.01267  Uiso   1.00
C87    C     0.85538   0.14462   0.00000   0.01267  Uiso   1.00
C88    C     0.06008   0.15644   0.78348   0.01267  Uiso   1.00
C89    C     0.74844   0.03942   0.00000   0.01267  Uiso   1.00
C90    C     0.03942   0.25156  -0.00000   0.01267  Uiso   1.00
C91    C     0.64120   0.59560   0.67640   0.01267  Uiso   1.00
C92    C     0.20941   0.20941   0.00000   0.01267  Uiso   1.00
C93    C     0.59560   0.68240   0.67640   0.01267  Uiso   1.00
C94    C     0.73830   0.78390   0.56580   0.01267  Uiso   1.00
C95    C     0.15644   0.06008   0.78348   0.01267  Uiso   1.00
C96    C     0.16908   0.93501  -0.00000   0.01267  Uiso   1.00
C97    C     0.68240   0.59560   0.67640   0.01267  Uiso   1.00
C98    C     0.72800   0.64120   0.67640   0.01267  Uiso   1.00
C99    C     0.06499   0.83092  -0.00000   0.01267  Uiso   1.00
C100   C     0.65030   0.69590   0.56580   0.01267  Uiso   1.00
N1     N    -0.00000   0.88148  -0.00000   0.01267  Uiso   1.00
N2     N     0.88148   0.00000   0.00000   0.01267  Uiso   1.00
N3     N     0.63521   0.63521   0.72958   0.01267  Uiso   1.00
N4     N     0.36479   0.36479   0.27042   0.01267  Uiso   1.00
N5     N     0.00000   0.11852  -0.00000   0.01267  Uiso   1.00
N6     N     0.08026   0.08026   0.83948   0.01267  Uiso   1.00
N7     N     0.11852   0.00000   0.00000   0.01267  Uiso   1.00
N8     N     0.91974   0.91974   0.16052   0.01267  Uiso   1.00
O1     O     0.54059   0.36945   0.08996   0.01267  Uiso   1.00
O2     O     0.63055   0.63055   0.91004   0.01267  Uiso   1.00
O3     O     0.45941   0.45941   0.91004   0.01267  Uiso   1.00
O4     O     0.54059   0.54059   0.08996   0.01267  Uiso   1.00
O5     O     0.45941   0.63055   0.91004   0.01267  Uiso   1.00
O6     O     0.63055   0.45941   0.91004   0.01267  Uiso   1.00
O7     O     0.36945   0.54059   0.08996   0.01267  Uiso   1.00
O8     O     0.36945   0.36945   0.08996   0.01267  Uiso   1.00
