data_image0
_cell_length_a       7.2231
_cell_length_b       24.777
_cell_length_c       20.3178
_cell_angle_alpha    90
_cell_angle_beta     90
_cell_angle_gamma    90

_symmetry_space_group_name_H-M    "P 1"
_symmetry_int_tables_number       1

loop_
  _symmetry_equiv_pos_as_xyz
  'x, y, z'

loop_
  _atom_site_label
  _atom_site_occupancy
  _atom_site_fract_x
  _atom_site_fract_y
  _atom_site_fract_z
  _atom_site_thermal_displace_type
  _atom_site_B_iso_or_equiv
  _atom_site_type_symbol
  Eu1      1.0000 0.76500  0.96222  0.01426  Biso   1.000  Eu
  Zn1      1.0000 0.21980  0.90097  0.07597  Biso   1.000  Zn
  O1       1.0000 0.10860  0.94915  0.01075  Biso   1.000  O
  H1       1.0000 0.11110  0.93310  0.97380  Biso   1.000  H
  O2       1.0000 0.34270  0.94242  0.14422  Biso   1.000  O
  O3       1.0000 0.05110  0.85071  0.11659  Biso   1.000  O
  O4       1.0000 0.78630  0.88822  0.08602  Biso   1.000  O
  C1       1.0000 0.78220  0.79826  0.12664  Biso   1.000  C
  C2       1.0000 0.87860  0.84996  0.10881  Biso   1.000  C
  C3       1.0000 0.60300  0.79806  0.15147  Biso   1.000  C
  H2       1.0000 0.54220  0.83060  0.15860  Biso   1.000  H
  H3       1.0000 0.24300  0.72750  0.17050  Biso   1.000  H
  H4       1.0000 0.27650  0.78620  0.19700  Biso   1.000  H
  H5       1.0000 0.33130  0.73630  0.24020  Biso   1.000  H
  O5       1.0000 0.34820  0.84628  0.02540  Biso   1.000  O
  C4       1.0000 0.49520  0.85012  0.99300  Biso   1.000  C
  C5       1.0000 0.58250  0.79851  0.97204  Biso   1.000  C
  O6       1.0000 0.57050  0.89390  0.97744  Biso   1.000  O
  C6       1.0000 0.43830  0.98263  0.12872  Biso   1.000  C
  O7       1.0000 0.48481  0.99284  0.06901  Biso   1.000  O
  C7       1.0000 0.49520  0.02012  0.18216  Biso   1.000  C
  C8       1.0000 0.47450  0.00559  0.24749  Biso   1.000  C
  H6       1.0000 0.42590  0.97210  0.25870  Biso   1.000  H
  C9       1.0000 0.55730  0.07163  0.16601  Biso   1.000  C
  H7       1.0000 0.56770  0.08130  0.12190  Biso   1.000  H
  C10      1.0000 0.74920  0.79797  0.93893  Biso   1.000  C
  H8       1.0000 0.80390  0.83050  0.92690  Biso   1.000  H
  C11      1.0000 0.52790  0.04207  0.29626  Biso   1.000  C
  C12      1.0000 0.60390  0.10871  0.21420  Biso   1.000  C
  C13      1.0000 0.59350  0.09263  0.27897  Biso   1.000  C
  H9       1.0000 0.63130  0.11630  0.31190  Biso   1.000  H
  C14      1.0000 0.66170  0.16504  0.19615  Biso   1.000  C
  H10      1.0000 0.55620  0.18850  0.19800  Biso   1.000  H
  H11      1.0000 0.75420  0.17740  0.22650  Biso   1.000  H
  H12      1.0000 0.71160  0.16520  0.15240  Biso   1.000  H
  C15      1.0000 0.51370  0.02780  0.36752  Biso   1.000  C
  O8       1.0000 0.62766  0.05036  0.40586  Biso   1.000  O
  O9       1.0000 0.39090  0.99549  0.38555  Biso   1.000  O
  H13      1.0000 0.10820  0.72920  0.91630  Biso   1.000  H
  H14      1.0000 0.06690  0.78640  0.88670  Biso   1.000  H
  H15      1.0000 0.01210  0.73440  0.84740  Biso   1.000  H
  H16      1.0000 0.09470  0.73030  0.87570  Biso   1.000  H
  H17      1.0000 0.02000  0.78650  0.85230  Biso   1.000  H
  H18      1.0000 0.93200  0.73330  0.82480  Biso   1.000  H
  H19      1.0000 0.12330  0.73300  0.94980  Biso   1.000  H
  H20      1.0000 0.10830  0.78650  0.90900  Biso   1.000  H
  H21      1.0000 0.09530  0.73050  0.87340  Biso   1.000  H
  Eu2      1.0000 0.73500  0.03778  0.51426  Biso   1.000  Eu
  Zn2      1.0000 0.28020  0.09903  0.57597  Biso   1.000  Zn
  O10      1.0000 0.39140  0.05085  0.51075  Biso   1.000  O
  H22      1.0000 0.38890  0.06690  0.47380  Biso   1.000  H
  O11      1.0000 0.15730  0.05758  0.64422  Biso   1.000  O
  O12      1.0000 0.44890  0.14929  0.61659  Biso   1.000  O
  O13      1.0000 0.71370  0.11178  0.58602  Biso   1.000  O
  C16      1.0000 0.71780  0.20174  0.62664  Biso   1.000  C
  C17      1.0000 0.62140  0.15004  0.60881  Biso   1.000  C
  C18      1.0000 0.89700  0.20194  0.65147  Biso   1.000  C
  H23      1.0000 0.95780  0.16940  0.65860  Biso   1.000  H
  H24      1.0000 0.25700  0.27250  0.67050  Biso   1.000  H
  H25      1.0000 0.22350  0.21380  0.69700  Biso   1.000  H
  H26      1.0000 0.16870  0.26370  0.74020  Biso   1.000  H
  O14      1.0000 0.15180  0.15372  0.52540  Biso   1.000  O
  C19      1.0000 0.00480  0.14988  0.49300  Biso   1.000  C
  C20      1.0000 0.91750  0.20149  0.47204  Biso   1.000  C
  O15      1.0000 0.92950  0.10610  0.47744  Biso   1.000  O
  C21      1.0000 0.06170  0.01737  0.62872  Biso   1.000  C
  O16      1.0000 0.01519  0.00716  0.56901  Biso   1.000  O
  C22      1.0000 0.00480  0.97988  0.68216  Biso   1.000  C
  C23      1.0000 0.02550  0.99441  0.74749  Biso   1.000  C
  H27      1.0000 0.07410  0.02790  0.75870  Biso   1.000  H
  C24      1.0000 0.94270  0.92837  0.66601  Biso   1.000  C
  H28      1.0000 0.93230  0.91870  0.62190  Biso   1.000  H
  C25      1.0000 0.75080  0.20203  0.43893  Biso   1.000  C
  H29      1.0000 0.69610  0.16950  0.42690  Biso   1.000  H
  C26      1.0000 0.97210  0.95793  0.79626  Biso   1.000  C
  C27      1.0000 0.89610  0.89129  0.71420  Biso   1.000  C
  C28      1.0000 0.90650  0.90737  0.77897  Biso   1.000  C
  H30      1.0000 0.86870  0.88370  0.81190  Biso   1.000  H
  C29      1.0000 0.83830  0.83496  0.69615  Biso   1.000  C
  H31      1.0000 0.94380  0.81150  0.69800  Biso   1.000  H
  H32      1.0000 0.74580  0.82260  0.72650  Biso   1.000  H
  H33      1.0000 0.78840  0.83480  0.65240  Biso   1.000  H
  C30      1.0000 0.98630  0.97220  0.86752  Biso   1.000  C
  O17      1.0000 0.87234  0.94964  0.90586  Biso   1.000  O
  O18      1.0000 0.10910  0.00451  0.88555  Biso   1.000  O
  H34      1.0000 0.39180  0.27080  0.41630  Biso   1.000  H
  H35      1.0000 0.43310  0.21360  0.38670  Biso   1.000  H
  H36      1.0000 0.48790  0.26560  0.34740  Biso   1.000  H
  H37      1.0000 0.40530  0.26970  0.37570  Biso   1.000  H
  H38      1.0000 0.48000  0.21350  0.35230  Biso   1.000  H
  H39      1.0000 0.56800  0.26670  0.32480  Biso   1.000  H
  H40      1.0000 0.37670  0.26700  0.44980  Biso   1.000  H
  H41      1.0000 0.39170  0.21350  0.40900  Biso   1.000  H
  H42      1.0000 0.40470  0.26950  0.37340  Biso   1.000  H
  Eu3      1.0000 0.23500  0.46222  0.98574  Biso   1.000  Eu
  Zn3      1.0000 0.78020  0.40097  0.92403  Biso   1.000  Zn
  O19      1.0000 0.89140  0.44915  0.98925  Biso   1.000  O
  H43      1.0000 0.88890  0.43310  0.02620  Biso   1.000  H
  O20      1.0000 0.65730  0.44242  0.85578  Biso   1.000  O
  O21      1.0000 0.94890  0.35071  0.88341  Biso   1.000  O
  O22      1.0000 0.21370  0.38822  0.91398  Biso   1.000  O
  C31      1.0000 0.21780  0.29826  0.87336  Biso   1.000  C
  C32      1.0000 0.12140  0.34996  0.89119  Biso   1.000  C
  C33      1.0000 0.39700  0.29806  0.84853  Biso   1.000  C
  H44      1.0000 0.45780  0.33060  0.84140  Biso   1.000  H
  H45      1.0000 0.75700  0.22750  0.82950  Biso   1.000  H
  H46      1.0000 0.72350  0.28620  0.80300  Biso   1.000  H
  H47      1.0000 0.66870  0.23630  0.75980  Biso   1.000  H
  O23      1.0000 0.65180  0.34628  0.97460  Biso   1.000  O
  C34      1.0000 0.50480  0.35012  0.00700  Biso   1.000  C
  C35      1.0000 0.41750  0.29851  0.02796  Biso   1.000  C
  O24      1.0000 0.42950  0.39390  0.02256  Biso   1.000  O
  C36      1.0000 0.56170  0.48263  0.87128  Biso   1.000  C
  O25      1.0000 0.51519  0.49284  0.93099  Biso   1.000  O
  C37      1.0000 0.50480  0.52012  0.81784  Biso   1.000  C
  C38      1.0000 0.52550  0.50559  0.75251  Biso   1.000  C
  H48      1.0000 0.57410  0.47210  0.74130  Biso   1.000  H
  C39      1.0000 0.44270  0.57163  0.83399  Biso   1.000  C
  H49      1.0000 0.43230  0.58130  0.87810  Biso   1.000  H
  C40      1.0000 0.25080  0.29797  0.06107  Biso   1.000  C
  H50      1.0000 0.19610  0.33050  0.07310  Biso   1.000  H
  C41      1.0000 0.47210  0.54207  0.70374  Biso   1.000  C
  C42      1.0000 0.39610  0.60871  0.78580  Biso   1.000  C
  C43      1.0000 0.40650  0.59263  0.72103  Biso   1.000  C
  H51      1.0000 0.36870  0.61630  0.68810  Biso   1.000  H
  C44      1.0000 0.33830  0.66504  0.80385  Biso   1.000  C
  H52      1.0000 0.44380  0.68850  0.80200  Biso   1.000  H
  H53      1.0000 0.24580  0.67740  0.77350  Biso   1.000  H
  H54      1.0000 0.28840  0.66520  0.84760  Biso   1.000  H
  C45      1.0000 0.48630  0.52780  0.63248  Biso   1.000  C
  O26      1.0000 0.37234  0.55036  0.59414  Biso   1.000  O
  O27      1.0000 0.60910  0.49549  0.61445  Biso   1.000  O
  H55      1.0000 0.89180  0.22920  0.08370  Biso   1.000  H
  H56      1.0000 0.93310  0.28640  0.11330  Biso   1.000  H
  H57      1.0000 0.98790  0.23440  0.15260  Biso   1.000  H
  H58      1.0000 0.90530  0.23030  0.12430  Biso   1.000  H
  H59      1.0000 0.98000  0.28650  0.14770  Biso   1.000  H
  H60      1.0000 0.06800  0.23330  0.17520  Biso   1.000  H
  H61      1.0000 0.87670  0.23300  0.05020  Biso   1.000  H
  H62      1.0000 0.89170  0.28650  0.09100  Biso   1.000  H
  H63      1.0000 0.90470  0.23050  0.12660  Biso   1.000  H
  Eu4      1.0000 0.26500  0.53778  0.48574  Biso   1.000  Eu
  Zn4      1.0000 0.71980  0.59903  0.42403  Biso   1.000  Zn
  O28      1.0000 0.60860  0.55085  0.48925  Biso   1.000  O
  H64      1.0000 0.61110  0.56690  0.52620  Biso   1.000  H
  O29      1.0000 0.84270  0.55758  0.35578  Biso   1.000  O
  O30      1.0000 0.55110  0.64929  0.38341  Biso   1.000  O
  O31      1.0000 0.28630  0.61178  0.41398  Biso   1.000  O
  C46      1.0000 0.28220  0.70174  0.37336  Biso   1.000  C
  C47      1.0000 0.37860  0.65004  0.39119  Biso   1.000  C
  C48      1.0000 0.10300  0.70194  0.34853  Biso   1.000  C
  H65      1.0000 0.04220  0.66940  0.34140  Biso   1.000  H
  H66      1.0000 0.74300  0.77250  0.32950  Biso   1.000  H
  H67      1.0000 0.77650  0.71380  0.30300  Biso   1.000  H
  H68      1.0000 0.83130  0.76370  0.25980  Biso   1.000  H
  O32      1.0000 0.84820  0.65372  0.47460  Biso   1.000  O
  C49      1.0000 0.99520  0.64988  0.50700  Biso   1.000  C
  C50      1.0000 0.08250  0.70149  0.52796  Biso   1.000  C
  O33      1.0000 0.07050  0.60610  0.52256  Biso   1.000  O
  C51      1.0000 0.93830  0.51737  0.37128  Biso   1.000  C
  O34      1.0000 0.98481  0.50716  0.43099  Biso   1.000  O
  C52      1.0000 0.99520  0.47988  0.31784  Biso   1.000  C
  C53      1.0000 0.97450  0.49441  0.25251  Biso   1.000  C
  H69      1.0000 0.92590  0.52790  0.24130  Biso   1.000  H
  C54      1.0000 0.05730  0.42837  0.33399  Biso   1.000  C
  H70      1.0000 0.06770  0.41870  0.37810  Biso   1.000  H
  C55      1.0000 0.24920  0.70203  0.56107  Biso   1.000  C
  H71      1.0000 0.30390  0.66950  0.57310  Biso   1.000  H
  C56      1.0000 0.02790  0.45793  0.20374  Biso   1.000  C
  C57      1.0000 0.10390  0.39129  0.28580  Biso   1.000  C
  C58      1.0000 0.09350  0.40737  0.22103  Biso   1.000  C
  H72      1.0000 0.13130  0.38370  0.18810  Biso   1.000  H
  C59      1.0000 0.16170  0.33496  0.30385  Biso   1.000  C
  H73      1.0000 0.05620  0.31150  0.30200  Biso   1.000  H
  H74      1.0000 0.25420  0.32260  0.27350  Biso   1.000  H
  H75      1.0000 0.21160  0.33480  0.34760  Biso   1.000  H
  C60      1.0000 0.01370  0.47220  0.13248  Biso   1.000  C
  O35      1.0000 0.12766  0.44964  0.09414  Biso   1.000  O
  O36      1.0000 0.89090  0.50451  0.11445  Biso   1.000  O
  H76      1.0000 0.60820  0.77080  0.58370  Biso   1.000  H
  H77      1.0000 0.56690  0.71360  0.61330  Biso   1.000  H
  H78      1.0000 0.51210  0.76560  0.65260  Biso   1.000  H
  H79      1.0000 0.59470  0.76970  0.62430  Biso   1.000  H
  H80      1.0000 0.52000  0.71350  0.64770  Biso   1.000  H
  H81      1.0000 0.43200  0.76670  0.67520  Biso   1.000  H
  H82      1.0000 0.62330  0.76700  0.55020  Biso   1.000  H
  H83      1.0000 0.60830  0.71350  0.59100  Biso   1.000  H
  H84      1.0000 0.59530  0.76950  0.62660  Biso   1.000  H
  Eu5      1.0000 0.23500  0.03778  0.98574  Biso   1.000  Eu
  Zn5      1.0000 0.78020  0.09903  0.92403  Biso   1.000  Zn
  O37      1.0000 0.89140  0.05085  0.98925  Biso   1.000  O
  H85      1.0000 0.88890  0.06690  0.02620  Biso   1.000  H
  O38      1.0000 0.65730  0.05758  0.85578  Biso   1.000  O
  O39      1.0000 0.94890  0.14929  0.88341  Biso   1.000  O
  O40      1.0000 0.21370  0.11178  0.91398  Biso   1.000  O
  C61      1.0000 0.21780  0.20174  0.87336  Biso   1.000  C
  C62      1.0000 0.12140  0.15004  0.89119  Biso   1.000  C
  C63      1.0000 0.39700  0.20194  0.84853  Biso   1.000  C
  H86      1.0000 0.45780  0.16940  0.84140  Biso   1.000  H
  H87      1.0000 0.75700  0.27250  0.82950  Biso   1.000  H
  H88      1.0000 0.72350  0.21380  0.80300  Biso   1.000  H
  H89      1.0000 0.66870  0.26370  0.75980  Biso   1.000  H
  O41      1.0000 0.65180  0.15372  0.97460  Biso   1.000  O
  C64      1.0000 0.50480  0.14988  0.00700  Biso   1.000  C
  C65      1.0000 0.41750  0.20149  0.02796  Biso   1.000  C
  O42      1.0000 0.42950  0.10610  0.02256  Biso   1.000  O
  C66      1.0000 0.56170  0.01737  0.87128  Biso   1.000  C
  O43      1.0000 0.51519  0.00716  0.93099  Biso   1.000  O
  C67      1.0000 0.50480  0.97988  0.81784  Biso   1.000  C
  C68      1.0000 0.52550  0.99441  0.75251  Biso   1.000  C
  H90      1.0000 0.57410  0.02790  0.74130  Biso   1.000  H
  C69      1.0000 0.44270  0.92837  0.83399  Biso   1.000  C
  H91      1.0000 0.43230  0.91870  0.87810  Biso   1.000  H
  C70      1.0000 0.25080  0.20203  0.06107  Biso   1.000  C
  H92      1.0000 0.19610  0.16950  0.07310  Biso   1.000  H
  C71      1.0000 0.47210  0.95793  0.70374  Biso   1.000  C
  C72      1.0000 0.39610  0.89129  0.78580  Biso   1.000  C
  C73      1.0000 0.40650  0.90737  0.72103  Biso   1.000  C
  H93      1.0000 0.36870  0.88370  0.68810  Biso   1.000  H
  C74      1.0000 0.33830  0.83496  0.80385  Biso   1.000  C
  H94      1.0000 0.44380  0.81150  0.80200  Biso   1.000  H
  H95      1.0000 0.24580  0.82260  0.77350  Biso   1.000  H
  H96      1.0000 0.28840  0.83480  0.84760  Biso   1.000  H
  C75      1.0000 0.48630  0.97220  0.63248  Biso   1.000  C
  O44      1.0000 0.37234  0.94964  0.59414  Biso   1.000  O
  O45      1.0000 0.60910  0.00451  0.61445  Biso   1.000  O
  H97      1.0000 0.89180  0.27080  0.08370  Biso   1.000  H
  H98      1.0000 0.93310  0.21360  0.11330  Biso   1.000  H
  H99      1.0000 0.98790  0.26560  0.15260  Biso   1.000  H
  H100     1.0000 0.90530  0.26970  0.12430  Biso   1.000  H
  H101     1.0000 0.98000  0.21350  0.14770  Biso   1.000  H
  H102     1.0000 0.06800  0.26670  0.17520  Biso   1.000  H
  H103     1.0000 0.87670  0.26700  0.05020  Biso   1.000  H
  H104     1.0000 0.89170  0.21350  0.09100  Biso   1.000  H
  H105     1.0000 0.90470  0.26950  0.12660  Biso   1.000  H
  Eu6      1.0000 0.26500  0.96222  0.48574  Biso   1.000  Eu
  Zn6      1.0000 0.71980  0.90097  0.42403  Biso   1.000  Zn
  O46      1.0000 0.60860  0.94915  0.48925  Biso   1.000  O
  H106     1.0000 0.61110  0.93310  0.52620  Biso   1.000  H
  O47      1.0000 0.84270  0.94242  0.35578  Biso   1.000  O
  O48      1.0000 0.55110  0.85071  0.38341  Biso   1.000  O
  O49      1.0000 0.28630  0.88822  0.41398  Biso   1.000  O
  C76      1.0000 0.28220  0.79826  0.37336  Biso   1.000  C
  C77      1.0000 0.37860  0.84996  0.39119  Biso   1.000  C
  C78      1.0000 0.10300  0.79806  0.34853  Biso   1.000  C
  H107     1.0000 0.04220  0.83060  0.34140  Biso   1.000  H
  H108     1.0000 0.74300  0.72750  0.32950  Biso   1.000  H
  H109     1.0000 0.77650  0.78620  0.30300  Biso   1.000  H
  H110     1.0000 0.83130  0.73630  0.25980  Biso   1.000  H
  O50      1.0000 0.84820  0.84628  0.47460  Biso   1.000  O
  C79      1.0000 0.99520  0.85012  0.50700  Biso   1.000  C
  C80      1.0000 0.08250  0.79851  0.52796  Biso   1.000  C
  O51      1.0000 0.07050  0.89390  0.52256  Biso   1.000  O
  C81      1.0000 0.93830  0.98263  0.37128  Biso   1.000  C
  O52      1.0000 0.98481  0.99284  0.43099  Biso   1.000  O
  C82      1.0000 0.99520  0.02012  0.31784  Biso   1.000  C
  C83      1.0000 0.97450  0.00559  0.25251  Biso   1.000  C
  H111     1.0000 0.92590  0.97210  0.24130  Biso   1.000  H
  C84      1.0000 0.05730  0.07163  0.33399  Biso   1.000  C
  H112     1.0000 0.06770  0.08130  0.37810  Biso   1.000  H
  C85      1.0000 0.24920  0.79797  0.56107  Biso   1.000  C
  H113     1.0000 0.30390  0.83050  0.57310  Biso   1.000  H
  C86      1.0000 0.02790  0.04207  0.20374  Biso   1.000  C
  C87      1.0000 0.10390  0.10871  0.28580  Biso   1.000  C
  C88      1.0000 0.09350  0.09263  0.22103  Biso   1.000  C
  H114     1.0000 0.13130  0.11630  0.18810  Biso   1.000  H
  C89      1.0000 0.16170  0.16504  0.30385  Biso   1.000  C
  H115     1.0000 0.05620  0.18850  0.30200  Biso   1.000  H
  H116     1.0000 0.25420  0.17740  0.27350  Biso   1.000  H
  H117     1.0000 0.21160  0.16520  0.34760  Biso   1.000  H
  C90      1.0000 0.01370  0.02780  0.13248  Biso   1.000  C
  O53      1.0000 0.12766  0.05036  0.09414  Biso   1.000  O
  O54      1.0000 0.89090  0.99549  0.11445  Biso   1.000  O
  H118     1.0000 0.60820  0.72920  0.58370  Biso   1.000  H
  H119     1.0000 0.56690  0.78640  0.61330  Biso   1.000  H
  H120     1.0000 0.51210  0.73440  0.65260  Biso   1.000  H
  H121     1.0000 0.59470  0.73030  0.62430  Biso   1.000  H
  H122     1.0000 0.52000  0.78650  0.64770  Biso   1.000  H
  H123     1.0000 0.43200  0.73330  0.67520  Biso   1.000  H
  H124     1.0000 0.62330  0.73300  0.55020  Biso   1.000  H
  H125     1.0000 0.60830  0.78650  0.59100  Biso   1.000  H
  H126     1.0000 0.59530  0.73050  0.62660  Biso   1.000  H
  Eu7      1.0000 0.76500  0.53778  0.01426  Biso   1.000  Eu
  Zn7      1.0000 0.21980  0.59903  0.07597  Biso   1.000  Zn
  O55      1.0000 0.10860  0.55085  0.01075  Biso   1.000  O
  H127     1.0000 0.11110  0.56690  0.97380  Biso   1.000  H
  O56      1.0000 0.34270  0.55758  0.14422  Biso   1.000  O
  O57      1.0000 0.05110  0.64929  0.11659  Biso   1.000  O
  O58      1.0000 0.78630  0.61178  0.08602  Biso   1.000  O
  C91      1.0000 0.78220  0.70174  0.12664  Biso   1.000  C
  C92      1.0000 0.87860  0.65004  0.10881  Biso   1.000  C
  C93      1.0000 0.60300  0.70194  0.15147  Biso   1.000  C
  H128     1.0000 0.54220  0.66940  0.15860  Biso   1.000  H
  H129     1.0000 0.24300  0.77250  0.17050  Biso   1.000  H
  H130     1.0000 0.27650  0.71380  0.19700  Biso   1.000  H
  H131     1.0000 0.33130  0.76370  0.24020  Biso   1.000  H
  O59      1.0000 0.34820  0.65372  0.02540  Biso   1.000  O
  C94      1.0000 0.49520  0.64988  0.99300  Biso   1.000  C
  C95      1.0000 0.58250  0.70149  0.97204  Biso   1.000  C
  O60      1.0000 0.57050  0.60610  0.97744  Biso   1.000  O
  C96      1.0000 0.43830  0.51737  0.12872  Biso   1.000  C
  O61      1.0000 0.48481  0.50716  0.06901  Biso   1.000  O
  C97      1.0000 0.49520  0.47988  0.18216  Biso   1.000  C
  C98      1.0000 0.47450  0.49441  0.24749  Biso   1.000  C
  H132     1.0000 0.42590  0.52790  0.25870  Biso   1.000  H
  C99      1.0000 0.55730  0.42837  0.16601  Biso   1.000  C
  H133     1.0000 0.56770  0.41870  0.12190  Biso   1.000  H
  C100     1.0000 0.74920  0.70203  0.93893  Biso   1.000  C
  H134     1.0000 0.80390  0.66950  0.92690  Biso   1.000  H
  C101     1.0000 0.52790  0.45793  0.29626  Biso   1.000  C
  C102     1.0000 0.60390  0.39129  0.21420  Biso   1.000  C
  C103     1.0000 0.59350  0.40737  0.27897  Biso   1.000  C
  H135     1.0000 0.63130  0.38370  0.31190  Biso   1.000  H
  C104     1.0000 0.66170  0.33496  0.19615  Biso   1.000  C
  H136     1.0000 0.55620  0.31150  0.19800  Biso   1.000  H
  H137     1.0000 0.75420  0.32260  0.22650  Biso   1.000  H
  H138     1.0000 0.71160  0.33480  0.15240  Biso   1.000  H
  C105     1.0000 0.51370  0.47220  0.36752  Biso   1.000  C
  O62      1.0000 0.62766  0.44964  0.40586  Biso   1.000  O
  O63      1.0000 0.39090  0.50451  0.38555  Biso   1.000  O
  H139     1.0000 0.10820  0.77080  0.91630  Biso   1.000  H
  H140     1.0000 0.06690  0.71360  0.88670  Biso   1.000  H
  H141     1.0000 0.01210  0.76560  0.84740  Biso   1.000  H
  H142     1.0000 0.09470  0.76970  0.87570  Biso   1.000  H
  H143     1.0000 0.02000  0.71350  0.85230  Biso   1.000  H
  H144     1.0000 0.93200  0.76670  0.82480  Biso   1.000  H
  H145     1.0000 0.12330  0.76700  0.94980  Biso   1.000  H
  H146     1.0000 0.10830  0.71350  0.90900  Biso   1.000  H
  H147     1.0000 0.09530  0.76950  0.87340  Biso   1.000  H
  Eu8      1.0000 0.73500  0.46222  0.51426  Biso   1.000  Eu
  Zn8      1.0000 0.28020  0.40097  0.57597  Biso   1.000  Zn
  O64      1.0000 0.39140  0.44915  0.51075  Biso   1.000  O
  H148     1.0000 0.38890  0.43310  0.47380  Biso   1.000  H
  O65      1.0000 0.15730  0.44242  0.64422  Biso   1.000  O
  O66      1.0000 0.44890  0.35071  0.61659  Biso   1.000  O
  O67      1.0000 0.71370  0.38822  0.58602  Biso   1.000  O
  C106     1.0000 0.71780  0.29826  0.62664  Biso   1.000  C
  C107     1.0000 0.62140  0.34996  0.60881  Biso   1.000  C
  C108     1.0000 0.89700  0.29806  0.65147  Biso   1.000  C
  H149     1.0000 0.95780  0.33060  0.65860  Biso   1.000  H
  H150     1.0000 0.25700  0.22750  0.67050  Biso   1.000  H
  H151     1.0000 0.22350  0.28620  0.69700  Biso   1.000  H
  H152     1.0000 0.16870  0.23630  0.74020  Biso   1.000  H
  O68      1.0000 0.15180  0.34628  0.52540  Biso   1.000  O
  C109     1.0000 0.00480  0.35012  0.49300  Biso   1.000  C
  C110     1.0000 0.91750  0.29851  0.47204  Biso   1.000  C
  O69      1.0000 0.92950  0.39390  0.47744  Biso   1.000  O
  C111     1.0000 0.06170  0.48263  0.62872  Biso   1.000  C
  O70      1.0000 0.01519  0.49284  0.56901  Biso   1.000  O
  C112     1.0000 0.00480  0.52012  0.68216  Biso   1.000  C
  C113     1.0000 0.02550  0.50559  0.74749  Biso   1.000  C
  H153     1.0000 0.07410  0.47210  0.75870  Biso   1.000  H
  C114     1.0000 0.94270  0.57163  0.66601  Biso   1.000  C
  H154     1.0000 0.93230  0.58130  0.62190  Biso   1.000  H
  C115     1.0000 0.75080  0.29797  0.43893  Biso   1.000  C
  H155     1.0000 0.69610  0.33050  0.42690  Biso   1.000  H
  C116     1.0000 0.97210  0.54207  0.79626  Biso   1.000  C
  C117     1.0000 0.89610  0.60871  0.71420  Biso   1.000  C
  C118     1.0000 0.90650  0.59263  0.77897  Biso   1.000  C
  H156     1.0000 0.86870  0.61630  0.81190  Biso   1.000  H
  C119     1.0000 0.83830  0.66504  0.69615  Biso   1.000  C
  H157     1.0000 0.94380  0.68850  0.69800  Biso   1.000  H
  H158     1.0000 0.74580  0.67740  0.72650  Biso   1.000  H
  H159     1.0000 0.78840  0.66520  0.65240  Biso   1.000  H
  C120     1.0000 0.98630  0.52780  0.86752  Biso   1.000  C
  O71      1.0000 0.87234  0.55036  0.90586  Biso   1.000  O
  O72      1.0000 0.10910  0.49549  0.88555  Biso   1.000  O
  H160     1.0000 0.39180  0.22920  0.41630  Biso   1.000  H
  H161     1.0000 0.43310  0.28640  0.38670  Biso   1.000  H
  H162     1.0000 0.48790  0.23440  0.34740  Biso   1.000  H
  H163     1.0000 0.40530  0.23030  0.37570  Biso   1.000  H
  H164     1.0000 0.48000  0.28650  0.35230  Biso   1.000  H
  H165     1.0000 0.56800  0.23330  0.32480  Biso   1.000  H
  H166     1.0000 0.37670  0.23300  0.44980  Biso   1.000  H
  H167     1.0000 0.39170  0.28650  0.40900  Biso   1.000  H
  H168     1.0000 0.40470  0.23050  0.37340  Biso   1.000  H
  C121     1.0000 0.87340  0.75000  0.11546  Biso   1.000  C
  H169     1.0000 0.99510  0.75000  0.10050  Biso   1.000  H
  C122     1.0000 0.51360  0.75000  0.16575  Biso   1.000  C
  C123     1.0000 0.32400  0.75000  0.19609  Biso   1.000  C
  C124     1.0000 0.49960  0.75000  0.98886  Biso   1.000  C
  H170     1.0000 0.38780  0.75000  0.01160  Biso   1.000  H
  C125     1.0000 0.83620  0.75000  0.92330  Biso   1.000  C
  C126     1.0000 0.02270  0.75000  0.89040  Biso   1.000  C
  C127     1.0000 0.98600  0.75000  0.86280  Biso   1.000  C
  C128     1.0000 0.06500  0.75000  0.91280  Biso   1.000  C
  C129     1.0000 0.62660  0.25000  0.61546  Biso   1.000  C
  H171     1.0000 0.50490  0.25000  0.60050  Biso   1.000  H
  C130     1.0000 0.98640  0.25000  0.66575  Biso   1.000  C
  C131     1.0000 0.17600  0.25000  0.69609  Biso   1.000  C
  C132     1.0000 0.00040  0.25000  0.48886  Biso   1.000  C
  H172     1.0000 0.11220  0.25000  0.51160  Biso   1.000  H
  C133     1.0000 0.66380  0.25000  0.42330  Biso   1.000  C
  C134     1.0000 0.47730  0.25000  0.39040  Biso   1.000  C
  C135     1.0000 0.51400  0.25000  0.36280  Biso   1.000  C
  C136     1.0000 0.43500  0.25000  0.41280  Biso   1.000  C
  C137     1.0000 0.12660  0.25000  0.88454  Biso   1.000  C
  H173     1.0000 0.00490  0.25000  0.89950  Biso   1.000  H
  C138     1.0000 0.48640  0.25000  0.83425  Biso   1.000  C
  C139     1.0000 0.67600  0.25000  0.80391  Biso   1.000  C
  C140     1.0000 0.50040  0.25000  0.01114  Biso   1.000  C
  H174     1.0000 0.61220  0.25000  0.98840  Biso   1.000  H
  C141     1.0000 0.16380  0.25000  0.07670  Biso   1.000  C
  C142     1.0000 0.97730  0.25000  0.10960  Biso   1.000  C
  C143     1.0000 0.01400  0.25000  0.13720  Biso   1.000  C
  C144     1.0000 0.93500  0.25000  0.08720  Biso   1.000  C
  C145     1.0000 0.37340  0.75000  0.38454  Biso   1.000  C
  H175     1.0000 0.49510  0.75000  0.39950  Biso   1.000  H
  C146     1.0000 0.01360  0.75000  0.33425  Biso   1.000  C
  C147     1.0000 0.82400  0.75000  0.30391  Biso   1.000  C
  C148     1.0000 0.99960  0.75000  0.51114  Biso   1.000  C
  H176     1.0000 0.88780  0.75000  0.48840  Biso   1.000  H
  C149     1.0000 0.33620  0.75000  0.57670  Biso   1.000  C
  C150     1.0000 0.52270  0.75000  0.60960  Biso   1.000  C
  C151     1.0000 0.48600  0.75000  0.63720  Biso   1.000  C
  C152     1.0000 0.56500  0.75000  0.58720  Biso   1.000  C
