data_image0
_cell_length_a       43.028
_cell_length_b       13
_cell_length_c       22.077
_cell_angle_alpha    90
_cell_angle_beta     114.964
_cell_angle_gamma    90

_symmetry_space_group_name_H-M    "P 1"
_symmetry_int_tables_number       1

loop_
  _symmetry_equiv_pos_as_xyz
  'x, y, z'

loop_
  _atom_site_label
  _atom_site_occupancy
  _atom_site_fract_x
  _atom_site_fract_y
  _atom_site_fract_z
  _atom_site_thermal_displace_type
  _atom_site_B_iso_or_equiv
  _atom_site_type_symbol
  Zn1      1.0000 0.12344  0.79984  0.12723  Biso   1.000  Zn
  Zn2      1.0000 0.10920  0.57952  0.19075  Biso   1.000  Zn
  Zn3      1.0000 0.15731  0.77456  0.29280  Biso   1.000  Zn
  Br1      1.0000 0.09800  0.26180  0.92910  Biso   1.000  Br
  Br2      1.0000 0.16412  0.61670  0.87120  Biso   1.000  Br
  Br3      1.0000 0.98625  0.97340  0.83280  Biso   1.000  Br
  Br4      1.0000 0.03640  0.85000  0.93190  Biso   1.000  Br
  C1       1.0000 0.31260  0.09320  0.24540  Biso   1.000  C
  Br5      1.0000 0.18880  0.45910  0.12750  Biso   1.000  Br
  Br6      1.0000 0.31830  0.60370  0.39100  Biso   1.000  Br
  C2       1.0000 0.28090  0.03860  0.23500  Biso   1.000  C
  C3       1.0000 0.25190  0.05820  0.17640  Biso   1.000  C
  C4       1.0000 0.22130  0.00800  0.16430  Biso   1.000  C
  C5       1.0000 0.21960  0.93900  0.21070  Biso   1.000  C
  C6       1.0000 0.24870  0.91900  0.26930  Biso   1.000  C
  C7       1.0000 0.27930  0.96900  0.28140  Biso   1.000  C
  Br7      1.0000 0.20958  0.63530  0.13460  Biso   1.000  Br
  C8       1.0000 0.22210  0.55400  0.26210  Biso   1.000  C
  C9       1.0000 0.24220  0.50800  0.32290  Biso   1.000  C
  C10      1.0000 0.27370  0.46500  0.33350  Biso   1.000  C
  C11      1.0000 0.28510  0.46900  0.28330  Biso   1.000  C
  C12      1.0000 0.26500  0.51500  0.22250  Biso   1.000  C
  C13      1.0000 0.23350  0.55700  0.21180  Biso   1.000  C
  C14      1.0000 0.12370  0.44900  0.89660  Biso   1.000  C
  C15      1.0000 0.13530  0.55140  0.91060  Biso   1.000  C
  C16      1.0000 0.12610  0.39440  0.83830  Biso   1.000  C
  C17      1.0000 0.11660  0.61150  0.05680  Biso   1.000  C
  C18      1.0000 0.11970  0.55040  0.00290  Biso   1.000  C
  C19      1.0000 0.11180  0.45910  0.99160  Biso   1.000  C
  C20      1.0000 0.11570  0.40810  0.94110  Biso   1.000  C
  C21      1.0000 0.13420  0.59380  0.96630  Biso   1.000  C
  C22      1.0000 0.06270  0.90520  0.09630  Biso   1.000  C
  C23      1.0000 0.02290  0.95070  0.97690  Biso   1.000  C
  C24      1.0000 0.03000  0.95690  0.04540  Biso   1.000  C
  C25      1.0000 0.99240  0.99530  0.93110  Biso   1.000  C
  C26      1.0000 0.18320  0.90650  0.20480  Biso   1.000  C
  O1       1.0000 0.11711  0.73760  0.20200  Biso   1.000  O
  O2       1.0000 0.10370  0.56890  0.09090  Biso   1.000  O
  O3       1.0000 0.12810  0.70150  0.06530  Biso   1.000  O
  O4       1.0000 0.10930  0.43280  0.78170  Biso   1.000  O
  O5       1.0000 0.14380  0.31790  0.84980  Biso   1.000  O
  O6       1.0000 0.30980  0.17630  0.21670  Biso   1.000  O
  O7       1.0000 0.33930  0.04850  0.27860  Biso   1.000  O
  O8       1.0000 0.17980  0.88100  0.25390  Biso   1.000  O
  O9       1.0000 0.16440  0.88150  0.14800  Biso   1.000  O
  O10      1.0000 0.08310  0.87980  0.07470  Biso   1.000  O
  O11      1.0000 0.06630  0.88600  0.15320  Biso   1.000  O
  Zn4      1.0000 0.62344  0.29984  0.12723  Biso   1.000  Zn
  Zn5      1.0000 0.60920  0.07952  0.19075  Biso   1.000  Zn
  Zn6      1.0000 0.65731  0.27456  0.29280  Biso   1.000  Zn
  Br8      1.0000 0.59800  0.76180  0.92910  Biso   1.000  Br
  Br9      1.0000 0.66412  0.11670  0.87120  Biso   1.000  Br
  Br10     1.0000 0.48625  0.47340  0.83280  Biso   1.000  Br
  Br11     1.0000 0.53640  0.35000  0.93190  Biso   1.000  Br
  C27      1.0000 0.81260  0.59320  0.24540  Biso   1.000  C
  Br12     1.0000 0.68880  0.95910  0.12750  Biso   1.000  Br
  Br13     1.0000 0.81830  0.10370  0.39100  Biso   1.000  Br
  C28      1.0000 0.78090  0.53860  0.23500  Biso   1.000  C
  C29      1.0000 0.75190  0.55820  0.17640  Biso   1.000  C
  C30      1.0000 0.72130  0.50800  0.16430  Biso   1.000  C
  C31      1.0000 0.71960  0.43900  0.21070  Biso   1.000  C
  C32      1.0000 0.74870  0.41900  0.26930  Biso   1.000  C
  C33      1.0000 0.77930  0.46900  0.28140  Biso   1.000  C
  Br14     1.0000 0.70958  0.13530  0.13460  Biso   1.000  Br
  C34      1.0000 0.72210  0.05400  0.26210  Biso   1.000  C
  C35      1.0000 0.74220  0.00800  0.32290  Biso   1.000  C
  C36      1.0000 0.77370  0.96500  0.33350  Biso   1.000  C
  C37      1.0000 0.78510  0.96900  0.28330  Biso   1.000  C
  C38      1.0000 0.76500  0.01500  0.22250  Biso   1.000  C
  C39      1.0000 0.73350  0.05700  0.21180  Biso   1.000  C
  C40      1.0000 0.62370  0.94900  0.89660  Biso   1.000  C
  C41      1.0000 0.63530  0.05140  0.91060  Biso   1.000  C
  C42      1.0000 0.62610  0.89440  0.83830  Biso   1.000  C
  C43      1.0000 0.61660  0.11150  0.05680  Biso   1.000  C
  C44      1.0000 0.61970  0.05040  0.00290  Biso   1.000  C
  C45      1.0000 0.61180  0.95910  0.99160  Biso   1.000  C
  C46      1.0000 0.61570  0.90810  0.94110  Biso   1.000  C
  C47      1.0000 0.63420  0.09380  0.96630  Biso   1.000  C
  C48      1.0000 0.56270  0.40520  0.09630  Biso   1.000  C
  C49      1.0000 0.52290  0.45070  0.97690  Biso   1.000  C
  C50      1.0000 0.53000  0.45690  0.04540  Biso   1.000  C
  C51      1.0000 0.49240  0.49530  0.93110  Biso   1.000  C
  C52      1.0000 0.68320  0.40650  0.20480  Biso   1.000  C
  O12      1.0000 0.61711  0.23760  0.20200  Biso   1.000  O
  O13      1.0000 0.60370  0.06890  0.09090  Biso   1.000  O
  O14      1.0000 0.62810  0.20150  0.06530  Biso   1.000  O
  O15      1.0000 0.60930  0.93280  0.78170  Biso   1.000  O
  O16      1.0000 0.64380  0.81790  0.84980  Biso   1.000  O
  O17      1.0000 0.80980  0.67630  0.21670  Biso   1.000  O
  O18      1.0000 0.83930  0.54850  0.27860  Biso   1.000  O
  O19      1.0000 0.67980  0.38100  0.25390  Biso   1.000  O
  O20      1.0000 0.66440  0.38150  0.14800  Biso   1.000  O
  O21      1.0000 0.58310  0.37980  0.07470  Biso   1.000  O
  O22      1.0000 0.56630  0.38600  0.15320  Biso   1.000  O
  Zn7      1.0000 0.87656  0.79984  0.37277  Biso   1.000  Zn
  Zn8      1.0000 0.89080  0.57952  0.30925  Biso   1.000  Zn
  Zn9      1.0000 0.84269  0.77456  0.20720  Biso   1.000  Zn
  Br15     1.0000 0.90200  0.26180  0.57090  Biso   1.000  Br
  Br16     1.0000 0.83588  0.61670  0.62880  Biso   1.000  Br
  Br17     1.0000 0.01375  0.97340  0.66720  Biso   1.000  Br
  Br18     1.0000 0.96360  0.85000  0.56810  Biso   1.000  Br
  C53      1.0000 0.68740  0.09320  0.25460  Biso   1.000  C
  Br19     1.0000 0.81120  0.45910  0.37250  Biso   1.000  Br
  Br20     1.0000 0.68170  0.60370  0.10900  Biso   1.000  Br
  C54      1.0000 0.71910  0.03860  0.26500  Biso   1.000  C
  C55      1.0000 0.74810  0.05820  0.32360  Biso   1.000  C
  C56      1.0000 0.77870  0.00800  0.33570  Biso   1.000  C
  C57      1.0000 0.78040  0.93900  0.28930  Biso   1.000  C
  C58      1.0000 0.75130  0.91900  0.23070  Biso   1.000  C
  C59      1.0000 0.72070  0.96900  0.21860  Biso   1.000  C
  Br21     1.0000 0.79042  0.63530  0.36540  Biso   1.000  Br
  C60      1.0000 0.77790  0.55400  0.23790  Biso   1.000  C
  C61      1.0000 0.75780  0.50800  0.17710  Biso   1.000  C
  C62      1.0000 0.72630  0.46500  0.16650  Biso   1.000  C
  C63      1.0000 0.71490  0.46900  0.21670  Biso   1.000  C
  C64      1.0000 0.73500  0.51500  0.27750  Biso   1.000  C
  C65      1.0000 0.76650  0.55700  0.28820  Biso   1.000  C
  C66      1.0000 0.87630  0.44900  0.60340  Biso   1.000  C
  C67      1.0000 0.86470  0.55140  0.58940  Biso   1.000  C
  C68      1.0000 0.87390  0.39440  0.66170  Biso   1.000  C
  C69      1.0000 0.88340  0.61150  0.44320  Biso   1.000  C
  C70      1.0000 0.88030  0.55040  0.49710  Biso   1.000  C
  C71      1.0000 0.88820  0.45910  0.50840  Biso   1.000  C
  C72      1.0000 0.88430  0.40810  0.55890  Biso   1.000  C
  C73      1.0000 0.86580  0.59380  0.53370  Biso   1.000  C
  C74      1.0000 0.93730  0.90520  0.40370  Biso   1.000  C
  C75      1.0000 0.97710  0.95070  0.52310  Biso   1.000  C
  C76      1.0000 0.97000  0.95690  0.45460  Biso   1.000  C
  C77      1.0000 0.00760  0.99530  0.56890  Biso   1.000  C
  C78      1.0000 0.81680  0.90650  0.29520  Biso   1.000  C
  O23      1.0000 0.88289  0.73760  0.29800  Biso   1.000  O
  O24      1.0000 0.89630  0.56890  0.40910  Biso   1.000  O
  O25      1.0000 0.87190  0.70150  0.43470  Biso   1.000  O
  O26      1.0000 0.89070  0.43280  0.71830  Biso   1.000  O
  O27      1.0000 0.85620  0.31790  0.65020  Biso   1.000  O
  O28      1.0000 0.69020  0.17630  0.28330  Biso   1.000  O
  O29      1.0000 0.66070  0.04850  0.22140  Biso   1.000  O
  O30      1.0000 0.82020  0.88100  0.24610  Biso   1.000  O
  O31      1.0000 0.83560  0.88150  0.35200  Biso   1.000  O
  O32      1.0000 0.91690  0.87980  0.42530  Biso   1.000  O
  O33      1.0000 0.93370  0.88600  0.34680  Biso   1.000  O
  Zn10     1.0000 0.37656  0.29984  0.37277  Biso   1.000  Zn
  Zn11     1.0000 0.39080  0.07952  0.30925  Biso   1.000  Zn
  Zn12     1.0000 0.34269  0.27456  0.20720  Biso   1.000  Zn
  Br22     1.0000 0.40200  0.76180  0.57090  Biso   1.000  Br
  Br23     1.0000 0.33588  0.11670  0.62880  Biso   1.000  Br
  Br24     1.0000 0.51375  0.47340  0.66720  Biso   1.000  Br
  Br25     1.0000 0.46360  0.35000  0.56810  Biso   1.000  Br
  C79      1.0000 0.18740  0.59320  0.25460  Biso   1.000  C
  Br26     1.0000 0.31120  0.95910  0.37250  Biso   1.000  Br
  Br27     1.0000 0.18170  0.10370  0.10900  Biso   1.000  Br
  C80      1.0000 0.21910  0.53860  0.26500  Biso   1.000  C
  C81      1.0000 0.24810  0.55820  0.32360  Biso   1.000  C
  C82      1.0000 0.27870  0.50800  0.33570  Biso   1.000  C
  C83      1.0000 0.28040  0.43900  0.28930  Biso   1.000  C
  C84      1.0000 0.25130  0.41900  0.23070  Biso   1.000  C
  C85      1.0000 0.22070  0.46900  0.21860  Biso   1.000  C
  Br28     1.0000 0.29042  0.13530  0.36540  Biso   1.000  Br
  C86      1.0000 0.27790  0.05400  0.23790  Biso   1.000  C
  C87      1.0000 0.25780  0.00800  0.17710  Biso   1.000  C
  C88      1.0000 0.22630  0.96500  0.16650  Biso   1.000  C
  C89      1.0000 0.21490  0.96900  0.21670  Biso   1.000  C
  C90      1.0000 0.23500  0.01500  0.27750  Biso   1.000  C
  C91      1.0000 0.26650  0.05700  0.28820  Biso   1.000  C
  C92      1.0000 0.37630  0.94900  0.60340  Biso   1.000  C
  C93      1.0000 0.36470  0.05140  0.58940  Biso   1.000  C
  C94      1.0000 0.37390  0.89440  0.66170  Biso   1.000  C
  C95      1.0000 0.38340  0.11150  0.44320  Biso   1.000  C
  C96      1.0000 0.38030  0.05040  0.49710  Biso   1.000  C
  C97      1.0000 0.38820  0.95910  0.50840  Biso   1.000  C
  C98      1.0000 0.38430  0.90810  0.55890  Biso   1.000  C
  C99      1.0000 0.36580  0.09380  0.53370  Biso   1.000  C
  C100     1.0000 0.43730  0.40520  0.40370  Biso   1.000  C
  C101     1.0000 0.47710  0.45070  0.52310  Biso   1.000  C
  C102     1.0000 0.47000  0.45690  0.45460  Biso   1.000  C
  C103     1.0000 0.50760  0.49530  0.56890  Biso   1.000  C
  C104     1.0000 0.31680  0.40650  0.29520  Biso   1.000  C
  O34      1.0000 0.38289  0.23760  0.29800  Biso   1.000  O
  O35      1.0000 0.39630  0.06890  0.40910  Biso   1.000  O
  O36      1.0000 0.37190  0.20150  0.43470  Biso   1.000  O
  O37      1.0000 0.39070  0.93280  0.71830  Biso   1.000  O
  O38      1.0000 0.35620  0.81790  0.65020  Biso   1.000  O
  O39      1.0000 0.19020  0.67630  0.28330  Biso   1.000  O
  O40      1.0000 0.16070  0.54850  0.22140  Biso   1.000  O
  O41      1.0000 0.32020  0.38100  0.24610  Biso   1.000  O
  O42      1.0000 0.33560  0.38150  0.35200  Biso   1.000  O
  O43      1.0000 0.41690  0.37980  0.42530  Biso   1.000  O
  O44      1.0000 0.43370  0.38600  0.34680  Biso   1.000  O
  Zn13     1.0000 0.87656  0.20016  0.87277  Biso   1.000  Zn
  Zn14     1.0000 0.89080  0.42048  0.80925  Biso   1.000  Zn
  Zn15     1.0000 0.84269  0.22544  0.70720  Biso   1.000  Zn
  Br29     1.0000 0.90200  0.73820  0.07090  Biso   1.000  Br
  Br30     1.0000 0.83588  0.38330  0.12880  Biso   1.000  Br
  Br31     1.0000 0.01375  0.02660  0.16720  Biso   1.000  Br
  Br32     1.0000 0.96360  0.15000  0.06810  Biso   1.000  Br
  C105     1.0000 0.68740  0.90680  0.75460  Biso   1.000  C
  Br33     1.0000 0.81120  0.54090  0.87250  Biso   1.000  Br
  Br34     1.0000 0.68170  0.39630  0.60900  Biso   1.000  Br
  C106     1.0000 0.71910  0.96140  0.76500  Biso   1.000  C
  C107     1.0000 0.74810  0.94180  0.82360  Biso   1.000  C
  C108     1.0000 0.77870  0.99200  0.83570  Biso   1.000  C
  C109     1.0000 0.78040  0.06100  0.78930  Biso   1.000  C
  C110     1.0000 0.75130  0.08100  0.73070  Biso   1.000  C
  C111     1.0000 0.72070  0.03100  0.71860  Biso   1.000  C
  Br35     1.0000 0.79042  0.36470  0.86540  Biso   1.000  Br
  C112     1.0000 0.77790  0.44600  0.73790  Biso   1.000  C
  C113     1.0000 0.75780  0.49200  0.67710  Biso   1.000  C
  C114     1.0000 0.72630  0.53500  0.66650  Biso   1.000  C
  C115     1.0000 0.71490  0.53100  0.71670  Biso   1.000  C
  C116     1.0000 0.73500  0.48500  0.77750  Biso   1.000  C
  C117     1.0000 0.76650  0.44300  0.78820  Biso   1.000  C
  C118     1.0000 0.87630  0.55100  0.10340  Biso   1.000  C
  C119     1.0000 0.86470  0.44860  0.08940  Biso   1.000  C
  C120     1.0000 0.87390  0.60560  0.16170  Biso   1.000  C
  C121     1.0000 0.88340  0.38850  0.94320  Biso   1.000  C
  C122     1.0000 0.88030  0.44960  0.99710  Biso   1.000  C
  C123     1.0000 0.88820  0.54090  0.00840  Biso   1.000  C
  C124     1.0000 0.88430  0.59190  0.05890  Biso   1.000  C
  C125     1.0000 0.86580  0.40620  0.03370  Biso   1.000  C
  C126     1.0000 0.93730  0.09480  0.90370  Biso   1.000  C
  C127     1.0000 0.97710  0.04930  0.02310  Biso   1.000  C
  C128     1.0000 0.97000  0.04310  0.95460  Biso   1.000  C
  C129     1.0000 0.00760  0.00470  0.06890  Biso   1.000  C
  C130     1.0000 0.81680  0.09350  0.79520  Biso   1.000  C
  O45      1.0000 0.88289  0.26240  0.79800  Biso   1.000  O
  O46      1.0000 0.89630  0.43110  0.90910  Biso   1.000  O
  O47      1.0000 0.87190  0.29850  0.93470  Biso   1.000  O
  O48      1.0000 0.89070  0.56720  0.21830  Biso   1.000  O
  O49      1.0000 0.85620  0.68210  0.15020  Biso   1.000  O
  O50      1.0000 0.69020  0.82370  0.78330  Biso   1.000  O
  O51      1.0000 0.66070  0.95150  0.72140  Biso   1.000  O
  O52      1.0000 0.82020  0.11900  0.74610  Biso   1.000  O
  O53      1.0000 0.83560  0.11850  0.85200  Biso   1.000  O
  O54      1.0000 0.91690  0.12020  0.92530  Biso   1.000  O
  O55      1.0000 0.93370  0.11400  0.84680  Biso   1.000  O
  Zn16     1.0000 0.37656  0.70016  0.87277  Biso   1.000  Zn
  Zn17     1.0000 0.39080  0.92048  0.80925  Biso   1.000  Zn
  Zn18     1.0000 0.34269  0.72544  0.70720  Biso   1.000  Zn
  Br36     1.0000 0.40200  0.23820  0.07090  Biso   1.000  Br
  Br37     1.0000 0.33588  0.88330  0.12880  Biso   1.000  Br
  Br38     1.0000 0.51375  0.52660  0.16720  Biso   1.000  Br
  Br39     1.0000 0.46360  0.65000  0.06810  Biso   1.000  Br
  C131     1.0000 0.18740  0.40680  0.75460  Biso   1.000  C
  Br40     1.0000 0.31120  0.04090  0.87250  Biso   1.000  Br
  Br41     1.0000 0.18170  0.89630  0.60900  Biso   1.000  Br
  C132     1.0000 0.21910  0.46140  0.76500  Biso   1.000  C
  C133     1.0000 0.24810  0.44180  0.82360  Biso   1.000  C
  C134     1.0000 0.27870  0.49200  0.83570  Biso   1.000  C
  C135     1.0000 0.28040  0.56100  0.78930  Biso   1.000  C
  C136     1.0000 0.25130  0.58100  0.73070  Biso   1.000  C
  C137     1.0000 0.22070  0.53100  0.71860  Biso   1.000  C
  Br42     1.0000 0.29042  0.86470  0.86540  Biso   1.000  Br
  C138     1.0000 0.27790  0.94600  0.73790  Biso   1.000  C
  C139     1.0000 0.25780  0.99200  0.67710  Biso   1.000  C
  C140     1.0000 0.22630  0.03500  0.66650  Biso   1.000  C
  C141     1.0000 0.21490  0.03100  0.71670  Biso   1.000  C
  C142     1.0000 0.23500  0.98500  0.77750  Biso   1.000  C
  C143     1.0000 0.26650  0.94300  0.78820  Biso   1.000  C
  C144     1.0000 0.37630  0.05100  0.10340  Biso   1.000  C
  C145     1.0000 0.36470  0.94860  0.08940  Biso   1.000  C
  C146     1.0000 0.37390  0.10560  0.16170  Biso   1.000  C
  C147     1.0000 0.38340  0.88850  0.94320  Biso   1.000  C
  C148     1.0000 0.38030  0.94960  0.99710  Biso   1.000  C
  C149     1.0000 0.38820  0.04090  0.00840  Biso   1.000  C
  C150     1.0000 0.38430  0.09190  0.05890  Biso   1.000  C
  C151     1.0000 0.36580  0.90620  0.03370  Biso   1.000  C
  C152     1.0000 0.43730  0.59480  0.90370  Biso   1.000  C
  C153     1.0000 0.47710  0.54930  0.02310  Biso   1.000  C
  C154     1.0000 0.47000  0.54310  0.95460  Biso   1.000  C
  C155     1.0000 0.50760  0.50470  0.06890  Biso   1.000  C
  C156     1.0000 0.31680  0.59350  0.79520  Biso   1.000  C
  O56      1.0000 0.38289  0.76240  0.79800  Biso   1.000  O
  O57      1.0000 0.39630  0.93110  0.90910  Biso   1.000  O
  O58      1.0000 0.37190  0.79850  0.93470  Biso   1.000  O
  O59      1.0000 0.39070  0.06720  0.21830  Biso   1.000  O
  O60      1.0000 0.35620  0.18210  0.15020  Biso   1.000  O
  O61      1.0000 0.19020  0.32370  0.78330  Biso   1.000  O
  O62      1.0000 0.16070  0.45150  0.72140  Biso   1.000  O
  O63      1.0000 0.32020  0.61900  0.74610  Biso   1.000  O
  O64      1.0000 0.33560  0.61850  0.85200  Biso   1.000  O
  O65      1.0000 0.41690  0.62020  0.92530  Biso   1.000  O
  O66      1.0000 0.43370  0.61400  0.84680  Biso   1.000  O
  Zn19     1.0000 0.12344  0.20016  0.62723  Biso   1.000  Zn
  Zn20     1.0000 0.10920  0.42048  0.69075  Biso   1.000  Zn
  Zn21     1.0000 0.15731  0.22544  0.79280  Biso   1.000  Zn
  Br43     1.0000 0.09800  0.73820  0.42910  Biso   1.000  Br
  Br44     1.0000 0.16412  0.38330  0.37120  Biso   1.000  Br
  Br45     1.0000 0.98625  0.02660  0.33280  Biso   1.000  Br
  Br46     1.0000 0.03640  0.15000  0.43190  Biso   1.000  Br
  C157     1.0000 0.31260  0.90680  0.74540  Biso   1.000  C
  Br47     1.0000 0.18880  0.54090  0.62750  Biso   1.000  Br
  Br48     1.0000 0.31830  0.39630  0.89100  Biso   1.000  Br
  C158     1.0000 0.28090  0.96140  0.73500  Biso   1.000  C
  C159     1.0000 0.25190  0.94180  0.67640  Biso   1.000  C
  C160     1.0000 0.22130  0.99200  0.66430  Biso   1.000  C
  C161     1.0000 0.21960  0.06100  0.71070  Biso   1.000  C
  C162     1.0000 0.24870  0.08100  0.76930  Biso   1.000  C
  C163     1.0000 0.27930  0.03100  0.78140  Biso   1.000  C
  Br49     1.0000 0.20958  0.36470  0.63460  Biso   1.000  Br
  C164     1.0000 0.22210  0.44600  0.76210  Biso   1.000  C
  C165     1.0000 0.24220  0.49200  0.82290  Biso   1.000  C
  C166     1.0000 0.27370  0.53500  0.83350  Biso   1.000  C
  C167     1.0000 0.28510  0.53100  0.78330  Biso   1.000  C
  C168     1.0000 0.26500  0.48500  0.72250  Biso   1.000  C
  C169     1.0000 0.23350  0.44300  0.71180  Biso   1.000  C
  C170     1.0000 0.12370  0.55100  0.39660  Biso   1.000  C
  C171     1.0000 0.13530  0.44860  0.41060  Biso   1.000  C
  C172     1.0000 0.12610  0.60560  0.33830  Biso   1.000  C
  C173     1.0000 0.11660  0.38850  0.55680  Biso   1.000  C
  C174     1.0000 0.11970  0.44960  0.50290  Biso   1.000  C
  C175     1.0000 0.11180  0.54090  0.49160  Biso   1.000  C
  C176     1.0000 0.11570  0.59190  0.44110  Biso   1.000  C
  C177     1.0000 0.13420  0.40620  0.46630  Biso   1.000  C
  C178     1.0000 0.06270  0.09480  0.59630  Biso   1.000  C
  C179     1.0000 0.02290  0.04930  0.47690  Biso   1.000  C
  C180     1.0000 0.03000  0.04310  0.54540  Biso   1.000  C
  C181     1.0000 0.99240  0.00470  0.43110  Biso   1.000  C
  C182     1.0000 0.18320  0.09350  0.70480  Biso   1.000  C
  O67      1.0000 0.11711  0.26240  0.70200  Biso   1.000  O
  O68      1.0000 0.10370  0.43110  0.59090  Biso   1.000  O
  O69      1.0000 0.12810  0.29850  0.56530  Biso   1.000  O
  O70      1.0000 0.10930  0.56720  0.28170  Biso   1.000  O
  O71      1.0000 0.14380  0.68210  0.34980  Biso   1.000  O
  O72      1.0000 0.30980  0.82370  0.71670  Biso   1.000  O
  O73      1.0000 0.33930  0.95150  0.77860  Biso   1.000  O
  O74      1.0000 0.17980  0.11900  0.75390  Biso   1.000  O
  O75      1.0000 0.16440  0.11850  0.64800  Biso   1.000  O
  O76      1.0000 0.08310  0.12020  0.57470  Biso   1.000  O
  O77      1.0000 0.06630  0.11400  0.65320  Biso   1.000  O
  Zn22     1.0000 0.62344  0.70016  0.62723  Biso   1.000  Zn
  Zn23     1.0000 0.60920  0.92048  0.69075  Biso   1.000  Zn
  Zn24     1.0000 0.65731  0.72544  0.79280  Biso   1.000  Zn
  Br50     1.0000 0.59800  0.23820  0.42910  Biso   1.000  Br
  Br51     1.0000 0.66412  0.88330  0.37120  Biso   1.000  Br
  Br52     1.0000 0.48625  0.52660  0.33280  Biso   1.000  Br
  Br53     1.0000 0.53640  0.65000  0.43190  Biso   1.000  Br
  C183     1.0000 0.81260  0.40680  0.74540  Biso   1.000  C
  Br54     1.0000 0.68880  0.04090  0.62750  Biso   1.000  Br
  Br55     1.0000 0.81830  0.89630  0.89100  Biso   1.000  Br
  C184     1.0000 0.78090  0.46140  0.73500  Biso   1.000  C
  C185     1.0000 0.75190  0.44180  0.67640  Biso   1.000  C
  C186     1.0000 0.72130  0.49200  0.66430  Biso   1.000  C
  C187     1.0000 0.71960  0.56100  0.71070  Biso   1.000  C
  C188     1.0000 0.74870  0.58100  0.76930  Biso   1.000  C
  C189     1.0000 0.77930  0.53100  0.78140  Biso   1.000  C
  Br56     1.0000 0.70958  0.86470  0.63460  Biso   1.000  Br
  C190     1.0000 0.72210  0.94600  0.76210  Biso   1.000  C
  C191     1.0000 0.74220  0.99200  0.82290  Biso   1.000  C
  C192     1.0000 0.77370  0.03500  0.83350  Biso   1.000  C
  C193     1.0000 0.78510  0.03100  0.78330  Biso   1.000  C
  C194     1.0000 0.76500  0.98500  0.72250  Biso   1.000  C
  C195     1.0000 0.73350  0.94300  0.71180  Biso   1.000  C
  C196     1.0000 0.62370  0.05100  0.39660  Biso   1.000  C
  C197     1.0000 0.63530  0.94860  0.41060  Biso   1.000  C
  C198     1.0000 0.62610  0.10560  0.33830  Biso   1.000  C
  C199     1.0000 0.61660  0.88850  0.55680  Biso   1.000  C
  C200     1.0000 0.61970  0.94960  0.50290  Biso   1.000  C
  C201     1.0000 0.61180  0.04090  0.49160  Biso   1.000  C
  C202     1.0000 0.61570  0.09190  0.44110  Biso   1.000  C
  C203     1.0000 0.63420  0.90620  0.46630  Biso   1.000  C
  C204     1.0000 0.56270  0.59480  0.59630  Biso   1.000  C
  C205     1.0000 0.52290  0.54930  0.47690  Biso   1.000  C
  C206     1.0000 0.53000  0.54310  0.54540  Biso   1.000  C
  C207     1.0000 0.49240  0.50470  0.43110  Biso   1.000  C
  C208     1.0000 0.68320  0.59350  0.70480  Biso   1.000  C
  O78      1.0000 0.61711  0.76240  0.70200  Biso   1.000  O
  O79      1.0000 0.60370  0.93110  0.59090  Biso   1.000  O
  O80      1.0000 0.62810  0.79850  0.56530  Biso   1.000  O
  O81      1.0000 0.60930  0.06720  0.28170  Biso   1.000  O
  O82      1.0000 0.64380  0.18210  0.34980  Biso   1.000  O
  O83      1.0000 0.80980  0.32370  0.71670  Biso   1.000  O
  O84      1.0000 0.83930  0.45150  0.77860  Biso   1.000  O
  O85      1.0000 0.67980  0.61900  0.75390  Biso   1.000  O
  O86      1.0000 0.66440  0.61850  0.64800  Biso   1.000  O
  O87      1.0000 0.58310  0.62020  0.57470  Biso   1.000  O
  O88      1.0000 0.56630  0.61400  0.65320  Biso   1.000  O
