data_image0
_cell_length_a       16.4797
_cell_length_b       16.4797
_cell_length_c       8.8635
_cell_angle_alpha    90
_cell_angle_beta     90
_cell_angle_gamma    90

_symmetry_space_group_name_H-M    "P 1"
_symmetry_int_tables_number       1

loop_
  _symmetry_equiv_pos_as_xyz
  'x, y, z'

loop_
  _atom_site_label
  _atom_site_occupancy
  _atom_site_fract_x
  _atom_site_fract_y
  _atom_site_fract_z
  _atom_site_thermal_displace_type
  _atom_site_B_iso_or_equiv
  _atom_site_type_symbol
  Zn1      1.0000 0.71631  0.41268  0.91888  Biso   1.000  Zn
  P1       1.0000 0.66299  0.42876  0.58850  Biso   1.000  P
  P2       1.0000 0.90889  0.39651  0.92360  Biso   1.000  P
  O1       1.0000 0.95980  0.40980  0.06160  Biso   1.000  O
  O2       1.0000 0.91190  0.46490  0.81220  Biso   1.000  O
  O3       1.0000 0.82330  0.37320  0.96770  Biso   1.000  O
  O4       1.0000 0.68770  0.36550  0.71600  Biso   1.000  O
  O5       1.0000 0.65260  0.37040  0.44990  Biso   1.000  O
  O6       1.0000 0.68350  0.48100  0.44660  Biso   1.000  O
  O7       1.0000 0.71820  0.53410  0.21580  Biso   1.000  O
  O8       1.0000 0.65240  0.66270  0.56370  Biso   1.000  O
  O9       1.0000 0.71950  0.48860  0.55970  Biso   1.000  O
  H1       1.0000 0.58960  0.45160  0.63070  Biso   1.000  H
  H2       1.0000 0.93790  0.33240  0.85060  Biso   1.000  H
  Zn2      1.0000 0.28369  0.58732  0.91888  Biso   1.000  Zn
  P3       1.0000 0.33701  0.57124  0.58850  Biso   1.000  P
  P4       1.0000 0.09111  0.60349  0.92360  Biso   1.000  P
  O10      1.0000 0.04020  0.59020  0.06160  Biso   1.000  O
  O11      1.0000 0.08810  0.53510  0.81220  Biso   1.000  O
  O12      1.0000 0.17670  0.62680  0.96770  Biso   1.000  O
  O13      1.0000 0.31230  0.63450  0.71600  Biso   1.000  O
  O14      1.0000 0.34740  0.62960  0.44990  Biso   1.000  O
  O15      1.0000 0.31650  0.51900  0.44660  Biso   1.000  O
  O16      1.0000 0.28180  0.46590  0.21580  Biso   1.000  O
  O17      1.0000 0.34760  0.33730  0.56370  Biso   1.000  O
  O18      1.0000 0.28050  0.51140  0.55970  Biso   1.000  O
  H3       1.0000 0.41040  0.54840  0.63070  Biso   1.000  H
  H4       1.0000 0.06210  0.66760  0.85060  Biso   1.000  H
  Zn3      1.0000 0.58732  0.71631  0.91888  Biso   1.000  Zn
  P5       1.0000 0.57124  0.66299  0.58850  Biso   1.000  P
  P6       1.0000 0.60349  0.90889  0.92360  Biso   1.000  P
  O19      1.0000 0.59020  0.95980  0.06160  Biso   1.000  O
  O20      1.0000 0.53510  0.91190  0.81220  Biso   1.000  O
  O21      1.0000 0.62680  0.82330  0.96770  Biso   1.000  O
  O22      1.0000 0.63450  0.68770  0.71600  Biso   1.000  O
  O23      1.0000 0.62960  0.65260  0.44990  Biso   1.000  O
  O24      1.0000 0.51900  0.68350  0.44660  Biso   1.000  O
  O25      1.0000 0.46590  0.71820  0.21580  Biso   1.000  O
  O26      1.0000 0.33730  0.65240  0.56370  Biso   1.000  O
  O27      1.0000 0.51140  0.71950  0.55970  Biso   1.000  O
  H5       1.0000 0.54840  0.58960  0.63070  Biso   1.000  H
  H6       1.0000 0.66760  0.93790  0.85060  Biso   1.000  H
  Zn4      1.0000 0.41268  0.28369  0.91888  Biso   1.000  Zn
  P7       1.0000 0.42876  0.33701  0.58850  Biso   1.000  P
  P8       1.0000 0.39651  0.09111  0.92360  Biso   1.000  P
  O28      1.0000 0.40980  0.04020  0.06160  Biso   1.000  O
  O29      1.0000 0.46490  0.08810  0.81220  Biso   1.000  O
  O30      1.0000 0.37320  0.17670  0.96770  Biso   1.000  O
  O31      1.0000 0.36550  0.31230  0.71600  Biso   1.000  O
  O32      1.0000 0.37040  0.34740  0.44990  Biso   1.000  O
  O33      1.0000 0.48100  0.31650  0.44660  Biso   1.000  O
  O34      1.0000 0.53410  0.28180  0.21580  Biso   1.000  O
  O35      1.0000 0.66270  0.34760  0.56370  Biso   1.000  O
  O36      1.0000 0.48860  0.28050  0.55970  Biso   1.000  O
  H7       1.0000 0.45160  0.41040  0.63070  Biso   1.000  H
  H8       1.0000 0.33240  0.06210  0.85060  Biso   1.000  H
  Zn5      1.0000 0.71631  0.58732  0.41888  Biso   1.000  Zn
  P9       1.0000 0.66299  0.57124  0.08850  Biso   1.000  P
  P10      1.0000 0.90889  0.60349  0.42360  Biso   1.000  P
  O37      1.0000 0.95980  0.59020  0.56160  Biso   1.000  O
  O38      1.0000 0.91190  0.53510  0.31220  Biso   1.000  O
  O39      1.0000 0.82330  0.62680  0.46770  Biso   1.000  O
  O40      1.0000 0.68770  0.63450  0.21600  Biso   1.000  O
  O41      1.0000 0.65260  0.62960  0.94990  Biso   1.000  O
  O42      1.0000 0.68350  0.51900  0.94660  Biso   1.000  O
  O43      1.0000 0.71820  0.46590  0.71580  Biso   1.000  O
  O44      1.0000 0.65240  0.33730  0.06370  Biso   1.000  O
  O45      1.0000 0.71950  0.51140  0.05970  Biso   1.000  O
  H9       1.0000 0.58960  0.54840  0.13070  Biso   1.000  H
  H10      1.0000 0.93790  0.66760  0.35060  Biso   1.000  H
  Zn6      1.0000 0.28369  0.41268  0.41888  Biso   1.000  Zn
  P11      1.0000 0.33701  0.42876  0.08850  Biso   1.000  P
  P12      1.0000 0.09111  0.39651  0.42360  Biso   1.000  P
  O46      1.0000 0.04020  0.40980  0.56160  Biso   1.000  O
  O47      1.0000 0.08810  0.46490  0.31220  Biso   1.000  O
  O48      1.0000 0.17670  0.37320  0.46770  Biso   1.000  O
  O49      1.0000 0.31230  0.36550  0.21600  Biso   1.000  O
  O50      1.0000 0.34740  0.37040  0.94990  Biso   1.000  O
  O51      1.0000 0.31650  0.48100  0.94660  Biso   1.000  O
  O52      1.0000 0.28180  0.53410  0.71580  Biso   1.000  O
  O53      1.0000 0.34760  0.66270  0.06370  Biso   1.000  O
  O54      1.0000 0.28050  0.48860  0.05970  Biso   1.000  O
  H11      1.0000 0.41040  0.45160  0.13070  Biso   1.000  H
  H12      1.0000 0.06210  0.33240  0.35060  Biso   1.000  H
  Zn7      1.0000 0.58732  0.28369  0.41888  Biso   1.000  Zn
  P13      1.0000 0.57124  0.33701  0.08850  Biso   1.000  P
  P14      1.0000 0.60349  0.09111  0.42360  Biso   1.000  P
  O55      1.0000 0.59020  0.04020  0.56160  Biso   1.000  O
  O56      1.0000 0.53510  0.08810  0.31220  Biso   1.000  O
  O57      1.0000 0.62680  0.17670  0.46770  Biso   1.000  O
  O58      1.0000 0.63450  0.31230  0.21600  Biso   1.000  O
  O59      1.0000 0.62960  0.34740  0.94990  Biso   1.000  O
  O60      1.0000 0.51900  0.31650  0.94660  Biso   1.000  O
  O61      1.0000 0.46590  0.28180  0.71580  Biso   1.000  O
  O62      1.0000 0.33730  0.34760  0.06370  Biso   1.000  O
  O63      1.0000 0.51140  0.28050  0.05970  Biso   1.000  O
  H13      1.0000 0.54840  0.41040  0.13070  Biso   1.000  H
  H14      1.0000 0.66760  0.06210  0.35060  Biso   1.000  H
  Zn8      1.0000 0.41268  0.71631  0.41888  Biso   1.000  Zn
  P15      1.0000 0.42876  0.66299  0.08850  Biso   1.000  P
  P16      1.0000 0.39651  0.90889  0.42360  Biso   1.000  P
  O64      1.0000 0.40980  0.95980  0.56160  Biso   1.000  O
  O65      1.0000 0.46490  0.91190  0.31220  Biso   1.000  O
  O66      1.0000 0.37320  0.82330  0.46770  Biso   1.000  O
  O67      1.0000 0.36550  0.68770  0.21600  Biso   1.000  O
  O68      1.0000 0.37040  0.65260  0.94990  Biso   1.000  O
  O69      1.0000 0.48100  0.68350  0.94660  Biso   1.000  O
  O70      1.0000 0.53410  0.71820  0.71580  Biso   1.000  O
  O71      1.0000 0.66270  0.65240  0.06370  Biso   1.000  O
  O72      1.0000 0.48860  0.71950  0.05970  Biso   1.000  O
  H15      1.0000 0.45160  0.58960  0.13070  Biso   1.000  H
  H16      1.0000 0.33240  0.93790  0.35060  Biso   1.000  H
  Zn9      1.0000 0.00000  0.50000  0.17750  Biso   1.000  Zn
  Zn10     1.0000 0.50000  0.00000  0.17750  Biso   1.000  Zn
  Zn11     1.0000 0.00000  0.50000  0.67750  Biso   1.000  Zn
  Zn12     1.0000 0.50000  0.00000  0.67750  Biso   1.000  Zn
