data_image0
_cell_length_a       12.2987
_cell_length_b       7.6559
_cell_length_c       14.6269
_cell_angle_alpha    90
_cell_angle_beta     106.545
_cell_angle_gamma    90

_symmetry_space_group_name_H-M    "P 1"
_symmetry_int_tables_number       1

loop_
  _symmetry_equiv_pos_as_xyz
  'x, y, z'

loop_
  _atom_site_label
  _atom_site_occupancy
  _atom_site_fract_x
  _atom_site_fract_y
  _atom_site_fract_z
  _atom_site_thermal_displace_type
  _atom_site_B_iso_or_equiv
  _atom_site_type_symbol
  N1       1.0000 0.98930  0.79610  0.10510  Biso   1.000  N
  N2       1.0000 0.91190  0.20330  0.39810  Biso   1.000  N
  C1       1.0000 0.96230  0.69400  0.15180  Biso   1.000  C
  C2       1.0000 0.90370  0.30530  0.33880  Biso   1.000  C
  N3       1.0000 0.70310  0.05060  0.08990  Biso   1.000  N
  C3       1.0000 0.53400  0.14500  0.13080  Biso   1.000  C
  H1       1.0000 0.46820  0.21230  0.11470  Biso   1.000  H
  C4       1.0000 0.61300  0.13800  0.07300  Biso   1.000  C
  H2       1.0000 0.59470  0.20580  0.01800  Biso   1.000  H
  C5       1.0000 0.56450  0.04570  0.20860  Biso   1.000  C
  C6       1.0000 0.34020  0.04370  0.44700  Biso   1.000  C
  H3       1.0000 0.41310  0.05990  0.48720  Biso   1.000  H
  C7       1.0000 0.24950  0.03810  0.48450  Biso   1.000  C
  H4       1.0000 0.26170  0.06160  0.54900  Biso   1.000  H
  C8       1.0000 0.21360  0.96670  0.29480  Biso   1.000  C
  H5       1.0000 0.20150  0.92630  0.23270  Biso   1.000  H
  C9       1.0000 0.12670  0.97240  0.33680  Biso   1.000  C
  H6       1.0000 0.05280  0.95660  0.29850  Biso   1.000  H
  C10      1.0000 0.41560  0.03450  0.30820  Biso   1.000  C
  C11      1.0000 0.48780  0.03890  0.26700  Biso   1.000  C
  C12      1.0000 0.32370  0.02500  0.35020  Biso   1.000  C
  C13      1.0000 0.66800  0.96200  0.23040  Biso   1.000  C
  H7       1.0000 0.69370  0.90110  0.28770  Biso   1.000  H
  C14      1.0000 0.73300  0.96640  0.16860  Biso   1.000  C
  H8       1.0000 0.80150  0.90620  0.18440  Biso   1.000  H
  N4       1.0000 0.01070  0.79610  0.89490  Biso   1.000  N
  N5       1.0000 0.08810  0.20330  0.60190  Biso   1.000  N
  C15      1.0000 0.03770  0.69400  0.84820  Biso   1.000  C
  C16      1.0000 0.09630  0.30530  0.66120  Biso   1.000  C
  N6       1.0000 0.29690  0.05060  0.91010  Biso   1.000  N
  C17      1.0000 0.46600  0.14500  0.86920  Biso   1.000  C
  H9       1.0000 0.53180  0.21230  0.88530  Biso   1.000  H
  C18      1.0000 0.38700  0.13800  0.92700  Biso   1.000  C
  H10      1.0000 0.40530  0.20580  0.98200  Biso   1.000  H
  C19      1.0000 0.43550  0.04570  0.79140  Biso   1.000  C
  C20      1.0000 0.65980  0.04370  0.55300  Biso   1.000  C
  H11      1.0000 0.58690  0.05990  0.51280  Biso   1.000  H
  C21      1.0000 0.75050  0.03810  0.51550  Biso   1.000  C
  H12      1.0000 0.73830  0.06160  0.45100  Biso   1.000  H
  C22      1.0000 0.78640  0.96670  0.70520  Biso   1.000  C
  H13      1.0000 0.79850  0.92630  0.76730  Biso   1.000  H
  C23      1.0000 0.87330  0.97240  0.66320  Biso   1.000  C
  H14      1.0000 0.94720  0.95660  0.70150  Biso   1.000  H
  C24      1.0000 0.58440  0.03450  0.69180  Biso   1.000  C
  C25      1.0000 0.51220  0.03890  0.73300  Biso   1.000  C
  C26      1.0000 0.67630  0.02500  0.64980  Biso   1.000  C
  C27      1.0000 0.33200  0.96200  0.76960  Biso   1.000  C
  H15      1.0000 0.30630  0.90110  0.71230  Biso   1.000  H
  C28      1.0000 0.26700  0.96640  0.83140  Biso   1.000  C
  H16      1.0000 0.19850  0.90620  0.81560  Biso   1.000  H
  N7       1.0000 0.01070  0.20390  0.89490  Biso   1.000  N
  N8       1.0000 0.08810  0.79670  0.60190  Biso   1.000  N
  C29      1.0000 0.03770  0.30600  0.84820  Biso   1.000  C
  C30      1.0000 0.09630  0.69470  0.66120  Biso   1.000  C
  N9       1.0000 0.29690  0.94940  0.91010  Biso   1.000  N
  C31      1.0000 0.46600  0.85500  0.86920  Biso   1.000  C
  H17      1.0000 0.53180  0.78770  0.88530  Biso   1.000  H
  C32      1.0000 0.38700  0.86200  0.92700  Biso   1.000  C
  H18      1.0000 0.40530  0.79420  0.98200  Biso   1.000  H
  C33      1.0000 0.43550  0.95430  0.79140  Biso   1.000  C
  C34      1.0000 0.65980  0.95630  0.55300  Biso   1.000  C
  H19      1.0000 0.58690  0.94010  0.51280  Biso   1.000  H
  C35      1.0000 0.75050  0.96190  0.51550  Biso   1.000  C
  H20      1.0000 0.73830  0.93840  0.45100  Biso   1.000  H
  C36      1.0000 0.78640  0.03330  0.70520  Biso   1.000  C
  H21      1.0000 0.79850  0.07370  0.76730  Biso   1.000  H
  C37      1.0000 0.87330  0.02760  0.66320  Biso   1.000  C
  H22      1.0000 0.94720  0.04340  0.70150  Biso   1.000  H
  C38      1.0000 0.58440  0.96550  0.69180  Biso   1.000  C
  C39      1.0000 0.51220  0.96110  0.73300  Biso   1.000  C
  C40      1.0000 0.67630  0.97500  0.64980  Biso   1.000  C
  C41      1.0000 0.33200  0.03800  0.76960  Biso   1.000  C
  H23      1.0000 0.30630  0.09890  0.71230  Biso   1.000  H
  C42      1.0000 0.26700  0.03360  0.83140  Biso   1.000  C
  H24      1.0000 0.19850  0.09380  0.81560  Biso   1.000  H
  N10      1.0000 0.98930  0.20390  0.10510  Biso   1.000  N
  N11      1.0000 0.91190  0.79670  0.39810  Biso   1.000  N
  C43      1.0000 0.96230  0.30600  0.15180  Biso   1.000  C
  C44      1.0000 0.90370  0.69470  0.33880  Biso   1.000  C
  N12      1.0000 0.70310  0.94940  0.08990  Biso   1.000  N
  C45      1.0000 0.53400  0.85500  0.13080  Biso   1.000  C
  H25      1.0000 0.46820  0.78770  0.11470  Biso   1.000  H
  C46      1.0000 0.61300  0.86200  0.07300  Biso   1.000  C
  H26      1.0000 0.59470  0.79420  0.01800  Biso   1.000  H
  C47      1.0000 0.56450  0.95430  0.20860  Biso   1.000  C
  C48      1.0000 0.34020  0.95630  0.44700  Biso   1.000  C
  H27      1.0000 0.41310  0.94010  0.48720  Biso   1.000  H
  C49      1.0000 0.24950  0.96190  0.48450  Biso   1.000  C
  H28      1.0000 0.26170  0.93840  0.54900  Biso   1.000  H
  C50      1.0000 0.21360  0.03330  0.29480  Biso   1.000  C
  H29      1.0000 0.20150  0.07370  0.23270  Biso   1.000  H
  C51      1.0000 0.12670  0.02760  0.33680  Biso   1.000  C
  H30      1.0000 0.05280  0.04340  0.29850  Biso   1.000  H
  C52      1.0000 0.41560  0.96550  0.30820  Biso   1.000  C
  C53      1.0000 0.48780  0.96110  0.26700  Biso   1.000  C
  C54      1.0000 0.32370  0.97500  0.35020  Biso   1.000  C
  C55      1.0000 0.66800  0.03800  0.23040  Biso   1.000  C
  H31      1.0000 0.69370  0.09890  0.28770  Biso   1.000  H
  C56      1.0000 0.73300  0.03360  0.16860  Biso   1.000  C
  H32      1.0000 0.80150  0.09380  0.18440  Biso   1.000  H
  Mo1      1.0000 0.90116  0.50000  0.23261  Biso   1.000  Mo
  N13      1.0000 0.10200  0.50000  0.32380  Biso   1.000  N
  C57      1.0000 0.45020  0.50000  0.47810  Biso   1.000  C
  C58      1.0000 0.24880  0.50000  0.47190  Biso   1.000  C
  H33      1.0000 0.26790  0.50000  0.53820  Biso   1.000  H
  C59      1.0000 0.13700  0.50000  0.42020  Biso   1.000  C
  H34      1.0000 0.08240  0.50000  0.45300  Biso   1.000  H
  C60      1.0000 0.18560  0.50000  0.28110  Biso   1.000  C
  H35      1.0000 0.16430  0.50000  0.21480  Biso   1.000  H
  C61      1.0000 0.33360  0.50000  0.42750  Biso   1.000  C
  C62      1.0000 0.29730  0.50000  0.32660  Biso   1.000  C
  H36      1.0000 0.35020  0.50000  0.29210  Biso   1.000  H
  Mo2      1.0000 0.09884  0.50000  0.76739  Biso   1.000  Mo
  N14      1.0000 0.89800  0.50000  0.67620  Biso   1.000  N
  C63      1.0000 0.54980  0.50000  0.52190  Biso   1.000  C
  C64      1.0000 0.75120  0.50000  0.52810  Biso   1.000  C
  H37      1.0000 0.73210  0.50000  0.46180  Biso   1.000  H
  C65      1.0000 0.86300  0.50000  0.57980  Biso   1.000  C
  H38      1.0000 0.91760  0.50000  0.54700  Biso   1.000  H
  C66      1.0000 0.81440  0.50000  0.71890  Biso   1.000  C
  H39      1.0000 0.83570  0.50000  0.78520  Biso   1.000  H
  C67      1.0000 0.66640  0.50000  0.57250  Biso   1.000  C
  C68      1.0000 0.70270  0.50000  0.67340  Biso   1.000  C
  H40      1.0000 0.64980  0.50000  0.70790  Biso   1.000  H
  Mn1      1.0000 0.00000  0.00000  0.00000  Biso   1.000  Mn
  Mn2      1.0000 0.00000  0.00000  0.50000  Biso   1.000  Mn
  N15      1.0000 0.14380  0.00000  0.43110  Biso   1.000  N
  N16      1.0000 0.85620  0.00000  0.56890  Biso   1.000  N
