data_image0
_cell_length_a       10.658
_cell_length_b       18.4613
_cell_length_c       21.092
_cell_angle_alpha    89.068
_cell_angle_beta     88.119
_cell_angle_gamma    85.215

_symmetry_space_group_name_H-M    "P 1"
_symmetry_int_tables_number       1

loop_
  _symmetry_equiv_pos_as_xyz
  'x, y, z'

loop_
  _atom_site_label
  _atom_site_occupancy
  _atom_site_fract_x
  _atom_site_fract_y
  _atom_site_fract_z
  _atom_site_thermal_displace_type
  _atom_site_B_iso_or_equiv
  _atom_site_type_symbol
  Cu1      1.0000 0.50504  0.57171  0.87954  Biso   1.000  Cu
  Cu2      1.0000 0.36203  0.49523  0.99446  Biso   1.000  Cu
  Cu3      1.0000 0.13851  0.00690  0.49590  Biso   1.000  Cu
  O1       1.0000 0.49360  0.56372  0.97151  Biso   1.000  O
  O2       1.0000 0.25870  0.03771  0.55423  Biso   1.000  O
  O3       1.0000 0.22800  0.56199  0.96316  Biso   1.000  O
  O4       1.0000 0.71940  0.03896  0.55174  Biso   1.000  O
  O5       1.0000 0.77050  0.54822  0.95397  Biso   1.000  O
  O6       1.0000 0.32430  0.59330  0.87156  Biso   1.000  O
  O7       1.0000 0.35290  0.42740  0.91307  Biso   1.000  O
  O8       1.0000 0.14500  0.13360  0.59740  Biso   1.000  O
  C1       1.0000 0.76380  0.59060  0.90708  Biso   1.000  C
  C2       1.0000 0.36080  0.11890  0.61590  Biso   1.000  C
  O9       1.0000 0.54300  0.45580  0.87667  Biso   1.000  O
  C3       1.0000 0.35120  0.17230  0.66120  Biso   1.000  C
  H1       1.0000 0.27050  0.19080  0.67700  Biso   1.000  H
  O10      1.0000 0.80010  0.12900  0.60200  Biso   1.000  O
  C4       1.0000 0.24550  0.09350  0.58720  Biso   1.000  C
  C5       1.0000 0.99640  0.59710  0.90953  Biso   1.000  C
  H2       1.0000 0.99810  0.56730  0.94670  Biso   1.000  H
  C6       1.0000 0.10750  0.61940  0.88230  Biso   1.000  C
  C7       1.0000 0.88290  0.61900  0.88186  Biso   1.000  C
  C8       1.0000 0.45890  0.19950  0.68390  Biso   1.000  C
  C9       1.0000 0.45180  0.25730  0.73200  Biso   1.000  C
  C10      1.0000 0.71260  0.09240  0.58755  Biso   1.000  C
  C11      1.0000 0.88070  0.66420  0.82870  Biso   1.000  C
  H3       1.0000 0.80230  0.67990  0.81080  Biso   1.000  H
  C12      1.0000 0.57610  0.17160  0.65920  Biso   1.000  C
  H4       1.0000 0.65050  0.19000  0.67370  Biso   1.000  H
  C13      1.0000 0.99140  0.68690  0.80110  Biso   1.000  C
  C14      1.0000 0.10530  0.66340  0.82890  Biso   1.000  C
  H5       1.0000 0.18210  0.67790  0.81070  Biso   1.000  H
  C15      1.0000 0.23040  0.58960  0.90780  Biso   1.000  C
  C16      1.0000 0.36150  0.25940  0.78120  Biso   1.000  C
  H6       1.0000 0.30030  0.22480  0.78280  Biso   1.000  H
  C17      1.0000 0.47810  0.09000  0.59280  Biso   1.000  C
  H7       1.0000 0.48470  0.05180  0.56290  Biso   1.000  H
  C18      1.0000 0.44850  0.41990  0.87520  Biso   1.000  C
  C19      1.0000 0.44720  0.36320  0.82530  Biso   1.000  C
  C20      1.0000 0.53630  0.31030  0.72890  Biso   1.000  C
  H8       1.0000 0.59600  0.31100  0.69450  Biso   1.000  H
  C21      1.0000 0.35990  0.31110  0.82740  Biso   1.000  C
  H9       1.0000 0.29860  0.31130  0.86120  Biso   1.000  H
  C22      1.0000 0.53480  0.36210  0.77550  Biso   1.000  C
  H10      1.0000 0.59470  0.39750  0.77320  Biso   1.000  H
  O11      1.0000 0.66550  0.61300  0.87976  Biso   1.000  O
  C23      1.0000 0.58560  0.11850  0.61480  Biso   1.000  C
  O12      1.0000 0.95750  0.23890  0.56320  Biso   1.000  O
  C24      1.0000 0.93080  0.26220  0.62520  Biso   1.000  C
  C25      1.0000 0.99700  0.00370  0.62600  Biso   1.000  C
  C26      1.0000 0.46960  0.63830  0.99400  Biso   1.000  C
  O13      1.0000 0.99300  0.02793  0.55637  Biso   1.000  O
  Cu4      1.0000 0.97378  0.13202  0.56644  Biso   1.000  Cu
  O14      1.0000 0.07230  0.85390  0.53140  Biso   1.000  O
  C27      1.0000 0.88390  0.77600  0.72600  Biso   1.000  C
  H11      1.0000 0.81340  0.78010  0.75480  Biso   1.000  H
  C28      1.0000 0.98900  0.73120  0.74080  Biso   1.000  C
  C29      1.0000 0.88030  0.81510  0.66970  Biso   1.000  C
  H12      1.0000 0.80600  0.84430  0.65950  Biso   1.000  H
  C30      1.0000 0.98160  0.81230  0.62850  Biso   1.000  C
  C31      1.0000 0.97570  0.85510  0.56640  Biso   1.000  C
  C32      1.0000 0.09040  0.72860  0.69850  Biso   1.000  C
  H13      1.0000 0.16370  0.69780  0.70760  Biso   1.000  H
  C33      1.0000 0.08780  0.76960  0.64350  Biso   1.000  C
  H14      1.0000 0.16010  0.76820  0.61580  Biso   1.000  H
  O15      1.0000 0.87320  0.88970  0.55485  Biso   1.000  O
  O16      1.0000 0.42760  0.69700  0.01670  Biso   1.000  O
  O17      1.0000 0.95940  0.23300  0.59310  Biso   1.000  O
  C34      1.0000 0.85600  0.28660  0.57930  Biso   1.000  C
  C35      1.0000 0.87200  0.77400  0.73300  Biso   1.000  C
  H15      1.0000 0.80430  0.74410  0.73950  Biso   1.000  H
  C36      1.0000 0.86500  0.82900  0.68760  Biso   1.000  C
  H16      1.0000 0.79250  0.83750  0.66300  Biso   1.000  H
  C37      1.0000 0.96500  0.87260  0.67830  Biso   1.000  C
  C38      1.0000 0.07200  0.86050  0.71440  Biso   1.000  C
  H17      1.0000 0.14010  0.89010  0.70800  Biso   1.000  H
  C39      1.0000 0.07900  0.80500  0.75980  Biso   1.000  C
  H18      1.0000 0.15190  0.79670  0.78440  Biso   1.000  H
  C40      1.0000 0.97900  0.76160  0.76910  Biso   1.000  C
  O18      1.0000 0.03800  0.96440  0.61990  Biso   1.000  O
  C41      1.0000 0.95000  0.92790  0.62400  Biso   1.000  C
  O19      1.0000 0.86700  0.92660  0.59470  Biso   1.000  O
  Cu5      1.0000 0.98380  0.07670  0.61820  Biso   1.000  Cu
  O20      1.0000 0.98300  0.06340  0.53130  Biso   1.000  O
  O21      1.0000 0.03130  0.98130  0.67620  Biso   1.000  O
  Cu6      1.0000 0.49496  0.42829  0.12046  Biso   1.000  Cu
  Cu7      1.0000 0.63797  0.50477  0.00554  Biso   1.000  Cu
  Cu8      1.0000 0.86149  0.99310  0.50410  Biso   1.000  Cu
  O22      1.0000 0.50640  0.43628  0.02849  Biso   1.000  O
  O23      1.0000 0.74130  0.96229  0.44577  Biso   1.000  O
  O24      1.0000 0.77200  0.43801  0.03684  Biso   1.000  O
  O25      1.0000 0.28060  0.96104  0.44826  Biso   1.000  O
  O26      1.0000 0.22950  0.45178  0.04603  Biso   1.000  O
  O27      1.0000 0.67570  0.40670  0.12844  Biso   1.000  O
  O28      1.0000 0.64710  0.57260  0.08693  Biso   1.000  O
  O29      1.0000 0.85500  0.86640  0.40260  Biso   1.000  O
  C42      1.0000 0.23620  0.40940  0.09292  Biso   1.000  C
  C43      1.0000 0.63920  0.88110  0.38410  Biso   1.000  C
  O30      1.0000 0.45700  0.54420  0.12333  Biso   1.000  O
  C44      1.0000 0.64880  0.82770  0.33880  Biso   1.000  C
  H19      1.0000 0.72950  0.80920  0.32300  Biso   1.000  H
  O31      1.0000 0.19990  0.87100  0.39800  Biso   1.000  O
  C45      1.0000 0.75450  0.90650  0.41280  Biso   1.000  C
  C46      1.0000 0.00360  0.40290  0.09047  Biso   1.000  C
  H20      1.0000 0.00190  0.43270  0.05330  Biso   1.000  H
  C47      1.0000 0.89250  0.38060  0.11770  Biso   1.000  C
  C48      1.0000 0.11710  0.38100  0.11814  Biso   1.000  C
  C49      1.0000 0.54110  0.80050  0.31610  Biso   1.000  C
  C50      1.0000 0.54820  0.74270  0.26800  Biso   1.000  C
  C51      1.0000 0.28740  0.90760  0.41245  Biso   1.000  C
  C52      1.0000 0.11930  0.33580  0.17130  Biso   1.000  C
  H21      1.0000 0.19770  0.32010  0.18920  Biso   1.000  H
  C53      1.0000 0.42390  0.82840  0.34080  Biso   1.000  C
  H22      1.0000 0.34950  0.81000  0.32630  Biso   1.000  H
  C54      1.0000 0.00860  0.31310  0.19890  Biso   1.000  C
  C55      1.0000 0.89470  0.33660  0.17110  Biso   1.000  C
  H23      1.0000 0.81790  0.32210  0.18930  Biso   1.000  H
  C56      1.0000 0.76960  0.41040  0.09220  Biso   1.000  C
  C57      1.0000 0.63850  0.74060  0.21880  Biso   1.000  C
  H24      1.0000 0.69970  0.77520  0.21720  Biso   1.000  H
  C58      1.0000 0.52190  0.91000  0.40720  Biso   1.000  C
  H25      1.0000 0.51530  0.94820  0.43710  Biso   1.000  H
  C59      1.0000 0.55150  0.58010  0.12480  Biso   1.000  C
  C60      1.0000 0.55280  0.63680  0.17470  Biso   1.000  C
  C61      1.0000 0.46370  0.68970  0.27110  Biso   1.000  C
  H26      1.0000 0.40400  0.68900  0.30550  Biso   1.000  H
  C62      1.0000 0.64010  0.68890  0.17260  Biso   1.000  C
  H27      1.0000 0.70140  0.68870  0.13880  Biso   1.000  H
  C63      1.0000 0.46520  0.63790  0.22450  Biso   1.000  C
  H28      1.0000 0.40530  0.60250  0.22680  Biso   1.000  H
  O32      1.0000 0.33450  0.38700  0.12024  Biso   1.000  O
  C64      1.0000 0.41440  0.88150  0.38520  Biso   1.000  C
  O33      1.0000 0.04250  0.76110  0.43680  Biso   1.000  O
  C65      1.0000 0.06920  0.73780  0.37480  Biso   1.000  C
  C66      1.0000 0.00300  0.99630  0.37400  Biso   1.000  C
  C67      1.0000 0.53040  0.36170  0.00600  Biso   1.000  C
  O34      1.0000 0.00700  0.97207  0.44363  Biso   1.000  O
  Cu9      1.0000 0.02622  0.86798  0.43356  Biso   1.000  Cu
  O35      1.0000 0.92770  0.14610  0.46860  Biso   1.000  O
  C68      1.0000 0.11610  0.22400  0.27400  Biso   1.000  C
  H29      1.0000 0.18660  0.21990  0.24520  Biso   1.000  H
  C69      1.0000 0.01100  0.26880  0.25920  Biso   1.000  C
  C70      1.0000 0.11970  0.18490  0.33030  Biso   1.000  C
  H30      1.0000 0.19400  0.15570  0.34050  Biso   1.000  H
  C71      1.0000 0.01840  0.18770  0.37150  Biso   1.000  C
  C72      1.0000 0.02430  0.14490  0.43360  Biso   1.000  C
  C73      1.0000 0.90960  0.27140  0.30150  Biso   1.000  C
  H31      1.0000 0.83630  0.30220  0.29240  Biso   1.000  H
  C74      1.0000 0.91220  0.23040  0.35650  Biso   1.000  C
  H32      1.0000 0.83990  0.23180  0.38420  Biso   1.000  H
  O36      1.0000 0.12680  0.11030  0.44515  Biso   1.000  O
  O37      1.0000 0.57240  0.30300  0.98330  Biso   1.000  O
  O38      1.0000 0.04060  0.76700  0.40690  Biso   1.000  O
  C75      1.0000 0.14400  0.71340  0.42070  Biso   1.000  C
  C76      1.0000 0.12800  0.22600  0.26700  Biso   1.000  C
  H33      1.0000 0.19570  0.25590  0.26050  Biso   1.000  H
  C77      1.0000 0.13500  0.17100  0.31240  Biso   1.000  C
  H34      1.0000 0.20750  0.16250  0.33700  Biso   1.000  H
  C78      1.0000 0.03500  0.12740  0.32170  Biso   1.000  C
  C79      1.0000 0.92800  0.13950  0.28560  Biso   1.000  C
  H35      1.0000 0.85990  0.10990  0.29200  Biso   1.000  H
  C80      1.0000 0.92100  0.19500  0.24020  Biso   1.000  C
  H36      1.0000 0.84810  0.20330  0.21560  Biso   1.000  H
  C81      1.0000 0.02100  0.23840  0.23090  Biso   1.000  C
  O39      1.0000 0.96200  0.03560  0.38010  Biso   1.000  O
  C82      1.0000 0.05000  0.07210  0.37600  Biso   1.000  C
  O40      1.0000 0.13300  0.07340  0.40530  Biso   1.000  O
  Cu10     1.0000 0.01620  0.92330  0.38180  Biso   1.000  Cu
  O41      1.0000 0.01700  0.93660  0.46870  Biso   1.000  O
  O42      1.0000 0.96870  0.01870  0.32380  Biso   1.000  O
