data_image0
_cell_length_a       26.4701
_cell_length_b       26.4701
_cell_length_c       5.1884
_cell_angle_alpha    90
_cell_angle_beta     90
_cell_angle_gamma    90

_symmetry_space_group_name_H-M    "P 1"
_symmetry_int_tables_number       1

loop_
  _symmetry_equiv_pos_as_xyz
  'x, y, z'

loop_
  _atom_site_label
  _atom_site_occupancy
  _atom_site_fract_x
  _atom_site_fract_y
  _atom_site_fract_z
  _atom_site_thermal_displace_type
  _atom_site_B_iso_or_equiv
  _atom_site_type_symbol
  Zn1      1.0000 0.27172  0.21431  0.92217  Biso   1.000  Zn
  O1       1.0000 0.22160  0.25470  0.09020  Biso   1.000  O
  H1       1.0000 0.20080  0.26570  0.97830  Biso   1.000  H
  N1       1.0000 0.24900  0.14220  0.91500  Biso   1.000  N
  C1       1.0000 0.26360  0.10450  0.05940  Biso   1.000  C
  H2       1.0000 0.28850  0.10770  0.18480  Biso   1.000  H
  N2       1.0000 0.23940  0.06020  0.01140  Biso   1.000  N
  C2       1.0000 0.21119  0.12180  0.75610  Biso   1.000  C
  O2       1.0000 0.27650  0.83370  0.37040  Biso   1.000  O
  C3       1.0000 0.18230  0.14420  0.56590  Biso   1.000  C
  H3       1.0000 0.18660  0.17810  0.52430  Biso   1.000  H
  O3       1.0000 0.30770  0.87160  0.69200  Biso   1.000  O
  C4       1.0000 0.14670  0.11500  0.43830  Biso   1.000  C
  C5       1.0000 0.11760  0.13560  0.24320  Biso   1.000  C
  H4       1.0000 0.12220  0.16940  0.20000  Biso   1.000  H
  C6       1.0000 0.08190  0.10750  0.10970  Biso   1.000  C
  H5       1.0000 0.06240  0.12230  0.98120  Biso   1.000  H
  C7       1.0000 0.07590  0.05680  0.17210  Biso   1.000  C
  H6       1.0000 0.05240  0.03720  0.08400  Biso   1.000  H
  C8       1.0000 0.10480  0.03560  0.36520  Biso   1.000  C
  H7       1.0000 0.10020  0.00170  0.40660  Biso   1.000  H
  C9       1.0000 0.14080  0.06370  0.49990  Biso   1.000  C
  C10      1.0000 0.17010  0.04140  0.69050  Biso   1.000  C
  H8       1.0000 0.16660  0.00740  0.73040  Biso   1.000  H
  C11      1.0000 0.20460  0.07120  0.81880  Biso   1.000  C
  C12      1.0000 0.25420  0.01290  0.11680  Biso   1.000  C
  C13      1.0000 0.28370  0.92180  0.32970  Biso   1.000  C
  C14      1.0000 0.27260  0.01020  0.36580  Biso   1.000  C
  H9       1.0000 0.27500  0.03980  0.46190  Biso   1.000  H
  C15      1.0000 0.28740  0.96550  0.47630  Biso   1.000  C
  H10      1.0000 0.29960  0.96450  0.64440  Biso   1.000  H
  C16      1.0000 0.26540  0.92210  0.08010  Biso   1.000  C
  H11      1.0000 0.26280  0.89240  0.98520  Biso   1.000  H
  C17      1.0000 0.25090  0.96800  0.97610  Biso   1.000  C
  H12      1.0000 0.23870  0.96900  0.80810  Biso   1.000  H
  C18      1.0000 0.29580  0.87150  0.45500  Biso   1.000  C
  O4       1.0000 0.34460  0.87210  0.55000  Biso   1.000  O
  C19      1.0000 0.30400  0.00610  0.18180  Biso   1.000  C
  H13      1.0000 0.32710  0.03190  0.15420  Biso   1.000  H
  C20      1.0000 0.32020  0.96010  0.29000  Biso   1.000  C
  H14      1.0000 0.35390  0.95500  0.33400  Biso   1.000  H
  C21      1.0000 0.23240  0.92680  0.26400  Biso   1.000  C
  H15      1.0000 0.20880  0.90120  0.28820  Biso   1.000  H
  C22      1.0000 0.22000  0.97410  0.15900  Biso   1.000  C
  H16      1.0000 0.18650  0.97980  0.11520  Biso   1.000  H
  Zn2      1.0000 0.77172  0.71431  0.42217  Biso   1.000  Zn
  O5       1.0000 0.72160  0.75470  0.59020  Biso   1.000  O
  H17      1.0000 0.70080  0.76570  0.47830  Biso   1.000  H
  N3       1.0000 0.74900  0.64220  0.41500  Biso   1.000  N
  C23      1.0000 0.76360  0.60450  0.55940  Biso   1.000  C
  H18      1.0000 0.78850  0.60770  0.68480  Biso   1.000  H
  N4       1.0000 0.73940  0.56020  0.51140  Biso   1.000  N
  C24      1.0000 0.71119  0.62180  0.25610  Biso   1.000  C
  O6       1.0000 0.77650  0.33370  0.87040  Biso   1.000  O
  C25      1.0000 0.68230  0.64420  0.06590  Biso   1.000  C
  H19      1.0000 0.68660  0.67810  0.02430  Biso   1.000  H
  O7       1.0000 0.80770  0.37160  0.19200  Biso   1.000  O
  C26      1.0000 0.64670  0.61500  0.93830  Biso   1.000  C
  C27      1.0000 0.61760  0.63560  0.74320  Biso   1.000  C
  H20      1.0000 0.62220  0.66940  0.70000  Biso   1.000  H
  C28      1.0000 0.58190  0.60750  0.60970  Biso   1.000  C
  H21      1.0000 0.56240  0.62230  0.48120  Biso   1.000  H
  C29      1.0000 0.57590  0.55680  0.67210  Biso   1.000  C
  H22      1.0000 0.55240  0.53720  0.58400  Biso   1.000  H
  C30      1.0000 0.60480  0.53560  0.86520  Biso   1.000  C
  H23      1.0000 0.60020  0.50170  0.90660  Biso   1.000  H
  C31      1.0000 0.64080  0.56370  0.99990  Biso   1.000  C
  C32      1.0000 0.67010  0.54140  0.19050  Biso   1.000  C
  H24      1.0000 0.66660  0.50740  0.23040  Biso   1.000  H
  C33      1.0000 0.70460  0.57120  0.31880  Biso   1.000  C
  C34      1.0000 0.75420  0.51290  0.61680  Biso   1.000  C
  C35      1.0000 0.78370  0.42180  0.82970  Biso   1.000  C
  C36      1.0000 0.77260  0.51020  0.86580  Biso   1.000  C
  H25      1.0000 0.77500  0.53980  0.96190  Biso   1.000  H
  C37      1.0000 0.78740  0.46550  0.97630  Biso   1.000  C
  H26      1.0000 0.79960  0.46450  0.14440  Biso   1.000  H
  C38      1.0000 0.76540  0.42210  0.58010  Biso   1.000  C
  H27      1.0000 0.76280  0.39240  0.48520  Biso   1.000  H
  C39      1.0000 0.75090  0.46800  0.47610  Biso   1.000  C
  H28      1.0000 0.73870  0.46900  0.30810  Biso   1.000  H
  C40      1.0000 0.79580  0.37150  0.95500  Biso   1.000  C
  O8       1.0000 0.84460  0.37210  0.05000  Biso   1.000  O
  C41      1.0000 0.80400  0.50610  0.68180  Biso   1.000  C
  H29      1.0000 0.82710  0.53190  0.65420  Biso   1.000  H
  C42      1.0000 0.82020  0.46010  0.79000  Biso   1.000  C
  H30      1.0000 0.85390  0.45500  0.83400  Biso   1.000  H
  C43      1.0000 0.73240  0.42680  0.76400  Biso   1.000  C
  H31      1.0000 0.70880  0.40120  0.78820  Biso   1.000  H
  C44      1.0000 0.72000  0.47410  0.65900  Biso   1.000  C
  H32      1.0000 0.68650  0.47980  0.61520  Biso   1.000  H
  Zn3      1.0000 0.72828  0.78569  0.92217  Biso   1.000  Zn
  O9       1.0000 0.77840  0.74530  0.09020  Biso   1.000  O
  H33      1.0000 0.79920  0.73430  0.97830  Biso   1.000  H
  N5       1.0000 0.75100  0.85780  0.91500  Biso   1.000  N
  C45      1.0000 0.73640  0.89550  0.05940  Biso   1.000  C
  H34      1.0000 0.71150  0.89230  0.18480  Biso   1.000  H
  N6       1.0000 0.76060  0.93980  0.01140  Biso   1.000  N
  C46      1.0000 0.78881  0.87820  0.75610  Biso   1.000  C
  O10      1.0000 0.72350  0.16630  0.37040  Biso   1.000  O
  C47      1.0000 0.81770  0.85580  0.56590  Biso   1.000  C
  H35      1.0000 0.81340  0.82190  0.52430  Biso   1.000  H
  O11      1.0000 0.69230  0.12840  0.69200  Biso   1.000  O
  C48      1.0000 0.85330  0.88500  0.43830  Biso   1.000  C
  C49      1.0000 0.88240  0.86440  0.24320  Biso   1.000  C
  H36      1.0000 0.87780  0.83060  0.20000  Biso   1.000  H
  C50      1.0000 0.91810  0.89250  0.10970  Biso   1.000  C
  H37      1.0000 0.93760  0.87770  0.98120  Biso   1.000  H
  C51      1.0000 0.92410  0.94320  0.17210  Biso   1.000  C
  H38      1.0000 0.94760  0.96280  0.08400  Biso   1.000  H
  C52      1.0000 0.89520  0.96440  0.36520  Biso   1.000  C
  H39      1.0000 0.89980  0.99830  0.40660  Biso   1.000  H
  C53      1.0000 0.85920  0.93630  0.49990  Biso   1.000  C
  C54      1.0000 0.82990  0.95860  0.69050  Biso   1.000  C
  H40      1.0000 0.83340  0.99260  0.73040  Biso   1.000  H
  C55      1.0000 0.79540  0.92880  0.81880  Biso   1.000  C
  C56      1.0000 0.74580  0.98710  0.11680  Biso   1.000  C
  C57      1.0000 0.71630  0.07820  0.32970  Biso   1.000  C
  C58      1.0000 0.72740  0.98980  0.36580  Biso   1.000  C
  H41      1.0000 0.72500  0.96020  0.46190  Biso   1.000  H
  C59      1.0000 0.71260  0.03450  0.47630  Biso   1.000  C
  H42      1.0000 0.70040  0.03550  0.64440  Biso   1.000  H
  C60      1.0000 0.73460  0.07790  0.08010  Biso   1.000  C
  H43      1.0000 0.73720  0.10760  0.98520  Biso   1.000  H
  C61      1.0000 0.74910  0.03200  0.97610  Biso   1.000  C
  H44      1.0000 0.76130  0.03100  0.80810  Biso   1.000  H
  C62      1.0000 0.70420  0.12850  0.45500  Biso   1.000  C
  O12      1.0000 0.65540  0.12790  0.55000  Biso   1.000  O
  C63      1.0000 0.69600  0.99390  0.18180  Biso   1.000  C
  H45      1.0000 0.67290  0.96810  0.15420  Biso   1.000  H
  C64      1.0000 0.67980  0.03990  0.29000  Biso   1.000  C
  H46      1.0000 0.64610  0.04500  0.33400  Biso   1.000  H
  C65      1.0000 0.76760  0.07320  0.26400  Biso   1.000  C
  H47      1.0000 0.79120  0.09880  0.28820  Biso   1.000  H
  C66      1.0000 0.78000  0.02590  0.15900  Biso   1.000  C
  H48      1.0000 0.81350  0.02020  0.11520  Biso   1.000  H
  Zn4      1.0000 0.22828  0.28569  0.42217  Biso   1.000  Zn
  O13      1.0000 0.27840  0.24530  0.59020  Biso   1.000  O
  H49      1.0000 0.29920  0.23430  0.47830  Biso   1.000  H
  N7       1.0000 0.25100  0.35780  0.41500  Biso   1.000  N
  C67      1.0000 0.23640  0.39550  0.55940  Biso   1.000  C
  H50      1.0000 0.21150  0.39230  0.68480  Biso   1.000  H
  N8       1.0000 0.26060  0.43980  0.51140  Biso   1.000  N
  C68      1.0000 0.28881  0.37820  0.25610  Biso   1.000  C
  O14      1.0000 0.22350  0.66630  0.87040  Biso   1.000  O
  C69      1.0000 0.31770  0.35580  0.06590  Biso   1.000  C
  H51      1.0000 0.31340  0.32190  0.02430  Biso   1.000  H
  O15      1.0000 0.19230  0.62840  0.19200  Biso   1.000  O
  C70      1.0000 0.35330  0.38500  0.93830  Biso   1.000  C
  C71      1.0000 0.38240  0.36440  0.74320  Biso   1.000  C
  H52      1.0000 0.37780  0.33060  0.70000  Biso   1.000  H
  C72      1.0000 0.41810  0.39250  0.60970  Biso   1.000  C
  H53      1.0000 0.43760  0.37770  0.48120  Biso   1.000  H
  C73      1.0000 0.42410  0.44320  0.67210  Biso   1.000  C
  H54      1.0000 0.44760  0.46280  0.58400  Biso   1.000  H
  C74      1.0000 0.39520  0.46440  0.86520  Biso   1.000  C
  H55      1.0000 0.39980  0.49830  0.90660  Biso   1.000  H
  C75      1.0000 0.35920  0.43630  0.99990  Biso   1.000  C
  C76      1.0000 0.32990  0.45860  0.19050  Biso   1.000  C
  H56      1.0000 0.33340  0.49260  0.23040  Biso   1.000  H
  C77      1.0000 0.29540  0.42880  0.31880  Biso   1.000  C
  C78      1.0000 0.24580  0.48710  0.61680  Biso   1.000  C
  C79      1.0000 0.21630  0.57820  0.82970  Biso   1.000  C
  C80      1.0000 0.22740  0.48980  0.86580  Biso   1.000  C
  H57      1.0000 0.22500  0.46020  0.96190  Biso   1.000  H
  C81      1.0000 0.21260  0.53450  0.97630  Biso   1.000  C
  H58      1.0000 0.20040  0.53550  0.14440  Biso   1.000  H
  C82      1.0000 0.23460  0.57790  0.58010  Biso   1.000  C
  H59      1.0000 0.23720  0.60760  0.48520  Biso   1.000  H
  C83      1.0000 0.24910  0.53200  0.47610  Biso   1.000  C
  H60      1.0000 0.26130  0.53100  0.30810  Biso   1.000  H
  C84      1.0000 0.20420  0.62850  0.95500  Biso   1.000  C
  O16      1.0000 0.15540  0.62790  0.05000  Biso   1.000  O
  C85      1.0000 0.19600  0.49390  0.68180  Biso   1.000  C
  H61      1.0000 0.17290  0.46810  0.65420  Biso   1.000  H
  C86      1.0000 0.17980  0.53990  0.79000  Biso   1.000  C
  H62      1.0000 0.14610  0.54500  0.83400  Biso   1.000  H
  C87      1.0000 0.26760  0.57320  0.76400  Biso   1.000  C
  H63      1.0000 0.29120  0.59880  0.78820  Biso   1.000  H
  C88      1.0000 0.28000  0.52590  0.65900  Biso   1.000  C
  H64      1.0000 0.31350  0.52020  0.61520  Biso   1.000  H
  Zn5      1.0000 0.21431  0.72828  0.07783  Biso   1.000  Zn
  O17      1.0000 0.25470  0.77840  0.90980  Biso   1.000  O
  H65      1.0000 0.26570  0.79920  0.02170  Biso   1.000  H
  N9       1.0000 0.14220  0.75100  0.08500  Biso   1.000  N
  C89      1.0000 0.10450  0.73640  0.94060  Biso   1.000  C
  H66      1.0000 0.10770  0.71150  0.81520  Biso   1.000  H
  N10      1.0000 0.06020  0.76060  0.98860  Biso   1.000  N
  C90      1.0000 0.12180  0.78881  0.24390  Biso   1.000  C
  O18      1.0000 0.83370  0.72350  0.62960  Biso   1.000  O
  C91      1.0000 0.14420  0.81770  0.43410  Biso   1.000  C
  H67      1.0000 0.17810  0.81340  0.47570  Biso   1.000  H
  O19      1.0000 0.87160  0.69230  0.30800  Biso   1.000  O
  C92      1.0000 0.11500  0.85330  0.56170  Biso   1.000  C
  C93      1.0000 0.13560  0.88240  0.75680  Biso   1.000  C
  H68      1.0000 0.16940  0.87780  0.80000  Biso   1.000  H
  C94      1.0000 0.10750  0.91810  0.89030  Biso   1.000  C
  H69      1.0000 0.12230  0.93760  0.01880  Biso   1.000  H
  C95      1.0000 0.05680  0.92410  0.82790  Biso   1.000  C
  H70      1.0000 0.03720  0.94760  0.91600  Biso   1.000  H
  C96      1.0000 0.03560  0.89520  0.63480  Biso   1.000  C
  H71      1.0000 0.00170  0.89980  0.59340  Biso   1.000  H
  C97      1.0000 0.06370  0.85920  0.50010  Biso   1.000  C
  C98      1.0000 0.04140  0.82990  0.30950  Biso   1.000  C
  H72      1.0000 0.00740  0.83340  0.26960  Biso   1.000  H
  C99      1.0000 0.07120  0.79540  0.18120  Biso   1.000  C
  C100     1.0000 0.01290  0.74580  0.88320  Biso   1.000  C
  C101     1.0000 0.92180  0.71630  0.67030  Biso   1.000  C
  C102     1.0000 0.01020  0.72740  0.63420  Biso   1.000  C
  H73      1.0000 0.03980  0.72500  0.53810  Biso   1.000  H
  C103     1.0000 0.96550  0.71260  0.52370  Biso   1.000  C
  H74      1.0000 0.96450  0.70040  0.35560  Biso   1.000  H
  C104     1.0000 0.92210  0.73460  0.91990  Biso   1.000  C
  H75      1.0000 0.89240  0.73720  0.01480  Biso   1.000  H
  C105     1.0000 0.96800  0.74910  0.02390  Biso   1.000  C
  H76      1.0000 0.96900  0.76130  0.19190  Biso   1.000  H
  C106     1.0000 0.87150  0.70420  0.54500  Biso   1.000  C
  O20      1.0000 0.87210  0.65540  0.45000  Biso   1.000  O
  C107     1.0000 0.00610  0.69600  0.81820  Biso   1.000  C
  H77      1.0000 0.03190  0.67290  0.84580  Biso   1.000  H
  C108     1.0000 0.96010  0.67980  0.71000  Biso   1.000  C
  H78      1.0000 0.95500  0.64610  0.66600  Biso   1.000  H
  C109     1.0000 0.92680  0.76760  0.73600  Biso   1.000  C
  H79      1.0000 0.90120  0.79120  0.71180  Biso   1.000  H
  C110     1.0000 0.97410  0.78000  0.84100  Biso   1.000  C
  H80      1.0000 0.97980  0.81350  0.88480  Biso   1.000  H
  Zn6      1.0000 0.71431  0.22828  0.57783  Biso   1.000  Zn
  O21      1.0000 0.75470  0.27840  0.40980  Biso   1.000  O
  H81      1.0000 0.76570  0.29920  0.52170  Biso   1.000  H
  N11      1.0000 0.64220  0.25100  0.58500  Biso   1.000  N
  C111     1.0000 0.60450  0.23640  0.44060  Biso   1.000  C
  H82      1.0000 0.60770  0.21150  0.31520  Biso   1.000  H
  N12      1.0000 0.56020  0.26060  0.48860  Biso   1.000  N
  C112     1.0000 0.62180  0.28881  0.74390  Biso   1.000  C
  O22      1.0000 0.33370  0.22350  0.12960  Biso   1.000  O
  C113     1.0000 0.64420  0.31770  0.93410  Biso   1.000  C
  H83      1.0000 0.67810  0.31340  0.97570  Biso   1.000  H
  O23      1.0000 0.37160  0.19230  0.80800  Biso   1.000  O
  C114     1.0000 0.61500  0.35330  0.06170  Biso   1.000  C
  C115     1.0000 0.63560  0.38240  0.25680  Biso   1.000  C
  H84      1.0000 0.66940  0.37780  0.30000  Biso   1.000  H
  C116     1.0000 0.60750  0.41810  0.39030  Biso   1.000  C
  H85      1.0000 0.62230  0.43760  0.51880  Biso   1.000  H
  C117     1.0000 0.55680  0.42410  0.32790  Biso   1.000  C
  H86      1.0000 0.53720  0.44760  0.41600  Biso   1.000  H
  C118     1.0000 0.53560  0.39520  0.13480  Biso   1.000  C
  H87      1.0000 0.50170  0.39980  0.09340  Biso   1.000  H
  C119     1.0000 0.56370  0.35920  0.00010  Biso   1.000  C
  C120     1.0000 0.54140  0.32990  0.80950  Biso   1.000  C
  H88      1.0000 0.50740  0.33340  0.76960  Biso   1.000  H
  C121     1.0000 0.57120  0.29540  0.68120  Biso   1.000  C
  C122     1.0000 0.51290  0.24580  0.38320  Biso   1.000  C
  C123     1.0000 0.42180  0.21630  0.17030  Biso   1.000  C
  C124     1.0000 0.51020  0.22740  0.13420  Biso   1.000  C
  H89      1.0000 0.53980  0.22500  0.03810  Biso   1.000  H
  C125     1.0000 0.46550  0.21260  0.02370  Biso   1.000  C
  H90      1.0000 0.46450  0.20040  0.85560  Biso   1.000  H
  C126     1.0000 0.42210  0.23460  0.41990  Biso   1.000  C
  H91      1.0000 0.39240  0.23720  0.51480  Biso   1.000  H
  C127     1.0000 0.46800  0.24910  0.52390  Biso   1.000  C
  H92      1.0000 0.46900  0.26130  0.69190  Biso   1.000  H
  C128     1.0000 0.37150  0.20420  0.04500  Biso   1.000  C
  O24      1.0000 0.37210  0.15540  0.95000  Biso   1.000  O
  C129     1.0000 0.50610  0.19600  0.31820  Biso   1.000  C
  H93      1.0000 0.53190  0.17290  0.34580  Biso   1.000  H
  C130     1.0000 0.46010  0.17980  0.21000  Biso   1.000  C
  H94      1.0000 0.45500  0.14610  0.16600  Biso   1.000  H
  C131     1.0000 0.42680  0.26760  0.23600  Biso   1.000  C
  H95      1.0000 0.40120  0.29120  0.21180  Biso   1.000  H
  C132     1.0000 0.47410  0.28000  0.34100  Biso   1.000  C
  H96      1.0000 0.47980  0.31350  0.38480  Biso   1.000  H
  Zn7      1.0000 0.78569  0.27172  0.07783  Biso   1.000  Zn
  O25      1.0000 0.74530  0.22160  0.90980  Biso   1.000  O
  H97      1.0000 0.73430  0.20080  0.02170  Biso   1.000  H
  N13      1.0000 0.85780  0.24900  0.08500  Biso   1.000  N
  C133     1.0000 0.89550  0.26360  0.94060  Biso   1.000  C
  H98      1.0000 0.89230  0.28850  0.81520  Biso   1.000  H
  N14      1.0000 0.93980  0.23940  0.98860  Biso   1.000  N
  C134     1.0000 0.87820  0.21119  0.24390  Biso   1.000  C
  O26      1.0000 0.16630  0.27650  0.62960  Biso   1.000  O
  C135     1.0000 0.85580  0.18230  0.43410  Biso   1.000  C
  H99      1.0000 0.82190  0.18660  0.47570  Biso   1.000  H
  O27      1.0000 0.12840  0.30770  0.30800  Biso   1.000  O
  C136     1.0000 0.88500  0.14670  0.56170  Biso   1.000  C
  C137     1.0000 0.86440  0.11760  0.75680  Biso   1.000  C
  H100     1.0000 0.83060  0.12220  0.80000  Biso   1.000  H
  C138     1.0000 0.89250  0.08190  0.89030  Biso   1.000  C
  H101     1.0000 0.87770  0.06240  0.01880  Biso   1.000  H
  C139     1.0000 0.94320  0.07590  0.82790  Biso   1.000  C
  H102     1.0000 0.96280  0.05240  0.91600  Biso   1.000  H
  C140     1.0000 0.96440  0.10480  0.63480  Biso   1.000  C
  H103     1.0000 0.99830  0.10020  0.59340  Biso   1.000  H
  C141     1.0000 0.93630  0.14080  0.50010  Biso   1.000  C
  C142     1.0000 0.95860  0.17010  0.30950  Biso   1.000  C
  H104     1.0000 0.99260  0.16660  0.26960  Biso   1.000  H
  C143     1.0000 0.92880  0.20460  0.18120  Biso   1.000  C
  C144     1.0000 0.98710  0.25420  0.88320  Biso   1.000  C
  C145     1.0000 0.07820  0.28370  0.67030  Biso   1.000  C
  C146     1.0000 0.98980  0.27260  0.63420  Biso   1.000  C
  H105     1.0000 0.96020  0.27500  0.53810  Biso   1.000  H
  C147     1.0000 0.03450  0.28740  0.52370  Biso   1.000  C
  H106     1.0000 0.03550  0.29960  0.35560  Biso   1.000  H
  C148     1.0000 0.07790  0.26540  0.91990  Biso   1.000  C
  H107     1.0000 0.10760  0.26280  0.01480  Biso   1.000  H
  C149     1.0000 0.03200  0.25090  0.02390  Biso   1.000  C
  H108     1.0000 0.03100  0.23870  0.19190  Biso   1.000  H
  C150     1.0000 0.12850  0.29580  0.54500  Biso   1.000  C
  O28      1.0000 0.12790  0.34460  0.45000  Biso   1.000  O
  C151     1.0000 0.99390  0.30400  0.81820  Biso   1.000  C
  H109     1.0000 0.96810  0.32710  0.84580  Biso   1.000  H
  C152     1.0000 0.03990  0.32020  0.71000  Biso   1.000  C
  H110     1.0000 0.04500  0.35390  0.66600  Biso   1.000  H
  C153     1.0000 0.07320  0.23240  0.73600  Biso   1.000  C
  H111     1.0000 0.09880  0.20880  0.71180  Biso   1.000  H
  C154     1.0000 0.02590  0.22000  0.84100  Biso   1.000  C
  H112     1.0000 0.02020  0.18650  0.88480  Biso   1.000  H
  Zn8      1.0000 0.28569  0.77172  0.57783  Biso   1.000  Zn
  O29      1.0000 0.24530  0.72160  0.40980  Biso   1.000  O
  H113     1.0000 0.23430  0.70080  0.52170  Biso   1.000  H
  N15      1.0000 0.35780  0.74900  0.58500  Biso   1.000  N
  C155     1.0000 0.39550  0.76360  0.44060  Biso   1.000  C
  H114     1.0000 0.39230  0.78850  0.31520  Biso   1.000  H
  N16      1.0000 0.43980  0.73940  0.48860  Biso   1.000  N
  C156     1.0000 0.37820  0.71119  0.74390  Biso   1.000  C
  O30      1.0000 0.66630  0.77650  0.12960  Biso   1.000  O
  C157     1.0000 0.35580  0.68230  0.93410  Biso   1.000  C
  H115     1.0000 0.32190  0.68660  0.97570  Biso   1.000  H
  O31      1.0000 0.62840  0.80770  0.80800  Biso   1.000  O
  C158     1.0000 0.38500  0.64670  0.06170  Biso   1.000  C
  C159     1.0000 0.36440  0.61760  0.25680  Biso   1.000  C
  H116     1.0000 0.33060  0.62220  0.30000  Biso   1.000  H
  C160     1.0000 0.39250  0.58190  0.39030  Biso   1.000  C
  H117     1.0000 0.37770  0.56240  0.51880  Biso   1.000  H
  C161     1.0000 0.44320  0.57590  0.32790  Biso   1.000  C
  H118     1.0000 0.46280  0.55240  0.41600  Biso   1.000  H
  C162     1.0000 0.46440  0.60480  0.13480  Biso   1.000  C
  H119     1.0000 0.49830  0.60020  0.09340  Biso   1.000  H
  C163     1.0000 0.43630  0.64080  0.00010  Biso   1.000  C
  C164     1.0000 0.45860  0.67010  0.80950  Biso   1.000  C
  H120     1.0000 0.49260  0.66660  0.76960  Biso   1.000  H
  C165     1.0000 0.42880  0.70460  0.68120  Biso   1.000  C
  C166     1.0000 0.48710  0.75420  0.38320  Biso   1.000  C
  C167     1.0000 0.57820  0.78370  0.17030  Biso   1.000  C
  C168     1.0000 0.48980  0.77260  0.13420  Biso   1.000  C
  H121     1.0000 0.46020  0.77500  0.03810  Biso   1.000  H
  C169     1.0000 0.53450  0.78740  0.02370  Biso   1.000  C
  H122     1.0000 0.53550  0.79960  0.85560  Biso   1.000  H
  C170     1.0000 0.57790  0.76540  0.41990  Biso   1.000  C
  H123     1.0000 0.60760  0.76280  0.51480  Biso   1.000  H
  C171     1.0000 0.53200  0.75090  0.52390  Biso   1.000  C
  H124     1.0000 0.53100  0.73870  0.69190  Biso   1.000  H
  C172     1.0000 0.62850  0.79580  0.04500  Biso   1.000  C
  O32      1.0000 0.62790  0.84460  0.95000  Biso   1.000  O
  C173     1.0000 0.49390  0.80400  0.31820  Biso   1.000  C
  H125     1.0000 0.46810  0.82710  0.34580  Biso   1.000  H
  C174     1.0000 0.53990  0.82020  0.21000  Biso   1.000  C
  H126     1.0000 0.54500  0.85390  0.16600  Biso   1.000  H
  C175     1.0000 0.57320  0.73240  0.23600  Biso   1.000  C
  H127     1.0000 0.59880  0.70880  0.21180  Biso   1.000  H
  C176     1.0000 0.52590  0.72000  0.34100  Biso   1.000  C
  H128     1.0000 0.52020  0.68650  0.38480  Biso   1.000  H
