data_image0
_cell_length_a       26.3388
_cell_length_b       26.3388
_cell_length_c       4.856
_cell_angle_alpha    90
_cell_angle_beta     90
_cell_angle_gamma    90

_symmetry_space_group_name_H-M    "P 1"
_symmetry_int_tables_number       1

loop_
  _symmetry_equiv_pos_as_xyz
  'x, y, z'

loop_
  _atom_site_label
  _atom_site_occupancy
  _atom_site_fract_x
  _atom_site_fract_y
  _atom_site_fract_z
  _atom_site_thermal_displace_type
  _atom_site_B_iso_or_equiv
  _atom_site_type_symbol
  Zn1      1.0000 0.26997  0.21596  0.89820  Biso   1.000  Zn
  O1       1.0000 0.22830  0.27190  0.00810  Biso   1.000  O
  N1       1.0000 0.24190  0.14700  0.95400  Biso   1.000  N
  O2       1.0000 0.33670  0.22920  0.05300  Biso   1.000  O
  H1       1.0000 0.20690  0.28320  0.89250  Biso   1.000  H
  C1       1.0000 0.25750  0.11010  0.11200  Biso   1.000  C
  C2       1.0000 0.20380  0.12470  0.78370  Biso   1.000  C
  H2       1.0000 0.28250  0.11460  0.24500  Biso   1.000  H
  N2       1.0000 0.23450  0.06470  0.06800  Biso   1.000  N
  C3       1.0000 0.17450  0.14630  0.57880  Biso   1.000  C
  C4       1.0000 0.19960  0.07370  0.85900  Biso   1.000  C
  C5       1.0000 0.24900  0.01760  0.18500  Biso   1.000  C
  H3       1.0000 0.17800  0.18040  0.53290  Biso   1.000  H
  C6       1.0000 0.13950  0.11550  0.44290  Biso   1.000  C
  C7       1.0000 0.16520  0.04220  0.72610  Biso   1.000  C
  C8       1.0000 0.26880  0.01450  0.44800  Biso   1.000  C
  C9       1.0000 0.24340  0.97310  0.03500  Biso   1.000  C
  C10      1.0000 0.10970  0.13560  0.23580  Biso   1.000  C
  C11      1.0000 0.13550  0.06430  0.51970  Biso   1.000  C
  H4       1.0000 0.16200  0.00810  0.77220  Biso   1.000  H
  H5       1.0000 0.27260  0.04410  0.55080  Biso   1.000  H
  C12      1.0000 0.28280  0.96880  0.56300  Biso   1.000  C
  C13      1.0000 0.25680  0.92670  0.14200  Biso   1.000  C
  H6       1.0000 0.23020  0.97480  0.85770  Biso   1.000  H
  H7       1.0000 0.11330  0.16970  0.19000  Biso   1.000  H
  C14      1.0000 0.07430  0.10630  0.09360  Biso   1.000  C
  C15      1.0000 0.09990  0.03450  0.37800  Biso   1.000  C
  C16      1.0000 0.27660  0.92610  0.40400  Biso   1.000  C
  H8       1.0000 0.29590  0.96680  0.74070  Biso   1.000  H
  H9       1.0000 0.25260  0.89700  0.04110  Biso   1.000  H
  H10      1.0000 0.05430  0.12000  0.95450  Biso   1.000  H
  C17      1.0000 0.07040  0.05550  0.16970  Biso   1.000  C
  H11      1.0000 0.09600  0.00050  0.42430  Biso   1.000  H
  C18      1.0000 0.29280  0.87460  0.51900  Biso   1.000  C
  H12      1.0000 0.04730  0.03480  0.07800  Biso   1.000  H
  O3       1.0000 0.29670  0.87240  0.78000  Biso   1.000  O
  O4       1.0000 0.34150  0.86540  0.49700  Biso   1.000  O
  C19      1.0000 0.29850  0.01060  0.26500  Biso   1.000  C
  H13      1.0000 0.32180  0.03680  0.24510  Biso   1.000  H
  C20      1.0000 0.31390  0.96410  0.37800  Biso   1.000  C
  H14      1.0000 0.34730  0.95860  0.43290  Biso   1.000  H
  C21      1.0000 0.22570  0.93080  0.32400  Biso   1.000  C
  H15      1.0000 0.20200  0.90480  0.34130  Biso   1.000  H
  C22      1.0000 0.21450  0.97870  0.21600  Biso   1.000  C
  H16      1.0000 0.18120  0.98470  0.16020  Biso   1.000  H
  Zn2      1.0000 0.76997  0.71596  0.39820  Biso   1.000  Zn
  O5       1.0000 0.72830  0.77190  0.50810  Biso   1.000  O
  N3       1.0000 0.74190  0.64700  0.45400  Biso   1.000  N
  O6       1.0000 0.83670  0.72920  0.55300  Biso   1.000  O
  H17      1.0000 0.70690  0.78320  0.39250  Biso   1.000  H
  C23      1.0000 0.75750  0.61010  0.61200  Biso   1.000  C
  C24      1.0000 0.70380  0.62470  0.28370  Biso   1.000  C
  H18      1.0000 0.78250  0.61460  0.74500  Biso   1.000  H
  N4       1.0000 0.73450  0.56470  0.56800  Biso   1.000  N
  C25      1.0000 0.67450  0.64630  0.07880  Biso   1.000  C
  C26      1.0000 0.69960  0.57370  0.35900  Biso   1.000  C
  C27      1.0000 0.74900  0.51760  0.68500  Biso   1.000  C
  H19      1.0000 0.67800  0.68040  0.03290  Biso   1.000  H
  C28      1.0000 0.63950  0.61550  0.94290  Biso   1.000  C
  C29      1.0000 0.66520  0.54220  0.22610  Biso   1.000  C
  C30      1.0000 0.76880  0.51450  0.94800  Biso   1.000  C
  C31      1.0000 0.74340  0.47310  0.53500  Biso   1.000  C
  C32      1.0000 0.60970  0.63560  0.73580  Biso   1.000  C
  C33      1.0000 0.63550  0.56430  0.01970  Biso   1.000  C
  H20      1.0000 0.66200  0.50810  0.27220  Biso   1.000  H
  H21      1.0000 0.77260  0.54410  0.05080  Biso   1.000  H
  C34      1.0000 0.78280  0.46880  0.06300  Biso   1.000  C
  C35      1.0000 0.75680  0.42670  0.64200  Biso   1.000  C
  H22      1.0000 0.73020  0.47480  0.35770  Biso   1.000  H
  H23      1.0000 0.61330  0.66970  0.69000  Biso   1.000  H
  C36      1.0000 0.57430  0.60630  0.59360  Biso   1.000  C
  C37      1.0000 0.59990  0.53450  0.87800  Biso   1.000  C
  C38      1.0000 0.77660  0.42610  0.90400  Biso   1.000  C
  H24      1.0000 0.79590  0.46680  0.24070  Biso   1.000  H
  H25      1.0000 0.75260  0.39700  0.54110  Biso   1.000  H
  H26      1.0000 0.55430  0.62000  0.45450  Biso   1.000  H
  C39      1.0000 0.57040  0.55550  0.66970  Biso   1.000  C
  H27      1.0000 0.59600  0.50050  0.92430  Biso   1.000  H
  C40      1.0000 0.79280  0.37460  0.01900  Biso   1.000  C
  H28      1.0000 0.54730  0.53480  0.57800  Biso   1.000  H
  O7       1.0000 0.79670  0.37240  0.28000  Biso   1.000  O
  O8       1.0000 0.84150  0.36540  0.99700  Biso   1.000  O
  C41      1.0000 0.79850  0.51060  0.76500  Biso   1.000  C
  H29      1.0000 0.82180  0.53680  0.74510  Biso   1.000  H
  C42      1.0000 0.81390  0.46410  0.87800  Biso   1.000  C
  H30      1.0000 0.84730  0.45860  0.93290  Biso   1.000  H
  C43      1.0000 0.72570  0.43080  0.82400  Biso   1.000  C
  H31      1.0000 0.70200  0.40480  0.84130  Biso   1.000  H
  C44      1.0000 0.71450  0.47870  0.71600  Biso   1.000  C
  H32      1.0000 0.68120  0.48470  0.66020  Biso   1.000  H
  Zn3      1.0000 0.73003  0.78404  0.89820  Biso   1.000  Zn
  O9       1.0000 0.77170  0.72810  0.00810  Biso   1.000  O
  N5       1.0000 0.75810  0.85300  0.95400  Biso   1.000  N
  O10      1.0000 0.66330  0.77080  0.05300  Biso   1.000  O
  H33      1.0000 0.79310  0.71680  0.89250  Biso   1.000  H
  C45      1.0000 0.74250  0.88990  0.11200  Biso   1.000  C
  C46      1.0000 0.79620  0.87530  0.78370  Biso   1.000  C
  H34      1.0000 0.71750  0.88540  0.24500  Biso   1.000  H
  N6       1.0000 0.76550  0.93530  0.06800  Biso   1.000  N
  C47      1.0000 0.82550  0.85370  0.57880  Biso   1.000  C
  C48      1.0000 0.80040  0.92630  0.85900  Biso   1.000  C
  C49      1.0000 0.75100  0.98240  0.18500  Biso   1.000  C
  H35      1.0000 0.82200  0.81960  0.53290  Biso   1.000  H
  C50      1.0000 0.86050  0.88450  0.44290  Biso   1.000  C
  C51      1.0000 0.83480  0.95780  0.72610  Biso   1.000  C
  C52      1.0000 0.73120  0.98550  0.44800  Biso   1.000  C
  C53      1.0000 0.75660  0.02690  0.03500  Biso   1.000  C
  C54      1.0000 0.89030  0.86440  0.23580  Biso   1.000  C
  C55      1.0000 0.86450  0.93570  0.51970  Biso   1.000  C
  H36      1.0000 0.83800  0.99190  0.77220  Biso   1.000  H
  H37      1.0000 0.72740  0.95590  0.55080  Biso   1.000  H
  C56      1.0000 0.71720  0.03120  0.56300  Biso   1.000  C
  C57      1.0000 0.74320  0.07330  0.14200  Biso   1.000  C
  H38      1.0000 0.76980  0.02520  0.85770  Biso   1.000  H
  H39      1.0000 0.88670  0.83030  0.19000  Biso   1.000  H
  C58      1.0000 0.92570  0.89370  0.09360  Biso   1.000  C
  C59      1.0000 0.90010  0.96550  0.37800  Biso   1.000  C
  C60      1.0000 0.72340  0.07390  0.40400  Biso   1.000  C
  H40      1.0000 0.70410  0.03320  0.74070  Biso   1.000  H
  H41      1.0000 0.74740  0.10300  0.04110  Biso   1.000  H
  H42      1.0000 0.94570  0.88000  0.95450  Biso   1.000  H
  C61      1.0000 0.92960  0.94450  0.16970  Biso   1.000  C
  H43      1.0000 0.90400  0.99950  0.42430  Biso   1.000  H
  C62      1.0000 0.70720  0.12540  0.51900  Biso   1.000  C
  H44      1.0000 0.95270  0.96520  0.07800  Biso   1.000  H
  O11      1.0000 0.70330  0.12760  0.78000  Biso   1.000  O
  O12      1.0000 0.65850  0.13460  0.49700  Biso   1.000  O
  C63      1.0000 0.70150  0.98940  0.26500  Biso   1.000  C
  H45      1.0000 0.67820  0.96320  0.24510  Biso   1.000  H
  C64      1.0000 0.68610  0.03590  0.37800  Biso   1.000  C
  H46      1.0000 0.65270  0.04140  0.43290  Biso   1.000  H
  C65      1.0000 0.77430  0.06920  0.32400  Biso   1.000  C
  H47      1.0000 0.79800  0.09520  0.34130  Biso   1.000  H
  C66      1.0000 0.78550  0.02130  0.21600  Biso   1.000  C
  H48      1.0000 0.81880  0.01530  0.16020  Biso   1.000  H
  Zn4      1.0000 0.23003  0.28404  0.39820  Biso   1.000  Zn
  O13      1.0000 0.27170  0.22810  0.50810  Biso   1.000  O
  N7       1.0000 0.25810  0.35300  0.45400  Biso   1.000  N
  O14      1.0000 0.16330  0.27080  0.55300  Biso   1.000  O
  H49      1.0000 0.29310  0.21680  0.39250  Biso   1.000  H
  C67      1.0000 0.24250  0.38990  0.61200  Biso   1.000  C
  C68      1.0000 0.29620  0.37530  0.28370  Biso   1.000  C
  H50      1.0000 0.21750  0.38540  0.74500  Biso   1.000  H
  N8       1.0000 0.26550  0.43530  0.56800  Biso   1.000  N
  C69      1.0000 0.32550  0.35370  0.07880  Biso   1.000  C
  C70      1.0000 0.30040  0.42630  0.35900  Biso   1.000  C
  C71      1.0000 0.25100  0.48240  0.68500  Biso   1.000  C
  H51      1.0000 0.32200  0.31960  0.03290  Biso   1.000  H
  C72      1.0000 0.36050  0.38450  0.94290  Biso   1.000  C
  C73      1.0000 0.33480  0.45780  0.22610  Biso   1.000  C
  C74      1.0000 0.23120  0.48550  0.94800  Biso   1.000  C
  C75      1.0000 0.25660  0.52690  0.53500  Biso   1.000  C
  C76      1.0000 0.39030  0.36440  0.73580  Biso   1.000  C
  C77      1.0000 0.36450  0.43570  0.01970  Biso   1.000  C
  H52      1.0000 0.33800  0.49190  0.27220  Biso   1.000  H
  H53      1.0000 0.22740  0.45590  0.05080  Biso   1.000  H
  C78      1.0000 0.21720  0.53120  0.06300  Biso   1.000  C
  C79      1.0000 0.24320  0.57330  0.64200  Biso   1.000  C
  H54      1.0000 0.26980  0.52520  0.35770  Biso   1.000  H
  H55      1.0000 0.38670  0.33030  0.69000  Biso   1.000  H
  C80      1.0000 0.42570  0.39370  0.59360  Biso   1.000  C
  C81      1.0000 0.40010  0.46550  0.87800  Biso   1.000  C
  C82      1.0000 0.22340  0.57390  0.90400  Biso   1.000  C
  H56      1.0000 0.20410  0.53320  0.24070  Biso   1.000  H
  H57      1.0000 0.24740  0.60300  0.54110  Biso   1.000  H
  H58      1.0000 0.44570  0.38000  0.45450  Biso   1.000  H
  C83      1.0000 0.42960  0.44450  0.66970  Biso   1.000  C
  H59      1.0000 0.40400  0.49950  0.92430  Biso   1.000  H
  C84      1.0000 0.20720  0.62540  0.01900  Biso   1.000  C
  H60      1.0000 0.45270  0.46520  0.57800  Biso   1.000  H
  O15      1.0000 0.20330  0.62760  0.28000  Biso   1.000  O
  O16      1.0000 0.15850  0.63460  0.99700  Biso   1.000  O
  C85      1.0000 0.20150  0.48940  0.76500  Biso   1.000  C
  H61      1.0000 0.17820  0.46320  0.74510  Biso   1.000  H
  C86      1.0000 0.18610  0.53590  0.87800  Biso   1.000  C
  H62      1.0000 0.15270  0.54140  0.93290  Biso   1.000  H
  C87      1.0000 0.27430  0.56920  0.82400  Biso   1.000  C
  H63      1.0000 0.29800  0.59520  0.84130  Biso   1.000  H
  C88      1.0000 0.28550  0.52130  0.71600  Biso   1.000  C
  H64      1.0000 0.31880  0.51530  0.66020  Biso   1.000  H
  Zn5      1.0000 0.21596  0.73003  0.10180  Biso   1.000  Zn
  O17      1.0000 0.27190  0.77170  0.99190  Biso   1.000  O
  N9       1.0000 0.14700  0.75810  0.04600  Biso   1.000  N
  O18      1.0000 0.22920  0.66330  0.94700  Biso   1.000  O
  H65      1.0000 0.28320  0.79310  0.10750  Biso   1.000  H
  C89      1.0000 0.11010  0.74250  0.88800  Biso   1.000  C
  C90      1.0000 0.12470  0.79620  0.21630  Biso   1.000  C
  H66      1.0000 0.11460  0.71750  0.75500  Biso   1.000  H
  N10      1.0000 0.06470  0.76550  0.93200  Biso   1.000  N
  C91      1.0000 0.14630  0.82550  0.42120  Biso   1.000  C
  C92      1.0000 0.07370  0.80040  0.14100  Biso   1.000  C
  C93      1.0000 0.01760  0.75100  0.81500  Biso   1.000  C
  H67      1.0000 0.18040  0.82200  0.46710  Biso   1.000  H
  C94      1.0000 0.11550  0.86050  0.55710  Biso   1.000  C
  C95      1.0000 0.04220  0.83480  0.27390  Biso   1.000  C
  C96      1.0000 0.01450  0.73120  0.55200  Biso   1.000  C
  C97      1.0000 0.97310  0.75660  0.96500  Biso   1.000  C
  C98      1.0000 0.13560  0.89030  0.76420  Biso   1.000  C
  C99      1.0000 0.06430  0.86450  0.48030  Biso   1.000  C
  H68      1.0000 0.00810  0.83800  0.22780  Biso   1.000  H
  H69      1.0000 0.04410  0.72740  0.44920  Biso   1.000  H
  C100     1.0000 0.96880  0.71720  0.43700  Biso   1.000  C
  C101     1.0000 0.92670  0.74320  0.85800  Biso   1.000  C
  H70      1.0000 0.97480  0.76980  0.14230  Biso   1.000  H
  H71      1.0000 0.16970  0.88670  0.81000  Biso   1.000  H
  C102     1.0000 0.10630  0.92570  0.90640  Biso   1.000  C
  C103     1.0000 0.03450  0.90010  0.62200  Biso   1.000  C
  C104     1.0000 0.92610  0.72340  0.59600  Biso   1.000  C
  H72      1.0000 0.96680  0.70410  0.25930  Biso   1.000  H
  H73      1.0000 0.89700  0.74740  0.95890  Biso   1.000  H
  H74      1.0000 0.12000  0.94570  0.04550  Biso   1.000  H
  C105     1.0000 0.05550  0.92960  0.83030  Biso   1.000  C
  H75      1.0000 0.00050  0.90400  0.57570  Biso   1.000  H
  C106     1.0000 0.87460  0.70720  0.48100  Biso   1.000  C
  H76      1.0000 0.03480  0.95270  0.92200  Biso   1.000  H
  O19      1.0000 0.87240  0.70330  0.22000  Biso   1.000  O
  O20      1.0000 0.86540  0.65850  0.50300  Biso   1.000  O
  C107     1.0000 0.01060  0.70150  0.73500  Biso   1.000  C
  H77      1.0000 0.03680  0.67820  0.75490  Biso   1.000  H
  C108     1.0000 0.96410  0.68610  0.62200  Biso   1.000  C
  H78      1.0000 0.95860  0.65270  0.56710  Biso   1.000  H
  C109     1.0000 0.93080  0.77430  0.67600  Biso   1.000  C
  H79      1.0000 0.90480  0.79800  0.65870  Biso   1.000  H
  C110     1.0000 0.97870  0.78550  0.78400  Biso   1.000  C
  H80      1.0000 0.98470  0.81880  0.83980  Biso   1.000  H
  Zn6      1.0000 0.71596  0.23003  0.60180  Biso   1.000  Zn
  O21      1.0000 0.77190  0.27170  0.49190  Biso   1.000  O
  N11      1.0000 0.64700  0.25810  0.54600  Biso   1.000  N
  O22      1.0000 0.72920  0.16330  0.44700  Biso   1.000  O
  H81      1.0000 0.78320  0.29310  0.60750  Biso   1.000  H
  C111     1.0000 0.61010  0.24250  0.38800  Biso   1.000  C
  C112     1.0000 0.62470  0.29620  0.71630  Biso   1.000  C
  H82      1.0000 0.61460  0.21750  0.25500  Biso   1.000  H
  N12      1.0000 0.56470  0.26550  0.43200  Biso   1.000  N
  C113     1.0000 0.64630  0.32550  0.92120  Biso   1.000  C
  C114     1.0000 0.57370  0.30040  0.64100  Biso   1.000  C
  C115     1.0000 0.51760  0.25100  0.31500  Biso   1.000  C
  H83      1.0000 0.68040  0.32200  0.96710  Biso   1.000  H
  C116     1.0000 0.61550  0.36050  0.05710  Biso   1.000  C
  C117     1.0000 0.54220  0.33480  0.77390  Biso   1.000  C
  C118     1.0000 0.51450  0.23120  0.05200  Biso   1.000  C
  C119     1.0000 0.47310  0.25660  0.46500  Biso   1.000  C
  C120     1.0000 0.63560  0.39030  0.26420  Biso   1.000  C
  C121     1.0000 0.56430  0.36450  0.98030  Biso   1.000  C
  H84      1.0000 0.50810  0.33800  0.72780  Biso   1.000  H
  H85      1.0000 0.54410  0.22740  0.94920  Biso   1.000  H
  C122     1.0000 0.46880  0.21720  0.93700  Biso   1.000  C
  C123     1.0000 0.42670  0.24320  0.35800  Biso   1.000  C
  H86      1.0000 0.47480  0.26980  0.64230  Biso   1.000  H
  H87      1.0000 0.66970  0.38670  0.31000  Biso   1.000  H
  C124     1.0000 0.60630  0.42570  0.40640  Biso   1.000  C
  C125     1.0000 0.53450  0.40010  0.12200  Biso   1.000  C
  C126     1.0000 0.42610  0.22340  0.09600  Biso   1.000  C
  H88      1.0000 0.46680  0.20410  0.75930  Biso   1.000  H
  H89      1.0000 0.39700  0.24740  0.45890  Biso   1.000  H
  H90      1.0000 0.62000  0.44570  0.54550  Biso   1.000  H
  C127     1.0000 0.55550  0.42960  0.33030  Biso   1.000  C
  H91      1.0000 0.50050  0.40400  0.07570  Biso   1.000  H
  C128     1.0000 0.37460  0.20720  0.98100  Biso   1.000  C
  H92      1.0000 0.53480  0.45270  0.42200  Biso   1.000  H
  O23      1.0000 0.37240  0.20330  0.72000  Biso   1.000  O
  O24      1.0000 0.36540  0.15850  0.00300  Biso   1.000  O
  C129     1.0000 0.51060  0.20150  0.23500  Biso   1.000  C
  H93      1.0000 0.53680  0.17820  0.25490  Biso   1.000  H
  C130     1.0000 0.46410  0.18610  0.12200  Biso   1.000  C
  H94      1.0000 0.45860  0.15270  0.06710  Biso   1.000  H
  C131     1.0000 0.43080  0.27430  0.17600  Biso   1.000  C
  H95      1.0000 0.40480  0.29800  0.15870  Biso   1.000  H
  C132     1.0000 0.47870  0.28550  0.28400  Biso   1.000  C
  H96      1.0000 0.48470  0.31880  0.33980  Biso   1.000  H
  Zn7      1.0000 0.78404  0.26997  0.10180  Biso   1.000  Zn
  O25      1.0000 0.72810  0.22830  0.99190  Biso   1.000  O
  N13      1.0000 0.85300  0.24190  0.04600  Biso   1.000  N
  O26      1.0000 0.77080  0.33670  0.94700  Biso   1.000  O
  H97      1.0000 0.71680  0.20690  0.10750  Biso   1.000  H
  C133     1.0000 0.88990  0.25750  0.88800  Biso   1.000  C
  C134     1.0000 0.87530  0.20380  0.21630  Biso   1.000  C
  H98      1.0000 0.88540  0.28250  0.75500  Biso   1.000  H
  N14      1.0000 0.93530  0.23450  0.93200  Biso   1.000  N
  C135     1.0000 0.85370  0.17450  0.42120  Biso   1.000  C
  C136     1.0000 0.92630  0.19960  0.14100  Biso   1.000  C
  C137     1.0000 0.98240  0.24900  0.81500  Biso   1.000  C
  H99      1.0000 0.81960  0.17800  0.46710  Biso   1.000  H
  C138     1.0000 0.88450  0.13950  0.55710  Biso   1.000  C
  C139     1.0000 0.95780  0.16520  0.27390  Biso   1.000  C
  C140     1.0000 0.98550  0.26880  0.55200  Biso   1.000  C
  C141     1.0000 0.02690  0.24340  0.96500  Biso   1.000  C
  C142     1.0000 0.86440  0.10970  0.76420  Biso   1.000  C
  C143     1.0000 0.93570  0.13550  0.48030  Biso   1.000  C
  H100     1.0000 0.99190  0.16200  0.22780  Biso   1.000  H
  H101     1.0000 0.95590  0.27260  0.44920  Biso   1.000  H
  C144     1.0000 0.03120  0.28280  0.43700  Biso   1.000  C
  C145     1.0000 0.07330  0.25680  0.85800  Biso   1.000  C
  H102     1.0000 0.02520  0.23020  0.14230  Biso   1.000  H
  H103     1.0000 0.83030  0.11330  0.81000  Biso   1.000  H
  C146     1.0000 0.89370  0.07430  0.90640  Biso   1.000  C
  C147     1.0000 0.96550  0.09990  0.62200  Biso   1.000  C
  C148     1.0000 0.07390  0.27660  0.59600  Biso   1.000  C
  H104     1.0000 0.03320  0.29590  0.25930  Biso   1.000  H
  H105     1.0000 0.10300  0.25260  0.95890  Biso   1.000  H
  H106     1.0000 0.88000  0.05430  0.04550  Biso   1.000  H
  C149     1.0000 0.94450  0.07040  0.83030  Biso   1.000  C
  H107     1.0000 0.99950  0.09600  0.57570  Biso   1.000  H
  C150     1.0000 0.12540  0.29280  0.48100  Biso   1.000  C
  H108     1.0000 0.96520  0.04730  0.92200  Biso   1.000  H
  O27      1.0000 0.12760  0.29670  0.22000  Biso   1.000  O
  O28      1.0000 0.13460  0.34150  0.50300  Biso   1.000  O
  C151     1.0000 0.98940  0.29850  0.73500  Biso   1.000  C
  H109     1.0000 0.96320  0.32180  0.75490  Biso   1.000  H
  C152     1.0000 0.03590  0.31390  0.62200  Biso   1.000  C
  H110     1.0000 0.04140  0.34730  0.56710  Biso   1.000  H
  C153     1.0000 0.06920  0.22570  0.67600  Biso   1.000  C
  H111     1.0000 0.09520  0.20200  0.65870  Biso   1.000  H
  C154     1.0000 0.02130  0.21450  0.78400  Biso   1.000  C
  H112     1.0000 0.01530  0.18120  0.83980  Biso   1.000  H
  Zn8      1.0000 0.28404  0.76997  0.60180  Biso   1.000  Zn
  O29      1.0000 0.22810  0.72830  0.49190  Biso   1.000  O
  N15      1.0000 0.35300  0.74190  0.54600  Biso   1.000  N
  O30      1.0000 0.27080  0.83670  0.44700  Biso   1.000  O
  H113     1.0000 0.21680  0.70690  0.60750  Biso   1.000  H
  C155     1.0000 0.38990  0.75750  0.38800  Biso   1.000  C
  C156     1.0000 0.37530  0.70380  0.71630  Biso   1.000  C
  H114     1.0000 0.38540  0.78250  0.25500  Biso   1.000  H
  N16      1.0000 0.43530  0.73450  0.43200  Biso   1.000  N
  C157     1.0000 0.35370  0.67450  0.92120  Biso   1.000  C
  C158     1.0000 0.42630  0.69960  0.64100  Biso   1.000  C
  C159     1.0000 0.48240  0.74900  0.31500  Biso   1.000  C
  H115     1.0000 0.31960  0.67800  0.96710  Biso   1.000  H
  C160     1.0000 0.38450  0.63950  0.05710  Biso   1.000  C
  C161     1.0000 0.45780  0.66520  0.77390  Biso   1.000  C
  C162     1.0000 0.48550  0.76880  0.05200  Biso   1.000  C
  C163     1.0000 0.52690  0.74340  0.46500  Biso   1.000  C
  C164     1.0000 0.36440  0.60970  0.26420  Biso   1.000  C
  C165     1.0000 0.43570  0.63550  0.98030  Biso   1.000  C
  H116     1.0000 0.49190  0.66200  0.72780  Biso   1.000  H
  H117     1.0000 0.45590  0.77260  0.94920  Biso   1.000  H
  C166     1.0000 0.53120  0.78280  0.93700  Biso   1.000  C
  C167     1.0000 0.57330  0.75680  0.35800  Biso   1.000  C
  H118     1.0000 0.52520  0.73020  0.64230  Biso   1.000  H
  H119     1.0000 0.33030  0.61330  0.31000  Biso   1.000  H
  C168     1.0000 0.39370  0.57430  0.40640  Biso   1.000  C
  C169     1.0000 0.46550  0.59990  0.12200  Biso   1.000  C
  C170     1.0000 0.57390  0.77660  0.09600  Biso   1.000  C
  H120     1.0000 0.53320  0.79590  0.75930  Biso   1.000  H
  H121     1.0000 0.60300  0.75260  0.45890  Biso   1.000  H
  H122     1.0000 0.38000  0.55430  0.54550  Biso   1.000  H
  C171     1.0000 0.44450  0.57040  0.33030  Biso   1.000  C
  H123     1.0000 0.49950  0.59600  0.07570  Biso   1.000  H
  C172     1.0000 0.62540  0.79280  0.98100  Biso   1.000  C
  H124     1.0000 0.46520  0.54730  0.42200  Biso   1.000  H
  O31      1.0000 0.62760  0.79670  0.72000  Biso   1.000  O
  O32      1.0000 0.63460  0.84150  0.00300  Biso   1.000  O
  C173     1.0000 0.48940  0.79850  0.23500  Biso   1.000  C
  H125     1.0000 0.46320  0.82180  0.25490  Biso   1.000  H
  C174     1.0000 0.53590  0.81390  0.12200  Biso   1.000  C
  H126     1.0000 0.54140  0.84730  0.06710  Biso   1.000  H
  C175     1.0000 0.56920  0.72570  0.17600  Biso   1.000  C
  H127     1.0000 0.59520  0.70200  0.15870  Biso   1.000  H
  C176     1.0000 0.52130  0.71450  0.28400  Biso   1.000  C
  H128     1.0000 0.51530  0.68120  0.33980  Biso   1.000  H
