data_image0
_cell_length_a       26.558
_cell_length_b       26.558
_cell_length_c       4.6212
_cell_angle_alpha    90
_cell_angle_beta     90
_cell_angle_gamma    90

_symmetry_space_group_name_H-M    "P 1"
_symmetry_int_tables_number       1

loop_
  _symmetry_equiv_pos_as_xyz
  'x, y, z'

loop_
  _atom_site_label
  _atom_site_occupancy
  _atom_site_fract_x
  _atom_site_fract_y
  _atom_site_fract_z
  _atom_site_thermal_displace_type
  _atom_site_B_iso_or_equiv
  _atom_site_type_symbol
  Zn1      1.0000 0.26891  0.21573  0.92670  Biso   1.000  Zn
  O1       1.0000 0.22860  0.27670  0.01000  Biso   1.000  O
  H1       1.0000 0.20690  0.28830  0.89270  Biso   1.000  H
  N1       1.0000 0.24110  0.14840  0.98000  Biso   1.000  N
  C1       1.0000 0.25560  0.11090  0.14200  Biso   1.000  C
  H2       1.0000 0.28070  0.11420  0.28100  Biso   1.000  H
  N2       1.0000 0.23140  0.06660  0.09380  Biso   1.000  N
  C2       1.0000 0.20210  0.12460  0.80510  Biso   1.000  C
  O2       1.0000 0.26750  0.83840  0.48100  Biso   1.000  O
  C3       1.0000 0.17290  0.14600  0.59070  Biso   1.000  C
  H3       1.0000 0.17690  0.17970  0.54110  Biso   1.000  H
  O3       1.0000 0.34010  0.86820  0.43400  Biso   1.000  O
  C4       1.0000 0.13750  0.11660  0.45110  Biso   1.000  C
  C5       1.0000 0.10760  0.13620  0.23400  Biso   1.000  C
  H4       1.0000 0.11170  0.16990  0.18400  Biso   1.000  H
  C6       1.0000 0.07200  0.10830  0.08860  Biso   1.000  C
  H5       1.0000 0.05220  0.12280  0.94520  Biso   1.000  H
  C7       1.0000 0.06630  0.05820  0.16040  Biso   1.000  C
  H6       1.0000 0.04290  0.03820  0.06460  Biso   1.000  H
  C8       1.0000 0.09600  0.03820  0.37600  Biso   1.000  C
  H7       1.0000 0.09170  0.00460  0.42580  Biso   1.000  H
  C9       1.0000 0.13190  0.06610  0.52270  Biso   1.000  C
  C10      1.0000 0.16140  0.04470  0.73700  Biso   1.000  C
  H8       1.0000 0.15730  0.01110  0.78860  Biso   1.000  H
  C11      1.0000 0.19680  0.07420  0.87200  Biso   1.000  C
  C12      1.0000 0.24530  0.01890  0.21300  Biso   1.000  C
  C13      1.0000 0.27170  0.92620  0.43100  Biso   1.000  C
  C14      1.0000 0.26450  0.01420  0.49000  Biso   1.000  C
  H9       1.0000 0.26860  0.04300  0.60210  Biso   1.000  H
  C15      1.0000 0.27790  0.96820  0.60400  Biso   1.000  C
  H10      1.0000 0.29070  0.96550  0.79060  Biso   1.000  H
  C16      1.0000 0.25230  0.92870  0.15400  Biso   1.000  C
  H11      1.0000 0.24800  0.89980  0.04300  Biso   1.000  H
  C17      1.0000 0.23950  0.97550  0.04800  Biso   1.000  C
  H12      1.0000 0.22660  0.97810  0.86190  Biso   1.000  H
  C18      1.0000 0.29360  0.87530  0.50800  Biso   1.000  C
  O4       1.0000 0.28050  0.86720  0.76900  Biso   1.000  O
  C19      1.0000 0.29400  0.01090  0.30100  Biso   1.000  C
  H13      1.0000 0.31750  0.03670  0.28660  Biso   1.000  H
  C20      1.0000 0.30870  0.96400  0.41300  Biso   1.000  C
  H14      1.0000 0.34160  0.95820  0.47370  Biso   1.000  H
  C21      1.0000 0.22130  0.93180  0.34500  Biso   1.000  C
  H15      1.0000 0.19750  0.90620  0.35780  Biso   1.000  H
  C22      1.0000 0.21060  0.97990  0.23700  Biso   1.000  C
  H16      1.0000 0.17780  0.98630  0.17640  Biso   1.000  H
  Zn2      1.0000 0.76891  0.71573  0.42670  Biso   1.000  Zn
  O5       1.0000 0.72860  0.77670  0.51000  Biso   1.000  O
  H17      1.0000 0.70690  0.78830  0.39270  Biso   1.000  H
  N3       1.0000 0.74110  0.64840  0.48000  Biso   1.000  N
  C23      1.0000 0.75560  0.61090  0.64200  Biso   1.000  C
  H18      1.0000 0.78070  0.61420  0.78100  Biso   1.000  H
  N4       1.0000 0.73140  0.56660  0.59380  Biso   1.000  N
  C24      1.0000 0.70210  0.62460  0.30510  Biso   1.000  C
  O6       1.0000 0.76750  0.33840  0.98100  Biso   1.000  O
  C25      1.0000 0.67290  0.64600  0.09070  Biso   1.000  C
  H19      1.0000 0.67690  0.67970  0.04110  Biso   1.000  H
  O7       1.0000 0.84010  0.36820  0.93400  Biso   1.000  O
  C26      1.0000 0.63750  0.61660  0.95110  Biso   1.000  C
  C27      1.0000 0.60760  0.63620  0.73400  Biso   1.000  C
  H20      1.0000 0.61170  0.66990  0.68400  Biso   1.000  H
  C28      1.0000 0.57200  0.60830  0.58860  Biso   1.000  C
  H21      1.0000 0.55220  0.62280  0.44520  Biso   1.000  H
  C29      1.0000 0.56630  0.55820  0.66040  Biso   1.000  C
  H22      1.0000 0.54290  0.53820  0.56460  Biso   1.000  H
  C30      1.0000 0.59600  0.53820  0.87600  Biso   1.000  C
  H23      1.0000 0.59170  0.50460  0.92580  Biso   1.000  H
  C31      1.0000 0.63190  0.56610  0.02270  Biso   1.000  C
  C32      1.0000 0.66140  0.54470  0.23700  Biso   1.000  C
  H24      1.0000 0.65730  0.51110  0.28860  Biso   1.000  H
  C33      1.0000 0.69680  0.57420  0.37200  Biso   1.000  C
  C34      1.0000 0.74530  0.51890  0.71300  Biso   1.000  C
  C35      1.0000 0.77170  0.42620  0.93100  Biso   1.000  C
  C36      1.0000 0.76450  0.51420  0.99000  Biso   1.000  C
  H25      1.0000 0.76860  0.54300  0.10210  Biso   1.000  H
  C37      1.0000 0.77790  0.46820  0.10400  Biso   1.000  C
  H26      1.0000 0.79070  0.46550  0.29060  Biso   1.000  H
  C38      1.0000 0.75230  0.42870  0.65400  Biso   1.000  C
  H27      1.0000 0.74800  0.39980  0.54300  Biso   1.000  H
  C39      1.0000 0.73950  0.47550  0.54800  Biso   1.000  C
  H28      1.0000 0.72660  0.47810  0.36190  Biso   1.000  H
  C40      1.0000 0.79360  0.37530  0.00800  Biso   1.000  C
  O8       1.0000 0.78050  0.36720  0.26900  Biso   1.000  O
  C41      1.0000 0.79400  0.51090  0.80100  Biso   1.000  C
  H29      1.0000 0.81750  0.53670  0.78660  Biso   1.000  H
  C42      1.0000 0.80870  0.46400  0.91300  Biso   1.000  C
  H30      1.0000 0.84160  0.45820  0.97370  Biso   1.000  H
  C43      1.0000 0.72130  0.43180  0.84500  Biso   1.000  C
  H31      1.0000 0.69750  0.40620  0.85780  Biso   1.000  H
  C44      1.0000 0.71060  0.47990  0.73700  Biso   1.000  C
  H32      1.0000 0.67780  0.48630  0.67640  Biso   1.000  H
  Zn3      1.0000 0.73109  0.78427  0.92670  Biso   1.000  Zn
  O9       1.0000 0.77140  0.72330  0.01000  Biso   1.000  O
  H33      1.0000 0.79310  0.71170  0.89270  Biso   1.000  H
  N5       1.0000 0.75890  0.85160  0.98000  Biso   1.000  N
  C45      1.0000 0.74440  0.88910  0.14200  Biso   1.000  C
  H34      1.0000 0.71930  0.88580  0.28100  Biso   1.000  H
  N6       1.0000 0.76860  0.93340  0.09380  Biso   1.000  N
  C46      1.0000 0.79790  0.87540  0.80510  Biso   1.000  C
  O10      1.0000 0.73250  0.16160  0.48100  Biso   1.000  O
  C47      1.0000 0.82710  0.85400  0.59070  Biso   1.000  C
  H35      1.0000 0.82310  0.82030  0.54110  Biso   1.000  H
  O11      1.0000 0.65990  0.13180  0.43400  Biso   1.000  O
  C48      1.0000 0.86250  0.88340  0.45110  Biso   1.000  C
  C49      1.0000 0.89240  0.86380  0.23400  Biso   1.000  C
  H36      1.0000 0.88830  0.83010  0.18400  Biso   1.000  H
  C50      1.0000 0.92800  0.89170  0.08860  Biso   1.000  C
  H37      1.0000 0.94780  0.87720  0.94520  Biso   1.000  H
  C51      1.0000 0.93370  0.94180  0.16040  Biso   1.000  C
  H38      1.0000 0.95710  0.96180  0.06460  Biso   1.000  H
  C52      1.0000 0.90400  0.96180  0.37600  Biso   1.000  C
  H39      1.0000 0.90830  0.99540  0.42580  Biso   1.000  H
  C53      1.0000 0.86810  0.93390  0.52270  Biso   1.000  C
  C54      1.0000 0.83860  0.95530  0.73700  Biso   1.000  C
  H40      1.0000 0.84270  0.98890  0.78860  Biso   1.000  H
  C55      1.0000 0.80320  0.92580  0.87200  Biso   1.000  C
  C56      1.0000 0.75470  0.98110  0.21300  Biso   1.000  C
  C57      1.0000 0.72830  0.07380  0.43100  Biso   1.000  C
  C58      1.0000 0.73550  0.98580  0.49000  Biso   1.000  C
  H41      1.0000 0.73140  0.95700  0.60210  Biso   1.000  H
  C59      1.0000 0.72210  0.03180  0.60400  Biso   1.000  C
  H42      1.0000 0.70930  0.03450  0.79060  Biso   1.000  H
  C60      1.0000 0.74770  0.07130  0.15400  Biso   1.000  C
  H43      1.0000 0.75200  0.10020  0.04300  Biso   1.000  H
  C61      1.0000 0.76050  0.02450  0.04800  Biso   1.000  C
  H44      1.0000 0.77340  0.02190  0.86190  Biso   1.000  H
  C62      1.0000 0.70640  0.12470  0.50800  Biso   1.000  C
  O12      1.0000 0.71950  0.13280  0.76900  Biso   1.000  O
  C63      1.0000 0.70600  0.98910  0.30100  Biso   1.000  C
  H45      1.0000 0.68250  0.96330  0.28660  Biso   1.000  H
  C64      1.0000 0.69130  0.03600  0.41300  Biso   1.000  C
  H46      1.0000 0.65840  0.04180  0.47370  Biso   1.000  H
  C65      1.0000 0.77870  0.06820  0.34500  Biso   1.000  C
  H47      1.0000 0.80250  0.09380  0.35780  Biso   1.000  H
  C66      1.0000 0.78940  0.02010  0.23700  Biso   1.000  C
  H48      1.0000 0.82220  0.01370  0.17640  Biso   1.000  H
  Zn4      1.0000 0.23109  0.28427  0.42670  Biso   1.000  Zn
  O13      1.0000 0.27140  0.22330  0.51000  Biso   1.000  O
  H49      1.0000 0.29310  0.21170  0.39270  Biso   1.000  H
  N7       1.0000 0.25890  0.35160  0.48000  Biso   1.000  N
  C67      1.0000 0.24440  0.38910  0.64200  Biso   1.000  C
  H50      1.0000 0.21930  0.38580  0.78100  Biso   1.000  H
  N8       1.0000 0.26860  0.43340  0.59380  Biso   1.000  N
  C68      1.0000 0.29790  0.37540  0.30510  Biso   1.000  C
  O14      1.0000 0.23250  0.66160  0.98100  Biso   1.000  O
  C69      1.0000 0.32710  0.35400  0.09070  Biso   1.000  C
  H51      1.0000 0.32310  0.32030  0.04110  Biso   1.000  H
  O15      1.0000 0.15990  0.63180  0.93400  Biso   1.000  O
  C70      1.0000 0.36250  0.38340  0.95110  Biso   1.000  C
  C71      1.0000 0.39240  0.36380  0.73400  Biso   1.000  C
  H52      1.0000 0.38830  0.33010  0.68400  Biso   1.000  H
  C72      1.0000 0.42800  0.39170  0.58860  Biso   1.000  C
  H53      1.0000 0.44780  0.37720  0.44520  Biso   1.000  H
  C73      1.0000 0.43370  0.44180  0.66040  Biso   1.000  C
  H54      1.0000 0.45710  0.46180  0.56460  Biso   1.000  H
  C74      1.0000 0.40400  0.46180  0.87600  Biso   1.000  C
  H55      1.0000 0.40830  0.49540  0.92580  Biso   1.000  H
  C75      1.0000 0.36810  0.43390  0.02270  Biso   1.000  C
  C76      1.0000 0.33860  0.45530  0.23700  Biso   1.000  C
  H56      1.0000 0.34270  0.48890  0.28860  Biso   1.000  H
  C77      1.0000 0.30320  0.42580  0.37200  Biso   1.000  C
  C78      1.0000 0.25470  0.48110  0.71300  Biso   1.000  C
  C79      1.0000 0.22830  0.57380  0.93100  Biso   1.000  C
  C80      1.0000 0.23550  0.48580  0.99000  Biso   1.000  C
  H57      1.0000 0.23140  0.45700  0.10210  Biso   1.000  H
  C81      1.0000 0.22210  0.53180  0.10400  Biso   1.000  C
  H58      1.0000 0.20930  0.53450  0.29060  Biso   1.000  H
  C82      1.0000 0.24770  0.57130  0.65400  Biso   1.000  C
  H59      1.0000 0.25200  0.60020  0.54300  Biso   1.000  H
  C83      1.0000 0.26050  0.52450  0.54800  Biso   1.000  C
  H60      1.0000 0.27340  0.52190  0.36190  Biso   1.000  H
  C84      1.0000 0.20640  0.62470  0.00800  Biso   1.000  C
  O16      1.0000 0.21950  0.63280  0.26900  Biso   1.000  O
  C85      1.0000 0.20600  0.48910  0.80100  Biso   1.000  C
  H61      1.0000 0.18250  0.46330  0.78660  Biso   1.000  H
  C86      1.0000 0.19130  0.53600  0.91300  Biso   1.000  C
  H62      1.0000 0.15840  0.54180  0.97370  Biso   1.000  H
  C87      1.0000 0.27870  0.56820  0.84500  Biso   1.000  C
  H63      1.0000 0.30250  0.59380  0.85780  Biso   1.000  H
  C88      1.0000 0.28940  0.52010  0.73700  Biso   1.000  C
  H64      1.0000 0.32220  0.51370  0.67640  Biso   1.000  H
  Zn5      1.0000 0.21573  0.73109  0.07330  Biso   1.000  Zn
  O17      1.0000 0.27670  0.77140  0.99000  Biso   1.000  O
  H65      1.0000 0.28830  0.79310  0.10730  Biso   1.000  H
  N9       1.0000 0.14840  0.75890  0.02000  Biso   1.000  N
  C89      1.0000 0.11090  0.74440  0.85800  Biso   1.000  C
  H66      1.0000 0.11420  0.71930  0.71900  Biso   1.000  H
  N10      1.0000 0.06660  0.76860  0.90620  Biso   1.000  N
  C90      1.0000 0.12460  0.79790  0.19490  Biso   1.000  C
  O18      1.0000 0.83840  0.73250  0.51900  Biso   1.000  O
  C91      1.0000 0.14600  0.82710  0.40930  Biso   1.000  C
  H67      1.0000 0.17970  0.82310  0.45890  Biso   1.000  H
  O19      1.0000 0.86820  0.65990  0.56600  Biso   1.000  O
  C92      1.0000 0.11660  0.86250  0.54890  Biso   1.000  C
  C93      1.0000 0.13620  0.89240  0.76600  Biso   1.000  C
  H68      1.0000 0.16990  0.88830  0.81600  Biso   1.000  H
  C94      1.0000 0.10830  0.92800  0.91140  Biso   1.000  C
  H69      1.0000 0.12280  0.94780  0.05480  Biso   1.000  H
  C95      1.0000 0.05820  0.93370  0.83960  Biso   1.000  C
  H70      1.0000 0.03820  0.95710  0.93540  Biso   1.000  H
  C96      1.0000 0.03820  0.90400  0.62400  Biso   1.000  C
  H71      1.0000 0.00460  0.90830  0.57420  Biso   1.000  H
  C97      1.0000 0.06610  0.86810  0.47730  Biso   1.000  C
  C98      1.0000 0.04470  0.83860  0.26300  Biso   1.000  C
  H72      1.0000 0.01110  0.84270  0.21140  Biso   1.000  H
  C99      1.0000 0.07420  0.80320  0.12800  Biso   1.000  C
  C100     1.0000 0.01890  0.75470  0.78700  Biso   1.000  C
  C101     1.0000 0.92620  0.72830  0.56900  Biso   1.000  C
  C102     1.0000 0.01420  0.73550  0.51000  Biso   1.000  C
  H73      1.0000 0.04300  0.73140  0.39790  Biso   1.000  H
  C103     1.0000 0.96820  0.72210  0.39600  Biso   1.000  C
  H74      1.0000 0.96550  0.70930  0.20940  Biso   1.000  H
  C104     1.0000 0.92870  0.74770  0.84600  Biso   1.000  C
  H75      1.0000 0.89980  0.75200  0.95700  Biso   1.000  H
  C105     1.0000 0.97550  0.76050  0.95200  Biso   1.000  C
  H76      1.0000 0.97810  0.77340  0.13810  Biso   1.000  H
  C106     1.0000 0.87530  0.70640  0.49200  Biso   1.000  C
  O20      1.0000 0.86720  0.71950  0.23100  Biso   1.000  O
  C107     1.0000 0.01090  0.70600  0.69900  Biso   1.000  C
  H77      1.0000 0.03670  0.68250  0.71340  Biso   1.000  H
  C108     1.0000 0.96400  0.69130  0.58700  Biso   1.000  C
  H78      1.0000 0.95820  0.65840  0.52630  Biso   1.000  H
  C109     1.0000 0.93180  0.77870  0.65500  Biso   1.000  C
  H79      1.0000 0.90620  0.80250  0.64220  Biso   1.000  H
  C110     1.0000 0.97990  0.78940  0.76300  Biso   1.000  C
  H80      1.0000 0.98630  0.82220  0.82360  Biso   1.000  H
  Zn6      1.0000 0.71573  0.23109  0.57330  Biso   1.000  Zn
  O21      1.0000 0.77670  0.27140  0.49000  Biso   1.000  O
  H81      1.0000 0.78830  0.29310  0.60730  Biso   1.000  H
  N11      1.0000 0.64840  0.25890  0.52000  Biso   1.000  N
  C111     1.0000 0.61090  0.24440  0.35800  Biso   1.000  C
  H82      1.0000 0.61420  0.21930  0.21900  Biso   1.000  H
  N12      1.0000 0.56660  0.26860  0.40620  Biso   1.000  N
  C112     1.0000 0.62460  0.29790  0.69490  Biso   1.000  C
  O22      1.0000 0.33840  0.23250  0.01900  Biso   1.000  O
  C113     1.0000 0.64600  0.32710  0.90930  Biso   1.000  C
  H83      1.0000 0.67970  0.32310  0.95890  Biso   1.000  H
  O23      1.0000 0.36820  0.15990  0.06600  Biso   1.000  O
  C114     1.0000 0.61660  0.36250  0.04890  Biso   1.000  C
  C115     1.0000 0.63620  0.39240  0.26600  Biso   1.000  C
  H84      1.0000 0.66990  0.38830  0.31600  Biso   1.000  H
  C116     1.0000 0.60830  0.42800  0.41140  Biso   1.000  C
  H85      1.0000 0.62280  0.44780  0.55480  Biso   1.000  H
  C117     1.0000 0.55820  0.43370  0.33960  Biso   1.000  C
  H86      1.0000 0.53820  0.45710  0.43540  Biso   1.000  H
  C118     1.0000 0.53820  0.40400  0.12400  Biso   1.000  C
  H87      1.0000 0.50460  0.40830  0.07420  Biso   1.000  H
  C119     1.0000 0.56610  0.36810  0.97730  Biso   1.000  C
  C120     1.0000 0.54470  0.33860  0.76300  Biso   1.000  C
  H88      1.0000 0.51110  0.34270  0.71140  Biso   1.000  H
  C121     1.0000 0.57420  0.30320  0.62800  Biso   1.000  C
  C122     1.0000 0.51890  0.25470  0.28700  Biso   1.000  C
  C123     1.0000 0.42620  0.22830  0.06900  Biso   1.000  C
  C124     1.0000 0.51420  0.23550  0.01000  Biso   1.000  C
  H89      1.0000 0.54300  0.23140  0.89790  Biso   1.000  H
  C125     1.0000 0.46820  0.22210  0.89600  Biso   1.000  C
  H90      1.0000 0.46550  0.20930  0.70940  Biso   1.000  H
  C126     1.0000 0.42870  0.24770  0.34600  Biso   1.000  C
  H91      1.0000 0.39980  0.25200  0.45700  Biso   1.000  H
  C127     1.0000 0.47550  0.26050  0.45200  Biso   1.000  C
  H92      1.0000 0.47810  0.27340  0.63810  Biso   1.000  H
  C128     1.0000 0.37530  0.20640  0.99200  Biso   1.000  C
  O24      1.0000 0.36720  0.21950  0.73100  Biso   1.000  O
  C129     1.0000 0.51090  0.20600  0.19900  Biso   1.000  C
  H93      1.0000 0.53670  0.18250  0.21340  Biso   1.000  H
  C130     1.0000 0.46400  0.19130  0.08700  Biso   1.000  C
  H94      1.0000 0.45820  0.15840  0.02630  Biso   1.000  H
  C131     1.0000 0.43180  0.27870  0.15500  Biso   1.000  C
  H95      1.0000 0.40620  0.30250  0.14220  Biso   1.000  H
  C132     1.0000 0.47990  0.28940  0.26300  Biso   1.000  C
  H96      1.0000 0.48630  0.32220  0.32360  Biso   1.000  H
  Zn7      1.0000 0.78427  0.26891  0.07330  Biso   1.000  Zn
  O25      1.0000 0.72330  0.22860  0.99000  Biso   1.000  O
  H97      1.0000 0.71170  0.20690  0.10730  Biso   1.000  H
  N13      1.0000 0.85160  0.24110  0.02000  Biso   1.000  N
  C133     1.0000 0.88910  0.25560  0.85800  Biso   1.000  C
  H98      1.0000 0.88580  0.28070  0.71900  Biso   1.000  H
  N14      1.0000 0.93340  0.23140  0.90620  Biso   1.000  N
  C134     1.0000 0.87540  0.20210  0.19490  Biso   1.000  C
  O26      1.0000 0.16160  0.26750  0.51900  Biso   1.000  O
  C135     1.0000 0.85400  0.17290  0.40930  Biso   1.000  C
  H99      1.0000 0.82030  0.17690  0.45890  Biso   1.000  H
  O27      1.0000 0.13180  0.34010  0.56600  Biso   1.000  O
  C136     1.0000 0.88340  0.13750  0.54890  Biso   1.000  C
  C137     1.0000 0.86380  0.10760  0.76600  Biso   1.000  C
  H100     1.0000 0.83010  0.11170  0.81600  Biso   1.000  H
  C138     1.0000 0.89170  0.07200  0.91140  Biso   1.000  C
  H101     1.0000 0.87720  0.05220  0.05480  Biso   1.000  H
  C139     1.0000 0.94180  0.06630  0.83960  Biso   1.000  C
  H102     1.0000 0.96180  0.04290  0.93540  Biso   1.000  H
  C140     1.0000 0.96180  0.09600  0.62400  Biso   1.000  C
  H103     1.0000 0.99540  0.09170  0.57420  Biso   1.000  H
  C141     1.0000 0.93390  0.13190  0.47730  Biso   1.000  C
  C142     1.0000 0.95530  0.16140  0.26300  Biso   1.000  C
  H104     1.0000 0.98890  0.15730  0.21140  Biso   1.000  H
  C143     1.0000 0.92580  0.19680  0.12800  Biso   1.000  C
  C144     1.0000 0.98110  0.24530  0.78700  Biso   1.000  C
  C145     1.0000 0.07380  0.27170  0.56900  Biso   1.000  C
  C146     1.0000 0.98580  0.26450  0.51000  Biso   1.000  C
  H105     1.0000 0.95700  0.26860  0.39790  Biso   1.000  H
  C147     1.0000 0.03180  0.27790  0.39600  Biso   1.000  C
  H106     1.0000 0.03450  0.29070  0.20940  Biso   1.000  H
  C148     1.0000 0.07130  0.25230  0.84600  Biso   1.000  C
  H107     1.0000 0.10020  0.24800  0.95700  Biso   1.000  H
  C149     1.0000 0.02450  0.23950  0.95200  Biso   1.000  C
  H108     1.0000 0.02190  0.22660  0.13810  Biso   1.000  H
  C150     1.0000 0.12470  0.29360  0.49200  Biso   1.000  C
  O28      1.0000 0.13280  0.28050  0.23100  Biso   1.000  O
  C151     1.0000 0.98910  0.29400  0.69900  Biso   1.000  C
  H109     1.0000 0.96330  0.31750  0.71340  Biso   1.000  H
  C152     1.0000 0.03600  0.30870  0.58700  Biso   1.000  C
  H110     1.0000 0.04180  0.34160  0.52630  Biso   1.000  H
  C153     1.0000 0.06820  0.22130  0.65500  Biso   1.000  C
  H111     1.0000 0.09380  0.19750  0.64220  Biso   1.000  H
  C154     1.0000 0.02010  0.21060  0.76300  Biso   1.000  C
  H112     1.0000 0.01370  0.17780  0.82360  Biso   1.000  H
  Zn8      1.0000 0.28427  0.76891  0.57330  Biso   1.000  Zn
  O29      1.0000 0.22330  0.72860  0.49000  Biso   1.000  O
  H113     1.0000 0.21170  0.70690  0.60730  Biso   1.000  H
  N15      1.0000 0.35160  0.74110  0.52000  Biso   1.000  N
  C155     1.0000 0.38910  0.75560  0.35800  Biso   1.000  C
  H114     1.0000 0.38580  0.78070  0.21900  Biso   1.000  H
  N16      1.0000 0.43340  0.73140  0.40620  Biso   1.000  N
  C156     1.0000 0.37540  0.70210  0.69490  Biso   1.000  C
  O30      1.0000 0.66160  0.76750  0.01900  Biso   1.000  O
  C157     1.0000 0.35400  0.67290  0.90930  Biso   1.000  C
  H115     1.0000 0.32030  0.67690  0.95890  Biso   1.000  H
  O31      1.0000 0.63180  0.84010  0.06600  Biso   1.000  O
  C158     1.0000 0.38340  0.63750  0.04890  Biso   1.000  C
  C159     1.0000 0.36380  0.60760  0.26600  Biso   1.000  C
  H116     1.0000 0.33010  0.61170  0.31600  Biso   1.000  H
  C160     1.0000 0.39170  0.57200  0.41140  Biso   1.000  C
  H117     1.0000 0.37720  0.55220  0.55480  Biso   1.000  H
  C161     1.0000 0.44180  0.56630  0.33960  Biso   1.000  C
  H118     1.0000 0.46180  0.54290  0.43540  Biso   1.000  H
  C162     1.0000 0.46180  0.59600  0.12400  Biso   1.000  C
  H119     1.0000 0.49540  0.59170  0.07420  Biso   1.000  H
  C163     1.0000 0.43390  0.63190  0.97730  Biso   1.000  C
  C164     1.0000 0.45530  0.66140  0.76300  Biso   1.000  C
  H120     1.0000 0.48890  0.65730  0.71140  Biso   1.000  H
  C165     1.0000 0.42580  0.69680  0.62800  Biso   1.000  C
  C166     1.0000 0.48110  0.74530  0.28700  Biso   1.000  C
  C167     1.0000 0.57380  0.77170  0.06900  Biso   1.000  C
  C168     1.0000 0.48580  0.76450  0.01000  Biso   1.000  C
  H121     1.0000 0.45700  0.76860  0.89790  Biso   1.000  H
  C169     1.0000 0.53180  0.77790  0.89600  Biso   1.000  C
  H122     1.0000 0.53450  0.79070  0.70940  Biso   1.000  H
  C170     1.0000 0.57130  0.75230  0.34600  Biso   1.000  C
  H123     1.0000 0.60020  0.74800  0.45700  Biso   1.000  H
  C171     1.0000 0.52450  0.73950  0.45200  Biso   1.000  C
  H124     1.0000 0.52190  0.72660  0.63810  Biso   1.000  H
  C172     1.0000 0.62470  0.79360  0.99200  Biso   1.000  C
  O32      1.0000 0.63280  0.78050  0.73100  Biso   1.000  O
  C173     1.0000 0.48910  0.79400  0.19900  Biso   1.000  C
  H125     1.0000 0.46330  0.81750  0.21340  Biso   1.000  H
  C174     1.0000 0.53600  0.80870  0.08700  Biso   1.000  C
  H126     1.0000 0.54180  0.84160  0.02630  Biso   1.000  H
  C175     1.0000 0.56820  0.72130  0.15500  Biso   1.000  C
  H127     1.0000 0.59380  0.69750  0.14220  Biso   1.000  H
  C176     1.0000 0.52010  0.71060  0.26300  Biso   1.000  C
  H128     1.0000 0.51370  0.67780  0.32360  Biso   1.000  H
