data_image0
_cell_length_a       26.152
_cell_length_b       26.152
_cell_length_c       5.1356
_cell_angle_alpha    90
_cell_angle_beta     90
_cell_angle_gamma    90

_symmetry_space_group_name_H-M    "P 1"
_symmetry_int_tables_number       1

loop_
  _symmetry_equiv_pos_as_xyz
  'x, y, z'

loop_
  _atom_site_label
  _atom_site_occupancy
  _atom_site_fract_x
  _atom_site_fract_y
  _atom_site_fract_z
  _atom_site_thermal_displace_type
  _atom_site_B_iso_or_equiv
  _atom_site_type_symbol
  Zn1      1.0000 0.27183  0.21567  0.87460  Biso   1.000  Zn
  O1       1.0000 0.22490  0.26420  0.01910  Biso   1.000  O
  H1       1.0000 0.20420  0.27520  0.90720  Biso   1.000  H
  N1       1.0000 0.24450  0.14390  0.91230  Biso   1.000  N
  C1       1.0000 0.26040  0.10780  0.06800  Biso   1.000  C
  H2       1.0000 0.28540  0.11270  0.19410  Biso   1.000  H
  N2       1.0000 0.23650  0.06240  0.02660  Biso   1.000  N
  C2       1.0000 0.20750  0.12260  0.75780  Biso   1.000  C
  O2       1.0000 0.27260  0.83490  0.43390  Biso   1.000  O
  C3       1.0000 0.17850  0.14440  0.56220  Biso   1.000  C
  H3       1.0000 0.18270  0.17860  0.51700  Biso   1.000  H
  O3       1.0000 0.30030  0.87570  0.77300  Biso   1.000  O
  C4       1.0000 0.14280  0.11390  0.43460  Biso   1.000  C
  C5       1.0000 0.11350  0.13390  0.23520  Biso   1.000  C
  H4       1.0000 0.11790  0.16800  0.18930  Biso   1.000  H
  C6       1.0000 0.07770  0.10480  0.10130  Biso   1.000  C
  H5       1.0000 0.05810  0.11890  0.96840  Biso   1.000  H
  C7       1.0000 0.07220  0.05370  0.17260  Biso   1.000  C
  H6       1.0000 0.04890  0.03330  0.08380  Biso   1.000  H
  C8       1.0000 0.10070  0.03290  0.37310  Biso   1.000  C
  H7       1.0000 0.09560  0.99900  0.42060  Biso   1.000  H
  C9       1.0000 0.13720  0.06240  0.50610  Biso   1.000  C
  C10      1.0000 0.16650  0.04070  0.70340  Biso   1.000  C
  H8       1.0000 0.16310  0.00630  0.74670  Biso   1.000  H
  C11      1.0000 0.20060  0.07190  0.83290  Biso   1.000  C
  C12      1.0000 0.24950  0.01550  0.14570  Biso   1.000  C
  C13      1.0000 0.27580  0.92510  0.38250  Biso   1.000  C
  C14      1.0000 0.27040  0.01490  0.39300  Biso   1.000  C
  H9       1.0000 0.27560  0.04580  0.47860  Biso   1.000  H
  C15      1.0000 0.28370  0.97010  0.51680  Biso   1.000  C
  H10      1.0000 0.29750  0.97020  0.68390  Biso   1.000  H
  C16      1.0000 0.25460  0.92300  0.13800  Biso   1.000  C
  H11      1.0000 0.24910  0.89190  0.05460  Biso   1.000  H
  C17      1.0000 0.24190  0.96860  0.02140  Biso   1.000  C
  H12      1.0000 0.22790  0.96820  0.85510  Biso   1.000  H
  C18      1.0000 0.28860  0.87530  0.52100  Biso   1.000  C
  O4       1.0000 0.34510  0.87200  0.55400  Biso   1.000  O
  C19      1.0000 0.29920  0.00860  0.22400  Biso   1.000  C
  H13      1.0000 0.32320  0.03430  0.19640  Biso   1.000  H
  C20      1.0000 0.31400  0.96280  0.34400  Biso   1.000  C
  H14      1.0000 0.34760  0.95740  0.39690  Biso   1.000  H
  C21      1.0000 0.22470  0.93010  0.30300  Biso   1.000  C
  H15      1.0000 0.20040  0.90450  0.32480  Biso   1.000  H
  C22      1.0000 0.21410  0.97730  0.18700  Biso   1.000  C
  H16      1.0000 0.18060  0.98340  0.13370  Biso   1.000  H
  Zn2      1.0000 0.77183  0.71567  0.37460  Biso   1.000  Zn
  O5       1.0000 0.72490  0.76420  0.51910  Biso   1.000  O
  H17      1.0000 0.70420  0.77520  0.40720  Biso   1.000  H
  N3       1.0000 0.74450  0.64390  0.41230  Biso   1.000  N
  C23      1.0000 0.76040  0.60780  0.56800  Biso   1.000  C
  H18      1.0000 0.78540  0.61270  0.69410  Biso   1.000  H
  N4       1.0000 0.73650  0.56240  0.52660  Biso   1.000  N
  C24      1.0000 0.70750  0.62260  0.25780  Biso   1.000  C
  O6       1.0000 0.77260  0.33490  0.93390  Biso   1.000  O
  C25      1.0000 0.67850  0.64440  0.06220  Biso   1.000  C
  H19      1.0000 0.68270  0.67860  0.01700  Biso   1.000  H
  O7       1.0000 0.80030  0.37570  0.27300  Biso   1.000  O
  C26      1.0000 0.64280  0.61390  0.93460  Biso   1.000  C
  C27      1.0000 0.61350  0.63390  0.73520  Biso   1.000  C
  H20      1.0000 0.61790  0.66800  0.68930  Biso   1.000  H
  C28      1.0000 0.57770  0.60480  0.60130  Biso   1.000  C
  H21      1.0000 0.55810  0.61890  0.46840  Biso   1.000  H
  C29      1.0000 0.57220  0.55370  0.67260  Biso   1.000  C
  H22      1.0000 0.54890  0.53330  0.58380  Biso   1.000  H
  C30      1.0000 0.60070  0.53290  0.87310  Biso   1.000  C
  H23      1.0000 0.59560  0.49900  0.92060  Biso   1.000  H
  C31      1.0000 0.63720  0.56240  0.00610  Biso   1.000  C
  C32      1.0000 0.66650  0.54070  0.20340  Biso   1.000  C
  H24      1.0000 0.66310  0.50630  0.24670  Biso   1.000  H
  C33      1.0000 0.70060  0.57190  0.33290  Biso   1.000  C
  C34      1.0000 0.74950  0.51550  0.64570  Biso   1.000  C
  C35      1.0000 0.77580  0.42510  0.88250  Biso   1.000  C
  C36      1.0000 0.77040  0.51490  0.89300  Biso   1.000  C
  H25      1.0000 0.77560  0.54580  0.97860  Biso   1.000  H
  C37      1.0000 0.78370  0.47010  0.01680  Biso   1.000  C
  H26      1.0000 0.79750  0.47020  0.18390  Biso   1.000  H
  C38      1.0000 0.75460  0.42300  0.63800  Biso   1.000  C
  H27      1.0000 0.74910  0.39190  0.55460  Biso   1.000  H
  C39      1.0000 0.74190  0.46860  0.52140  Biso   1.000  C
  H28      1.0000 0.72790  0.46820  0.35510  Biso   1.000  H
  C40      1.0000 0.78860  0.37530  0.02100  Biso   1.000  C
  O8       1.0000 0.84510  0.37200  0.05400  Biso   1.000  O
  C41      1.0000 0.79920  0.50860  0.72400  Biso   1.000  C
  H29      1.0000 0.82320  0.53430  0.69640  Biso   1.000  H
  C42      1.0000 0.81400  0.46280  0.84400  Biso   1.000  C
  H30      1.0000 0.84760  0.45740  0.89690  Biso   1.000  H
  C43      1.0000 0.72470  0.43010  0.80300  Biso   1.000  C
  H31      1.0000 0.70040  0.40450  0.82480  Biso   1.000  H
  C44      1.0000 0.71410  0.47730  0.68700  Biso   1.000  C
  H32      1.0000 0.68060  0.48340  0.63370  Biso   1.000  H
  Zn3      1.0000 0.72817  0.78433  0.87460  Biso   1.000  Zn
  O9       1.0000 0.77510  0.73580  0.01910  Biso   1.000  O
  H33      1.0000 0.79580  0.72480  0.90720  Biso   1.000  H
  N5       1.0000 0.75550  0.85610  0.91230  Biso   1.000  N
  C45      1.0000 0.73960  0.89220  0.06800  Biso   1.000  C
  H34      1.0000 0.71460  0.88730  0.19410  Biso   1.000  H
  N6       1.0000 0.76350  0.93760  0.02660  Biso   1.000  N
  C46      1.0000 0.79250  0.87740  0.75780  Biso   1.000  C
  O10      1.0000 0.72740  0.16510  0.43390  Biso   1.000  O
  C47      1.0000 0.82150  0.85560  0.56220  Biso   1.000  C
  H35      1.0000 0.81730  0.82140  0.51700  Biso   1.000  H
  O11      1.0000 0.69970  0.12430  0.77300  Biso   1.000  O
  C48      1.0000 0.85720  0.88610  0.43460  Biso   1.000  C
  C49      1.0000 0.88650  0.86610  0.23520  Biso   1.000  C
  H36      1.0000 0.88210  0.83200  0.18930  Biso   1.000  H
  C50      1.0000 0.92230  0.89520  0.10130  Biso   1.000  C
  H37      1.0000 0.94190  0.88110  0.96840  Biso   1.000  H
  C51      1.0000 0.92780  0.94630  0.17260  Biso   1.000  C
  H38      1.0000 0.95110  0.96670  0.08380  Biso   1.000  H
  C52      1.0000 0.89930  0.96710  0.37310  Biso   1.000  C
  H39      1.0000 0.90440  0.00100  0.42060  Biso   1.000  H
  C53      1.0000 0.86280  0.93760  0.50610  Biso   1.000  C
  C54      1.0000 0.83350  0.95930  0.70340  Biso   1.000  C
  H40      1.0000 0.83690  0.99370  0.74670  Biso   1.000  H
  C55      1.0000 0.79940  0.92810  0.83290  Biso   1.000  C
  C56      1.0000 0.75050  0.98450  0.14570  Biso   1.000  C
  C57      1.0000 0.72420  0.07490  0.38250  Biso   1.000  C
  C58      1.0000 0.72960  0.98510  0.39300  Biso   1.000  C
  H41      1.0000 0.72440  0.95420  0.47860  Biso   1.000  H
  C59      1.0000 0.71630  0.02990  0.51680  Biso   1.000  C
  H42      1.0000 0.70250  0.02980  0.68390  Biso   1.000  H
  C60      1.0000 0.74540  0.07700  0.13800  Biso   1.000  C
  H43      1.0000 0.75090  0.10810  0.05460  Biso   1.000  H
  C61      1.0000 0.75810  0.03140  0.02140  Biso   1.000  C
  H44      1.0000 0.77210  0.03180  0.85510  Biso   1.000  H
  C62      1.0000 0.71140  0.12470  0.52100  Biso   1.000  C
  O12      1.0000 0.65490  0.12800  0.55400  Biso   1.000  O
  C63      1.0000 0.70080  0.99140  0.22400  Biso   1.000  C
  H45      1.0000 0.67680  0.96570  0.19640  Biso   1.000  H
  C64      1.0000 0.68600  0.03720  0.34400  Biso   1.000  C
  H46      1.0000 0.65240  0.04260  0.39690  Biso   1.000  H
  C65      1.0000 0.77530  0.06990  0.30300  Biso   1.000  C
  H47      1.0000 0.79960  0.09550  0.32480  Biso   1.000  H
  C66      1.0000 0.78590  0.02270  0.18700  Biso   1.000  C
  H48      1.0000 0.81940  0.01660  0.13370  Biso   1.000  H
  Zn4      1.0000 0.22817  0.28433  0.37460  Biso   1.000  Zn
  O13      1.0000 0.27510  0.23580  0.51910  Biso   1.000  O
  H49      1.0000 0.29580  0.22480  0.40720  Biso   1.000  H
  N7       1.0000 0.25550  0.35610  0.41230  Biso   1.000  N
  C67      1.0000 0.23960  0.39220  0.56800  Biso   1.000  C
  H50      1.0000 0.21460  0.38730  0.69410  Biso   1.000  H
  N8       1.0000 0.26350  0.43760  0.52660  Biso   1.000  N
  C68      1.0000 0.29250  0.37740  0.25780  Biso   1.000  C
  O14      1.0000 0.22740  0.66510  0.93390  Biso   1.000  O
  C69      1.0000 0.32150  0.35560  0.06220  Biso   1.000  C
  H51      1.0000 0.31730  0.32140  0.01700  Biso   1.000  H
  O15      1.0000 0.19970  0.62430  0.27300  Biso   1.000  O
  C70      1.0000 0.35720  0.38610  0.93460  Biso   1.000  C
  C71      1.0000 0.38650  0.36610  0.73520  Biso   1.000  C
  H52      1.0000 0.38210  0.33200  0.68930  Biso   1.000  H
  C72      1.0000 0.42230  0.39520  0.60130  Biso   1.000  C
  H53      1.0000 0.44190  0.38110  0.46840  Biso   1.000  H
  C73      1.0000 0.42780  0.44630  0.67260  Biso   1.000  C
  H54      1.0000 0.45110  0.46670  0.58380  Biso   1.000  H
  C74      1.0000 0.39930  0.46710  0.87310  Biso   1.000  C
  H55      1.0000 0.40440  0.50100  0.92060  Biso   1.000  H
  C75      1.0000 0.36280  0.43760  0.00610  Biso   1.000  C
  C76      1.0000 0.33350  0.45930  0.20340  Biso   1.000  C
  H56      1.0000 0.33690  0.49370  0.24670  Biso   1.000  H
  C77      1.0000 0.29940  0.42810  0.33290  Biso   1.000  C
  C78      1.0000 0.25050  0.48450  0.64570  Biso   1.000  C
  C79      1.0000 0.22420  0.57490  0.88250  Biso   1.000  C
  C80      1.0000 0.22960  0.48510  0.89300  Biso   1.000  C
  H57      1.0000 0.22440  0.45420  0.97860  Biso   1.000  H
  C81      1.0000 0.21630  0.52990  0.01680  Biso   1.000  C
  H58      1.0000 0.20250  0.52980  0.18390  Biso   1.000  H
  C82      1.0000 0.24540  0.57700  0.63800  Biso   1.000  C
  H59      1.0000 0.25090  0.60810  0.55460  Biso   1.000  H
  C83      1.0000 0.25810  0.53140  0.52140  Biso   1.000  C
  H60      1.0000 0.27210  0.53180  0.35510  Biso   1.000  H
  C84      1.0000 0.21140  0.62470  0.02100  Biso   1.000  C
  O16      1.0000 0.15490  0.62800  0.05400  Biso   1.000  O
  C85      1.0000 0.20080  0.49140  0.72400  Biso   1.000  C
  H61      1.0000 0.17680  0.46570  0.69640  Biso   1.000  H
  C86      1.0000 0.18600  0.53720  0.84400  Biso   1.000  C
  H62      1.0000 0.15240  0.54260  0.89690  Biso   1.000  H
  C87      1.0000 0.27530  0.56990  0.80300  Biso   1.000  C
  H63      1.0000 0.29960  0.59550  0.82480  Biso   1.000  H
  C88      1.0000 0.28590  0.52270  0.68700  Biso   1.000  C
  H64      1.0000 0.31940  0.51660  0.63370  Biso   1.000  H
  Zn5      1.0000 0.21567  0.72817  0.12540  Biso   1.000  Zn
  O17      1.0000 0.26420  0.77510  0.98090  Biso   1.000  O
  H65      1.0000 0.27520  0.79580  0.09280  Biso   1.000  H
  N9       1.0000 0.14390  0.75550  0.08770  Biso   1.000  N
  C89      1.0000 0.10780  0.73960  0.93200  Biso   1.000  C
  H66      1.0000 0.11270  0.71460  0.80590  Biso   1.000  H
  N10      1.0000 0.06240  0.76350  0.97340  Biso   1.000  N
  C90      1.0000 0.12260  0.79250  0.24220  Biso   1.000  C
  O18      1.0000 0.83490  0.72740  0.56610  Biso   1.000  O
  C91      1.0000 0.14440  0.82150  0.43780  Biso   1.000  C
  H67      1.0000 0.17860  0.81730  0.48300  Biso   1.000  H
  O19      1.0000 0.87570  0.69970  0.22700  Biso   1.000  O
  C92      1.0000 0.11390  0.85720  0.56540  Biso   1.000  C
  C93      1.0000 0.13390  0.88650  0.76480  Biso   1.000  C
  H68      1.0000 0.16800  0.88210  0.81070  Biso   1.000  H
  C94      1.0000 0.10480  0.92230  0.89870  Biso   1.000  C
  H69      1.0000 0.11890  0.94190  0.03160  Biso   1.000  H
  C95      1.0000 0.05370  0.92780  0.82740  Biso   1.000  C
  H70      1.0000 0.03330  0.95110  0.91620  Biso   1.000  H
  C96      1.0000 0.03290  0.89930  0.62690  Biso   1.000  C
  H71      1.0000 0.99900  0.90440  0.57940  Biso   1.000  H
  C97      1.0000 0.06240  0.86280  0.49390  Biso   1.000  C
  C98      1.0000 0.04070  0.83350  0.29660  Biso   1.000  C
  H72      1.0000 0.00630  0.83690  0.25330  Biso   1.000  H
  C99      1.0000 0.07190  0.79940  0.16710  Biso   1.000  C
  C100     1.0000 0.01550  0.75050  0.85430  Biso   1.000  C
  C101     1.0000 0.92510  0.72420  0.61750  Biso   1.000  C
  C102     1.0000 0.01490  0.72960  0.60700  Biso   1.000  C
  H73      1.0000 0.04580  0.72440  0.52140  Biso   1.000  H
  C103     1.0000 0.97010  0.71630  0.48320  Biso   1.000  C
  H74      1.0000 0.97020  0.70250  0.31610  Biso   1.000  H
  C104     1.0000 0.92300  0.74540  0.86200  Biso   1.000  C
  H75      1.0000 0.89190  0.75090  0.94540  Biso   1.000  H
  C105     1.0000 0.96860  0.75810  0.97860  Biso   1.000  C
  H76      1.0000 0.96820  0.77210  0.14490  Biso   1.000  H
  C106     1.0000 0.87530  0.71140  0.47900  Biso   1.000  C
  O20      1.0000 0.87200  0.65490  0.44600  Biso   1.000  O
  C107     1.0000 0.00860  0.70080  0.77600  Biso   1.000  C
  H77      1.0000 0.03430  0.67680  0.80360  Biso   1.000  H
  C108     1.0000 0.96280  0.68600  0.65600  Biso   1.000  C
  H78      1.0000 0.95740  0.65240  0.60310  Biso   1.000  H
  C109     1.0000 0.93010  0.77530  0.69700  Biso   1.000  C
  H79      1.0000 0.90450  0.79960  0.67520  Biso   1.000  H
  C110     1.0000 0.97730  0.78590  0.81300  Biso   1.000  C
  H80      1.0000 0.98340  0.81940  0.86630  Biso   1.000  H
  Zn6      1.0000 0.71567  0.22817  0.62540  Biso   1.000  Zn
  O21      1.0000 0.76420  0.27510  0.48090  Biso   1.000  O
  H81      1.0000 0.77520  0.29580  0.59280  Biso   1.000  H
  N11      1.0000 0.64390  0.25550  0.58770  Biso   1.000  N
  C111     1.0000 0.60780  0.23960  0.43200  Biso   1.000  C
  H82      1.0000 0.61270  0.21460  0.30590  Biso   1.000  H
  N12      1.0000 0.56240  0.26350  0.47340  Biso   1.000  N
  C112     1.0000 0.62260  0.29250  0.74220  Biso   1.000  C
  O22      1.0000 0.33490  0.22740  0.06610  Biso   1.000  O
  C113     1.0000 0.64440  0.32150  0.93780  Biso   1.000  C
  H83      1.0000 0.67860  0.31730  0.98300  Biso   1.000  H
  O23      1.0000 0.37570  0.19970  0.72700  Biso   1.000  O
  C114     1.0000 0.61390  0.35720  0.06540  Biso   1.000  C
  C115     1.0000 0.63390  0.38650  0.26480  Biso   1.000  C
  H84      1.0000 0.66800  0.38210  0.31070  Biso   1.000  H
  C116     1.0000 0.60480  0.42230  0.39870  Biso   1.000  C
  H85      1.0000 0.61890  0.44190  0.53160  Biso   1.000  H
  C117     1.0000 0.55370  0.42780  0.32740  Biso   1.000  C
  H86      1.0000 0.53330  0.45110  0.41620  Biso   1.000  H
  C118     1.0000 0.53290  0.39930  0.12690  Biso   1.000  C
  H87      1.0000 0.49900  0.40440  0.07940  Biso   1.000  H
  C119     1.0000 0.56240  0.36280  0.99390  Biso   1.000  C
  C120     1.0000 0.54070  0.33350  0.79660  Biso   1.000  C
  H88      1.0000 0.50630  0.33690  0.75330  Biso   1.000  H
  C121     1.0000 0.57190  0.29940  0.66710  Biso   1.000  C
  C122     1.0000 0.51550  0.25050  0.35430  Biso   1.000  C
  C123     1.0000 0.42510  0.22420  0.11750  Biso   1.000  C
  C124     1.0000 0.51490  0.22960  0.10700  Biso   1.000  C
  H89      1.0000 0.54580  0.22440  0.02140  Biso   1.000  H
  C125     1.0000 0.47010  0.21630  0.98320  Biso   1.000  C
  H90      1.0000 0.47020  0.20250  0.81610  Biso   1.000  H
  C126     1.0000 0.42300  0.24540  0.36200  Biso   1.000  C
  H91      1.0000 0.39190  0.25090  0.44540  Biso   1.000  H
  C127     1.0000 0.46860  0.25810  0.47860  Biso   1.000  C
  H92      1.0000 0.46820  0.27210  0.64490  Biso   1.000  H
  C128     1.0000 0.37530  0.21140  0.97900  Biso   1.000  C
  O24      1.0000 0.37200  0.15490  0.94600  Biso   1.000  O
  C129     1.0000 0.50860  0.20080  0.27600  Biso   1.000  C
  H93      1.0000 0.53430  0.17680  0.30360  Biso   1.000  H
  C130     1.0000 0.46280  0.18600  0.15600  Biso   1.000  C
  H94      1.0000 0.45740  0.15240  0.10310  Biso   1.000  H
  C131     1.0000 0.43010  0.27530  0.19700  Biso   1.000  C
  H95      1.0000 0.40450  0.29960  0.17520  Biso   1.000  H
  C132     1.0000 0.47730  0.28590  0.31300  Biso   1.000  C
  H96      1.0000 0.48340  0.31940  0.36630  Biso   1.000  H
  Zn7      1.0000 0.78433  0.27183  0.12540  Biso   1.000  Zn
  O25      1.0000 0.73580  0.22490  0.98090  Biso   1.000  O
  H97      1.0000 0.72480  0.20420  0.09280  Biso   1.000  H
  N13      1.0000 0.85610  0.24450  0.08770  Biso   1.000  N
  C133     1.0000 0.89220  0.26040  0.93200  Biso   1.000  C
  H98      1.0000 0.88730  0.28540  0.80590  Biso   1.000  H
  N14      1.0000 0.93760  0.23650  0.97340  Biso   1.000  N
  C134     1.0000 0.87740  0.20750  0.24220  Biso   1.000  C
  O26      1.0000 0.16510  0.27260  0.56610  Biso   1.000  O
  C135     1.0000 0.85560  0.17850  0.43780  Biso   1.000  C
  H99      1.0000 0.82140  0.18270  0.48300  Biso   1.000  H
  O27      1.0000 0.12430  0.30030  0.22700  Biso   1.000  O
  C136     1.0000 0.88610  0.14280  0.56540  Biso   1.000  C
  C137     1.0000 0.86610  0.11350  0.76480  Biso   1.000  C
  H100     1.0000 0.83200  0.11790  0.81070  Biso   1.000  H
  C138     1.0000 0.89520  0.07770  0.89870  Biso   1.000  C
  H101     1.0000 0.88110  0.05810  0.03160  Biso   1.000  H
  C139     1.0000 0.94630  0.07220  0.82740  Biso   1.000  C
  H102     1.0000 0.96670  0.04890  0.91620  Biso   1.000  H
  C140     1.0000 0.96710  0.10070  0.62690  Biso   1.000  C
  H103     1.0000 0.00100  0.09560  0.57940  Biso   1.000  H
  C141     1.0000 0.93760  0.13720  0.49390  Biso   1.000  C
  C142     1.0000 0.95930  0.16650  0.29660  Biso   1.000  C
  H104     1.0000 0.99370  0.16310  0.25330  Biso   1.000  H
  C143     1.0000 0.92810  0.20060  0.16710  Biso   1.000  C
  C144     1.0000 0.98450  0.24950  0.85430  Biso   1.000  C
  C145     1.0000 0.07490  0.27580  0.61750  Biso   1.000  C
  C146     1.0000 0.98510  0.27040  0.60700  Biso   1.000  C
  H105     1.0000 0.95420  0.27560  0.52140  Biso   1.000  H
  C147     1.0000 0.02990  0.28370  0.48320  Biso   1.000  C
  H106     1.0000 0.02980  0.29750  0.31610  Biso   1.000  H
  C148     1.0000 0.07700  0.25460  0.86200  Biso   1.000  C
  H107     1.0000 0.10810  0.24910  0.94540  Biso   1.000  H
  C149     1.0000 0.03140  0.24190  0.97860  Biso   1.000  C
  H108     1.0000 0.03180  0.22790  0.14490  Biso   1.000  H
  C150     1.0000 0.12470  0.28860  0.47900  Biso   1.000  C
  O28      1.0000 0.12800  0.34510  0.44600  Biso   1.000  O
  C151     1.0000 0.99140  0.29920  0.77600  Biso   1.000  C
  H109     1.0000 0.96570  0.32320  0.80360  Biso   1.000  H
  C152     1.0000 0.03720  0.31400  0.65600  Biso   1.000  C
  H110     1.0000 0.04260  0.34760  0.60310  Biso   1.000  H
  C153     1.0000 0.06990  0.22470  0.69700  Biso   1.000  C
  H111     1.0000 0.09550  0.20040  0.67520  Biso   1.000  H
  C154     1.0000 0.02270  0.21410  0.81300  Biso   1.000  C
  H112     1.0000 0.01660  0.18060  0.86630  Biso   1.000  H
  Zn8      1.0000 0.28433  0.77183  0.62540  Biso   1.000  Zn
  O29      1.0000 0.23580  0.72490  0.48090  Biso   1.000  O
  H113     1.0000 0.22480  0.70420  0.59280  Biso   1.000  H
  N15      1.0000 0.35610  0.74450  0.58770  Biso   1.000  N
  C155     1.0000 0.39220  0.76040  0.43200  Biso   1.000  C
  H114     1.0000 0.38730  0.78540  0.30590  Biso   1.000  H
  N16      1.0000 0.43760  0.73650  0.47340  Biso   1.000  N
  C156     1.0000 0.37740  0.70750  0.74220  Biso   1.000  C
  O30      1.0000 0.66510  0.77260  0.06610  Biso   1.000  O
  C157     1.0000 0.35560  0.67850  0.93780  Biso   1.000  C
  H115     1.0000 0.32140  0.68270  0.98300  Biso   1.000  H
  O31      1.0000 0.62430  0.80030  0.72700  Biso   1.000  O
  C158     1.0000 0.38610  0.64280  0.06540  Biso   1.000  C
  C159     1.0000 0.36610  0.61350  0.26480  Biso   1.000  C
  H116     1.0000 0.33200  0.61790  0.31070  Biso   1.000  H
  C160     1.0000 0.39520  0.57770  0.39870  Biso   1.000  C
  H117     1.0000 0.38110  0.55810  0.53160  Biso   1.000  H
  C161     1.0000 0.44630  0.57220  0.32740  Biso   1.000  C
  H118     1.0000 0.46670  0.54890  0.41620  Biso   1.000  H
  C162     1.0000 0.46710  0.60070  0.12690  Biso   1.000  C
  H119     1.0000 0.50100  0.59560  0.07940  Biso   1.000  H
  C163     1.0000 0.43760  0.63720  0.99390  Biso   1.000  C
  C164     1.0000 0.45930  0.66650  0.79660  Biso   1.000  C
  H120     1.0000 0.49370  0.66310  0.75330  Biso   1.000  H
  C165     1.0000 0.42810  0.70060  0.66710  Biso   1.000  C
  C166     1.0000 0.48450  0.74950  0.35430  Biso   1.000  C
  C167     1.0000 0.57490  0.77580  0.11750  Biso   1.000  C
  C168     1.0000 0.48510  0.77040  0.10700  Biso   1.000  C
  H121     1.0000 0.45420  0.77560  0.02140  Biso   1.000  H
  C169     1.0000 0.52990  0.78370  0.98320  Biso   1.000  C
  H122     1.0000 0.52980  0.79750  0.81610  Biso   1.000  H
  C170     1.0000 0.57700  0.75460  0.36200  Biso   1.000  C
  H123     1.0000 0.60810  0.74910  0.44540  Biso   1.000  H
  C171     1.0000 0.53140  0.74190  0.47860  Biso   1.000  C
  H124     1.0000 0.53180  0.72790  0.64490  Biso   1.000  H
  C172     1.0000 0.62470  0.78860  0.97900  Biso   1.000  C
  O32      1.0000 0.62800  0.84510  0.94600  Biso   1.000  O
  C173     1.0000 0.49140  0.79920  0.27600  Biso   1.000  C
  H125     1.0000 0.46570  0.82320  0.30360  Biso   1.000  H
  C174     1.0000 0.53720  0.81400  0.15600  Biso   1.000  C
  H126     1.0000 0.54260  0.84760  0.10310  Biso   1.000  H
  C175     1.0000 0.56990  0.72470  0.19700  Biso   1.000  C
  H127     1.0000 0.59550  0.70040  0.17520  Biso   1.000  H
  C176     1.0000 0.52270  0.71410  0.31300  Biso   1.000  C
  H128     1.0000 0.51660  0.68060  0.36630  Biso   1.000  H
