data_image0
_cell_length_a       26.2621
_cell_length_b       26.2621
_cell_length_c       5.1856
_cell_angle_alpha    90
_cell_angle_beta     90
_cell_angle_gamma    90

_symmetry_space_group_name_H-M    "P 1"
_symmetry_int_tables_number       1

loop_
  _symmetry_equiv_pos_as_xyz
  'x, y, z'

loop_
  _atom_site_label
  _atom_site_occupancy
  _atom_site_fract_x
  _atom_site_fract_y
  _atom_site_fract_z
  _atom_site_thermal_displace_type
  _atom_site_B_iso_or_equiv
  _atom_site_type_symbol
  Zn1      1.0000 0.27158  0.21492  0.89490  Biso   1.000  Zn
  O1       1.0000 0.22300  0.25980  0.05230  Biso   1.000  O
  H1       1.0000 0.20220  0.27080  0.93990  Biso   1.000  H
  N1       1.0000 0.24610  0.14250  0.90100  Biso   1.000  N
  C1       1.0000 0.26170  0.10620  0.05350  Biso   1.000  C
  H2       1.0000 0.28680  0.11100  0.17720  Biso   1.000  H
  N2       1.0000 0.23800  0.06080  0.01650  Biso   1.000  N
  C2       1.0000 0.20970  0.12200  0.75110  Biso   1.000  C
  O2       1.0000 0.27320  0.83420  0.40000  Biso   1.000  O
  C3       1.0000 0.18080  0.14400  0.55760  Biso   1.000  C
  H3       1.0000 0.18520  0.17790  0.51250  Biso   1.000  H
  O3       1.0000 0.31110  0.87750  0.72400  Biso   1.000  O
  C4       1.0000 0.14500  0.11350  0.43220  Biso   1.000  C
  C5       1.0000 0.11550  0.13370  0.23670  Biso   1.000  C
  H4       1.0000 0.11970  0.16770  0.19210  Biso   1.000  H
  C6       1.0000 0.07970  0.10480  0.10470  Biso   1.000  C
  H5       1.0000 0.06020  0.11890  0.97320  Biso   1.000  H
  C7       1.0000 0.07380  0.05400  0.17480  Biso   1.000  C
  H6       1.0000 0.05000  0.03390  0.08970  Biso   1.000  H
  C8       1.0000 0.10320  0.03280  0.37050  Biso   1.000  C
  H7       1.0000 0.09880  0.99880  0.41530  Biso   1.000  H
  C9       1.0000 0.13940  0.06250  0.50100  Biso   1.000  C
  C10      1.0000 0.16830  0.04050  0.69580  Biso   1.000  C
  H8       1.0000 0.16400  0.00650  0.74180  Biso   1.000  H
  C11      1.0000 0.20370  0.07120  0.81900  Biso   1.000  C
  C12      1.0000 0.25190  0.01290  0.13050  Biso   1.000  C
  C13      1.0000 0.28010  0.92330  0.36300  Biso   1.000  C
  C14      1.0000 0.27170  0.01290  0.37700  Biso   1.000  C
  H9       1.0000 0.27550  0.04360  0.46420  Biso   1.000  H
  C15      1.0000 0.28590  0.96840  0.49830  Biso   1.000  C
  H10      1.0000 0.29900  0.96860  0.66500  Biso   1.000  H
  C16      1.0000 0.26000  0.92150  0.11700  Biso   1.000  C
  H11      1.0000 0.25580  0.89070  0.03150  Biso   1.000  H
  C17      1.0000 0.24640  0.96690  0.00320  Biso   1.000  C
  H12      1.0000 0.23330  0.96660  0.83670  Biso   1.000  H
  C18      1.0000 0.29260  0.87470  0.49400  Biso   1.000  C
  O4       1.0000 0.34420  0.86640  0.55600  Biso   1.000  O
  C19      1.0000 0.30160  0.00620  0.20500  Biso   1.000  C
  H13      1.0000 0.32510  0.03210  0.17650  Biso   1.000  H
  C20      1.0000 0.31730  0.96100  0.32400  Biso   1.000  C
  H14      1.0000 0.35090  0.95610  0.37500  Biso   1.000  H
  C21      1.0000 0.22880  0.92710  0.29100  Biso   1.000  C
  H15      1.0000 0.20500  0.90130  0.31720  Biso   1.000  H
  C22      1.0000 0.21720  0.97390  0.17500  Biso   1.000  C
  H16      1.0000 0.18360  0.97920  0.12450  Biso   1.000  H
  Zn2      1.0000 0.77158  0.71492  0.39490  Biso   1.000  Zn
  O5       1.0000 0.72300  0.75980  0.55230  Biso   1.000  O
  H17      1.0000 0.70220  0.77080  0.43990  Biso   1.000  H
  N3       1.0000 0.74610  0.64250  0.40100  Biso   1.000  N
  C23      1.0000 0.76170  0.60620  0.55350  Biso   1.000  C
  H18      1.0000 0.78680  0.61100  0.67720  Biso   1.000  H
  N4       1.0000 0.73800  0.56080  0.51650  Biso   1.000  N
  C24      1.0000 0.70970  0.62200  0.25110  Biso   1.000  C
  O6       1.0000 0.77320  0.33420  0.90000  Biso   1.000  O
  C25      1.0000 0.68080  0.64400  0.05760  Biso   1.000  C
  H19      1.0000 0.68520  0.67790  0.01250  Biso   1.000  H
  O7       1.0000 0.81110  0.37750  0.22400  Biso   1.000  O
  C26      1.0000 0.64500  0.61350  0.93220  Biso   1.000  C
  C27      1.0000 0.61550  0.63370  0.73670  Biso   1.000  C
  H20      1.0000 0.61970  0.66770  0.69210  Biso   1.000  H
  C28      1.0000 0.57970  0.60480  0.60470  Biso   1.000  C
  H21      1.0000 0.56020  0.61890  0.47320  Biso   1.000  H
  C29      1.0000 0.57380  0.55400  0.67480  Biso   1.000  C
  H22      1.0000 0.55000  0.53390  0.58970  Biso   1.000  H
  C30      1.0000 0.60320  0.53280  0.87050  Biso   1.000  C
  H23      1.0000 0.59880  0.49880  0.91530  Biso   1.000  H
  C31      1.0000 0.63940  0.56250  0.00100  Biso   1.000  C
  C32      1.0000 0.66830  0.54050  0.19580  Biso   1.000  C
  H24      1.0000 0.66400  0.50650  0.24180  Biso   1.000  H
  C33      1.0000 0.70370  0.57120  0.31900  Biso   1.000  C
  C34      1.0000 0.75190  0.51290  0.63050  Biso   1.000  C
  C35      1.0000 0.78010  0.42330  0.86300  Biso   1.000  C
  C36      1.0000 0.77170  0.51290  0.87700  Biso   1.000  C
  H25      1.0000 0.77550  0.54360  0.96420  Biso   1.000  H
  C37      1.0000 0.78590  0.46840  0.99830  Biso   1.000  C
  H26      1.0000 0.79900  0.46860  0.16500  Biso   1.000  H
  C38      1.0000 0.76000  0.42150  0.61700  Biso   1.000  C
  H27      1.0000 0.75580  0.39070  0.53150  Biso   1.000  H
  C39      1.0000 0.74640  0.46690  0.50320  Biso   1.000  C
  H28      1.0000 0.73330  0.46660  0.33670  Biso   1.000  H
  C40      1.0000 0.79260  0.37470  0.99400  Biso   1.000  C
  O8       1.0000 0.84420  0.36640  0.05600  Biso   1.000  O
  C41      1.0000 0.80160  0.50620  0.70500  Biso   1.000  C
  H29      1.0000 0.82510  0.53210  0.67650  Biso   1.000  H
  C42      1.0000 0.81730  0.46100  0.82400  Biso   1.000  C
  H30      1.0000 0.85090  0.45610  0.87500  Biso   1.000  H
  C43      1.0000 0.72880  0.42710  0.79100  Biso   1.000  C
  H31      1.0000 0.70500  0.40130  0.81720  Biso   1.000  H
  C44      1.0000 0.71720  0.47390  0.67500  Biso   1.000  C
  H32      1.0000 0.68360  0.47920  0.62450  Biso   1.000  H
  Zn3      1.0000 0.72842  0.78508  0.89490  Biso   1.000  Zn
  O9       1.0000 0.77700  0.74020  0.05230  Biso   1.000  O
  H33      1.0000 0.79780  0.72920  0.93990  Biso   1.000  H
  N5       1.0000 0.75390  0.85750  0.90100  Biso   1.000  N
  C45      1.0000 0.73830  0.89380  0.05350  Biso   1.000  C
  H34      1.0000 0.71320  0.88900  0.17720  Biso   1.000  H
  N6       1.0000 0.76200  0.93920  0.01650  Biso   1.000  N
  C46      1.0000 0.79030  0.87800  0.75110  Biso   1.000  C
  O10      1.0000 0.72680  0.16580  0.40000  Biso   1.000  O
  C47      1.0000 0.81920  0.85600  0.55760  Biso   1.000  C
  H35      1.0000 0.81480  0.82210  0.51250  Biso   1.000  H
  O11      1.0000 0.68890  0.12250  0.72400  Biso   1.000  O
  C48      1.0000 0.85500  0.88650  0.43220  Biso   1.000  C
  C49      1.0000 0.88450  0.86630  0.23670  Biso   1.000  C
  H36      1.0000 0.88030  0.83230  0.19210  Biso   1.000  H
  C50      1.0000 0.92030  0.89520  0.10470  Biso   1.000  C
  H37      1.0000 0.93980  0.88110  0.97320  Biso   1.000  H
  C51      1.0000 0.92620  0.94600  0.17480  Biso   1.000  C
  H38      1.0000 0.95000  0.96610  0.08970  Biso   1.000  H
  C52      1.0000 0.89680  0.96720  0.37050  Biso   1.000  C
  H39      1.0000 0.90120  0.00120  0.41530  Biso   1.000  H
  C53      1.0000 0.86060  0.93750  0.50100  Biso   1.000  C
  C54      1.0000 0.83170  0.95950  0.69580  Biso   1.000  C
  H40      1.0000 0.83600  0.99350  0.74180  Biso   1.000  H
  C55      1.0000 0.79630  0.92880  0.81900  Biso   1.000  C
  C56      1.0000 0.74810  0.98710  0.13050  Biso   1.000  C
  C57      1.0000 0.71990  0.07670  0.36300  Biso   1.000  C
  C58      1.0000 0.72830  0.98710  0.37700  Biso   1.000  C
  H41      1.0000 0.72450  0.95640  0.46420  Biso   1.000  H
  C59      1.0000 0.71410  0.03160  0.49830  Biso   1.000  C
  H42      1.0000 0.70100  0.03140  0.66500  Biso   1.000  H
  C60      1.0000 0.74000  0.07850  0.11700  Biso   1.000  C
  H43      1.0000 0.74420  0.10930  0.03150  Biso   1.000  H
  C61      1.0000 0.75360  0.03310  0.00320  Biso   1.000  C
  H44      1.0000 0.76670  0.03340  0.83670  Biso   1.000  H
  C62      1.0000 0.70740  0.12530  0.49400  Biso   1.000  C
  O12      1.0000 0.65580  0.13360  0.55600  Biso   1.000  O
  C63      1.0000 0.69840  0.99380  0.20500  Biso   1.000  C
  H45      1.0000 0.67490  0.96790  0.17650  Biso   1.000  H
  C64      1.0000 0.68270  0.03900  0.32400  Biso   1.000  C
  H46      1.0000 0.64910  0.04390  0.37500  Biso   1.000  H
  C65      1.0000 0.77120  0.07290  0.29100  Biso   1.000  C
  H47      1.0000 0.79500  0.09870  0.31720  Biso   1.000  H
  C66      1.0000 0.78280  0.02610  0.17500  Biso   1.000  C
  H48      1.0000 0.81640  0.02080  0.12450  Biso   1.000  H
  Zn4      1.0000 0.22842  0.28508  0.39490  Biso   1.000  Zn
  O13      1.0000 0.27700  0.24020  0.55230  Biso   1.000  O
  H49      1.0000 0.29780  0.22920  0.43990  Biso   1.000  H
  N7       1.0000 0.25390  0.35750  0.40100  Biso   1.000  N
  C67      1.0000 0.23830  0.39380  0.55350  Biso   1.000  C
  H50      1.0000 0.21320  0.38900  0.67720  Biso   1.000  H
  N8       1.0000 0.26200  0.43920  0.51650  Biso   1.000  N
  C68      1.0000 0.29030  0.37800  0.25110  Biso   1.000  C
  O14      1.0000 0.22680  0.66580  0.90000  Biso   1.000  O
  C69      1.0000 0.31920  0.35600  0.05760  Biso   1.000  C
  H51      1.0000 0.31480  0.32210  0.01250  Biso   1.000  H
  O15      1.0000 0.18890  0.62250  0.22400  Biso   1.000  O
  C70      1.0000 0.35500  0.38650  0.93220  Biso   1.000  C
  C71      1.0000 0.38450  0.36630  0.73670  Biso   1.000  C
  H52      1.0000 0.38030  0.33230  0.69210  Biso   1.000  H
  C72      1.0000 0.42030  0.39520  0.60470  Biso   1.000  C
  H53      1.0000 0.43980  0.38110  0.47320  Biso   1.000  H
  C73      1.0000 0.42620  0.44600  0.67480  Biso   1.000  C
  H54      1.0000 0.45000  0.46610  0.58970  Biso   1.000  H
  C74      1.0000 0.39680  0.46720  0.87050  Biso   1.000  C
  H55      1.0000 0.40120  0.50120  0.91530  Biso   1.000  H
  C75      1.0000 0.36060  0.43750  0.00100  Biso   1.000  C
  C76      1.0000 0.33170  0.45950  0.19580  Biso   1.000  C
  H56      1.0000 0.33600  0.49350  0.24180  Biso   1.000  H
  C77      1.0000 0.29630  0.42880  0.31900  Biso   1.000  C
  C78      1.0000 0.24810  0.48710  0.63050  Biso   1.000  C
  C79      1.0000 0.21990  0.57670  0.86300  Biso   1.000  C
  C80      1.0000 0.22830  0.48710  0.87700  Biso   1.000  C
  H57      1.0000 0.22450  0.45640  0.96420  Biso   1.000  H
  C81      1.0000 0.21410  0.53160  0.99830  Biso   1.000  C
  H58      1.0000 0.20100  0.53140  0.16500  Biso   1.000  H
  C82      1.0000 0.24000  0.57850  0.61700  Biso   1.000  C
  H59      1.0000 0.24420  0.60930  0.53150  Biso   1.000  H
  C83      1.0000 0.25360  0.53310  0.50320  Biso   1.000  C
  H60      1.0000 0.26670  0.53340  0.33670  Biso   1.000  H
  C84      1.0000 0.20740  0.62530  0.99400  Biso   1.000  C
  O16      1.0000 0.15580  0.63360  0.05600  Biso   1.000  O
  C85      1.0000 0.19840  0.49380  0.70500  Biso   1.000  C
  H61      1.0000 0.17490  0.46790  0.67650  Biso   1.000  H
  C86      1.0000 0.18270  0.53900  0.82400  Biso   1.000  C
  H62      1.0000 0.14910  0.54390  0.87500  Biso   1.000  H
  C87      1.0000 0.27120  0.57290  0.79100  Biso   1.000  C
  H63      1.0000 0.29500  0.59870  0.81720  Biso   1.000  H
  C88      1.0000 0.28280  0.52610  0.67500  Biso   1.000  C
  H64      1.0000 0.31640  0.52080  0.62450  Biso   1.000  H
  Zn5      1.0000 0.21492  0.72842  0.10510  Biso   1.000  Zn
  O17      1.0000 0.25980  0.77700  0.94770  Biso   1.000  O
  H65      1.0000 0.27080  0.79780  0.06010  Biso   1.000  H
  N9       1.0000 0.14250  0.75390  0.09900  Biso   1.000  N
  C89      1.0000 0.10620  0.73830  0.94650  Biso   1.000  C
  H66      1.0000 0.11100  0.71320  0.82280  Biso   1.000  H
  N10      1.0000 0.06080  0.76200  0.98350  Biso   1.000  N
  C90      1.0000 0.12200  0.79030  0.24890  Biso   1.000  C
  O18      1.0000 0.83420  0.72680  0.60000  Biso   1.000  O
  C91      1.0000 0.14400  0.81920  0.44240  Biso   1.000  C
  H67      1.0000 0.17790  0.81480  0.48750  Biso   1.000  H
  O19      1.0000 0.87750  0.68890  0.27600  Biso   1.000  O
  C92      1.0000 0.11350  0.85500  0.56780  Biso   1.000  C
  C93      1.0000 0.13370  0.88450  0.76330  Biso   1.000  C
  H68      1.0000 0.16770  0.88030  0.80790  Biso   1.000  H
  C94      1.0000 0.10480  0.92030  0.89530  Biso   1.000  C
  H69      1.0000 0.11890  0.93980  0.02680  Biso   1.000  H
  C95      1.0000 0.05400  0.92620  0.82520  Biso   1.000  C
  H70      1.0000 0.03390  0.95000  0.91030  Biso   1.000  H
  C96      1.0000 0.03280  0.89680  0.62950  Biso   1.000  C
  H71      1.0000 0.99880  0.90120  0.58470  Biso   1.000  H
  C97      1.0000 0.06250  0.86060  0.49900  Biso   1.000  C
  C98      1.0000 0.04050  0.83170  0.30420  Biso   1.000  C
  H72      1.0000 0.00650  0.83600  0.25820  Biso   1.000  H
  C99      1.0000 0.07120  0.79630  0.18100  Biso   1.000  C
  C100     1.0000 0.01290  0.74810  0.86950  Biso   1.000  C
  C101     1.0000 0.92330  0.71990  0.63700  Biso   1.000  C
  C102     1.0000 0.01290  0.72830  0.62300  Biso   1.000  C
  H73      1.0000 0.04360  0.72450  0.53580  Biso   1.000  H
  C103     1.0000 0.96840  0.71410  0.50170  Biso   1.000  C
  H74      1.0000 0.96860  0.70100  0.33500  Biso   1.000  H
  C104     1.0000 0.92150  0.74000  0.88300  Biso   1.000  C
  H75      1.0000 0.89070  0.74420  0.96850  Biso   1.000  H
  C105     1.0000 0.96690  0.75360  0.99680  Biso   1.000  C
  H76      1.0000 0.96660  0.76670  0.16330  Biso   1.000  H
  C106     1.0000 0.87470  0.70740  0.50600  Biso   1.000  C
  O20      1.0000 0.86640  0.65580  0.44400  Biso   1.000  O
  C107     1.0000 0.00620  0.69840  0.79500  Biso   1.000  C
  H77      1.0000 0.03210  0.67490  0.82350  Biso   1.000  H
  C108     1.0000 0.96100  0.68270  0.67600  Biso   1.000  C
  H78      1.0000 0.95610  0.64910  0.62500  Biso   1.000  H
  C109     1.0000 0.92710  0.77120  0.70900  Biso   1.000  C
  H79      1.0000 0.90130  0.79500  0.68280  Biso   1.000  H
  C110     1.0000 0.97390  0.78280  0.82500  Biso   1.000  C
  H80      1.0000 0.97920  0.81640  0.87550  Biso   1.000  H
  Zn6      1.0000 0.71492  0.22842  0.60510  Biso   1.000  Zn
  O21      1.0000 0.75980  0.27700  0.44770  Biso   1.000  O
  H81      1.0000 0.77080  0.29780  0.56010  Biso   1.000  H
  N11      1.0000 0.64250  0.25390  0.59900  Biso   1.000  N
  C111     1.0000 0.60620  0.23830  0.44650  Biso   1.000  C
  H82      1.0000 0.61100  0.21320  0.32280  Biso   1.000  H
  N12      1.0000 0.56080  0.26200  0.48350  Biso   1.000  N
  C112     1.0000 0.62200  0.29030  0.74890  Biso   1.000  C
  O22      1.0000 0.33420  0.22680  0.10000  Biso   1.000  O
  C113     1.0000 0.64400  0.31920  0.94240  Biso   1.000  C
  H83      1.0000 0.67790  0.31480  0.98750  Biso   1.000  H
  O23      1.0000 0.37750  0.18890  0.77600  Biso   1.000  O
  C114     1.0000 0.61350  0.35500  0.06780  Biso   1.000  C
  C115     1.0000 0.63370  0.38450  0.26330  Biso   1.000  C
  H84      1.0000 0.66770  0.38030  0.30790  Biso   1.000  H
  C116     1.0000 0.60480  0.42030  0.39530  Biso   1.000  C
  H85      1.0000 0.61890  0.43980  0.52680  Biso   1.000  H
  C117     1.0000 0.55400  0.42620  0.32520  Biso   1.000  C
  H86      1.0000 0.53390  0.45000  0.41030  Biso   1.000  H
  C118     1.0000 0.53280  0.39680  0.12950  Biso   1.000  C
  H87      1.0000 0.49880  0.40120  0.08470  Biso   1.000  H
  C119     1.0000 0.56250  0.36060  0.99900  Biso   1.000  C
  C120     1.0000 0.54050  0.33170  0.80420  Biso   1.000  C
  H88      1.0000 0.50650  0.33600  0.75820  Biso   1.000  H
  C121     1.0000 0.57120  0.29630  0.68100  Biso   1.000  C
  C122     1.0000 0.51290  0.24810  0.36950  Biso   1.000  C
  C123     1.0000 0.42330  0.21990  0.13700  Biso   1.000  C
  C124     1.0000 0.51290  0.22830  0.12300  Biso   1.000  C
  H89      1.0000 0.54360  0.22450  0.03580  Biso   1.000  H
  C125     1.0000 0.46840  0.21410  0.00170  Biso   1.000  C
  H90      1.0000 0.46860  0.20100  0.83500  Biso   1.000  H
  C126     1.0000 0.42150  0.24000  0.38300  Biso   1.000  C
  H91      1.0000 0.39070  0.24420  0.46850  Biso   1.000  H
  C127     1.0000 0.46690  0.25360  0.49680  Biso   1.000  C
  H92      1.0000 0.46660  0.26670  0.66330  Biso   1.000  H
  C128     1.0000 0.37470  0.20740  0.00600  Biso   1.000  C
  O24      1.0000 0.36640  0.15580  0.94400  Biso   1.000  O
  C129     1.0000 0.50620  0.19840  0.29500  Biso   1.000  C
  H93      1.0000 0.53210  0.17490  0.32350  Biso   1.000  H
  C130     1.0000 0.46100  0.18270  0.17600  Biso   1.000  C
  H94      1.0000 0.45610  0.14910  0.12500  Biso   1.000  H
  C131     1.0000 0.42710  0.27120  0.20900  Biso   1.000  C
  H95      1.0000 0.40130  0.29500  0.18280  Biso   1.000  H
  C132     1.0000 0.47390  0.28280  0.32500  Biso   1.000  C
  H96      1.0000 0.47920  0.31640  0.37550  Biso   1.000  H
  Zn7      1.0000 0.78508  0.27158  0.10510  Biso   1.000  Zn
  O25      1.0000 0.74020  0.22300  0.94770  Biso   1.000  O
  H97      1.0000 0.72920  0.20220  0.06010  Biso   1.000  H
  N13      1.0000 0.85750  0.24610  0.09900  Biso   1.000  N
  C133     1.0000 0.89380  0.26170  0.94650  Biso   1.000  C
  H98      1.0000 0.88900  0.28680  0.82280  Biso   1.000  H
  N14      1.0000 0.93920  0.23800  0.98350  Biso   1.000  N
  C134     1.0000 0.87800  0.20970  0.24890  Biso   1.000  C
  O26      1.0000 0.16580  0.27320  0.60000  Biso   1.000  O
  C135     1.0000 0.85600  0.18080  0.44240  Biso   1.000  C
  H99      1.0000 0.82210  0.18520  0.48750  Biso   1.000  H
  O27      1.0000 0.12250  0.31110  0.27600  Biso   1.000  O
  C136     1.0000 0.88650  0.14500  0.56780  Biso   1.000  C
  C137     1.0000 0.86630  0.11550  0.76330  Biso   1.000  C
  H100     1.0000 0.83230  0.11970  0.80790  Biso   1.000  H
  C138     1.0000 0.89520  0.07970  0.89530  Biso   1.000  C
  H101     1.0000 0.88110  0.06020  0.02680  Biso   1.000  H
  C139     1.0000 0.94600  0.07380  0.82520  Biso   1.000  C
  H102     1.0000 0.96610  0.05000  0.91030  Biso   1.000  H
  C140     1.0000 0.96720  0.10320  0.62950  Biso   1.000  C
  H103     1.0000 0.00120  0.09880  0.58470  Biso   1.000  H
  C141     1.0000 0.93750  0.13940  0.49900  Biso   1.000  C
  C142     1.0000 0.95950  0.16830  0.30420  Biso   1.000  C
  H104     1.0000 0.99350  0.16400  0.25820  Biso   1.000  H
  C143     1.0000 0.92880  0.20370  0.18100  Biso   1.000  C
  C144     1.0000 0.98710  0.25190  0.86950  Biso   1.000  C
  C145     1.0000 0.07670  0.28010  0.63700  Biso   1.000  C
  C146     1.0000 0.98710  0.27170  0.62300  Biso   1.000  C
  H105     1.0000 0.95640  0.27550  0.53580  Biso   1.000  H
  C147     1.0000 0.03160  0.28590  0.50170  Biso   1.000  C
  H106     1.0000 0.03140  0.29900  0.33500  Biso   1.000  H
  C148     1.0000 0.07850  0.26000  0.88300  Biso   1.000  C
  H107     1.0000 0.10930  0.25580  0.96850  Biso   1.000  H
  C149     1.0000 0.03310  0.24640  0.99680  Biso   1.000  C
  H108     1.0000 0.03340  0.23330  0.16330  Biso   1.000  H
  C150     1.0000 0.12530  0.29260  0.50600  Biso   1.000  C
  O28      1.0000 0.13360  0.34420  0.44400  Biso   1.000  O
  C151     1.0000 0.99380  0.30160  0.79500  Biso   1.000  C
  H109     1.0000 0.96790  0.32510  0.82350  Biso   1.000  H
  C152     1.0000 0.03900  0.31730  0.67600  Biso   1.000  C
  H110     1.0000 0.04390  0.35090  0.62500  Biso   1.000  H
  C153     1.0000 0.07290  0.22880  0.70900  Biso   1.000  C
  H111     1.0000 0.09870  0.20500  0.68280  Biso   1.000  H
  C154     1.0000 0.02610  0.21720  0.82500  Biso   1.000  C
  H112     1.0000 0.02080  0.18360  0.87550  Biso   1.000  H
  Zn8      1.0000 0.28508  0.77158  0.60510  Biso   1.000  Zn
  O29      1.0000 0.24020  0.72300  0.44770  Biso   1.000  O
  H113     1.0000 0.22920  0.70220  0.56010  Biso   1.000  H
  N15      1.0000 0.35750  0.74610  0.59900  Biso   1.000  N
  C155     1.0000 0.39380  0.76170  0.44650  Biso   1.000  C
  H114     1.0000 0.38900  0.78680  0.32280  Biso   1.000  H
  N16      1.0000 0.43920  0.73800  0.48350  Biso   1.000  N
  C156     1.0000 0.37800  0.70970  0.74890  Biso   1.000  C
  O30      1.0000 0.66580  0.77320  0.10000  Biso   1.000  O
  C157     1.0000 0.35600  0.68080  0.94240  Biso   1.000  C
  H115     1.0000 0.32210  0.68520  0.98750  Biso   1.000  H
  O31      1.0000 0.62250  0.81110  0.77600  Biso   1.000  O
  C158     1.0000 0.38650  0.64500  0.06780  Biso   1.000  C
  C159     1.0000 0.36630  0.61550  0.26330  Biso   1.000  C
  H116     1.0000 0.33230  0.61970  0.30790  Biso   1.000  H
  C160     1.0000 0.39520  0.57970  0.39530  Biso   1.000  C
  H117     1.0000 0.38110  0.56020  0.52680  Biso   1.000  H
  C161     1.0000 0.44600  0.57380  0.32520  Biso   1.000  C
  H118     1.0000 0.46610  0.55000  0.41030  Biso   1.000  H
  C162     1.0000 0.46720  0.60320  0.12950  Biso   1.000  C
  H119     1.0000 0.50120  0.59880  0.08470  Biso   1.000  H
  C163     1.0000 0.43750  0.63940  0.99900  Biso   1.000  C
  C164     1.0000 0.45950  0.66830  0.80420  Biso   1.000  C
  H120     1.0000 0.49350  0.66400  0.75820  Biso   1.000  H
  C165     1.0000 0.42880  0.70370  0.68100  Biso   1.000  C
  C166     1.0000 0.48710  0.75190  0.36950  Biso   1.000  C
  C167     1.0000 0.57670  0.78010  0.13700  Biso   1.000  C
  C168     1.0000 0.48710  0.77170  0.12300  Biso   1.000  C
  H121     1.0000 0.45640  0.77550  0.03580  Biso   1.000  H
  C169     1.0000 0.53160  0.78590  0.00170  Biso   1.000  C
  H122     1.0000 0.53140  0.79900  0.83500  Biso   1.000  H
  C170     1.0000 0.57850  0.76000  0.38300  Biso   1.000  C
  H123     1.0000 0.60930  0.75580  0.46850  Biso   1.000  H
  C171     1.0000 0.53310  0.74640  0.49680  Biso   1.000  C
  H124     1.0000 0.53340  0.73330  0.66330  Biso   1.000  H
  C172     1.0000 0.62530  0.79260  0.00600  Biso   1.000  C
  O32      1.0000 0.63360  0.84420  0.94400  Biso   1.000  O
  C173     1.0000 0.49380  0.80160  0.29500  Biso   1.000  C
  H125     1.0000 0.46790  0.82510  0.32350  Biso   1.000  H
  C174     1.0000 0.53900  0.81730  0.17600  Biso   1.000  C
  H126     1.0000 0.54390  0.85090  0.12500  Biso   1.000  H
  C175     1.0000 0.57290  0.72880  0.20900  Biso   1.000  C
  H127     1.0000 0.59870  0.70500  0.18280  Biso   1.000  H
  C176     1.0000 0.52610  0.71720  0.32500  Biso   1.000  C
  H128     1.0000 0.52080  0.68360  0.37550  Biso   1.000  H
