data_image0
_cell_length_a       26.533
_cell_length_b       26.533
_cell_length_c       4.5396
_cell_angle_alpha    90
_cell_angle_beta     90
_cell_angle_gamma    90

_symmetry_space_group_name_H-M    "P 1"
_symmetry_int_tables_number       1

loop_
  _symmetry_equiv_pos_as_xyz
  'x, y, z'

loop_
  _atom_site_label
  _atom_site_occupancy
  _atom_site_fract_x
  _atom_site_fract_y
  _atom_site_fract_z
  _atom_site_thermal_displace_type
  _atom_site_B_iso_or_equiv
  _atom_site_type_symbol
  Zn1      1.0000 0.26864  0.21554  0.94020  Biso   1.000  Zn
  O1       1.0000 0.22680  0.27800  0.00100  Biso   1.000  O
  H1       1.0000 0.20500  0.28950  0.88350  Biso   1.000  H
  N1       1.0000 0.24050  0.14880  0.98600  Biso   1.000  N
  C1       1.0000 0.25640  0.11270  0.15800  Biso   1.000  C
  H2       1.0000 0.28180  0.11670  0.29720  Biso   1.000  H
  N2       1.0000 0.23160  0.06880  0.10900  Biso   1.000  N
  C2       1.0000 0.20040  0.12460  0.80600  Biso   1.000  C
  O2       1.0000 0.26610  0.83730  0.48800  Biso   1.000  O
  C3       1.0000 0.17160  0.14710  0.58900  Biso   1.000  C
  H3       1.0000 0.17610  0.18080  0.54010  Biso   1.000  H
  O3       1.0000 0.33840  0.86690  0.44100  Biso   1.000  O
  C4       1.0000 0.13550  0.11760  0.44600  Biso   1.000  C
  C5       1.0000 0.10580  0.13830  0.22700  Biso   1.000  C
  H4       1.0000 0.11010  0.17200  0.17760  Biso   1.000  H
  C6       1.0000 0.06960  0.11000  0.07900  Biso   1.000  C
  H5       1.0000 0.04960  0.12390  0.93130  Biso   1.000  H
  C7       1.0000 0.06510  0.05990  0.16300  Biso   1.000  C
  H6       1.0000 0.04140  0.03970  0.06900  Biso   1.000  H
  C8       1.0000 0.09480  0.03930  0.38300  Biso   1.000  C
  H7       1.0000 0.09020  0.00560  0.43290  Biso   1.000  H
  C9       1.0000 0.13100  0.06700  0.53100  Biso   1.000  C
  C10      1.0000 0.16010  0.04480  0.74900  Biso   1.000  C
  H8       1.0000 0.15600  0.01100  0.79820  Biso   1.000  H
  C11      1.0000 0.19540  0.07460  0.89000  Biso   1.000  C
  C12      1.0000 0.24490  0.02020  0.23300  Biso   1.000  C
  C13      1.0000 0.26880  0.92630  0.44200  Biso   1.000  C
  C14      1.0000 0.26510  0.01420  0.51100  Biso   1.000  C
  H9       1.0000 0.27060  0.04260  0.62740  Biso   1.000  H
  C15      1.0000 0.27730  0.96750  0.62100  Biso   1.000  C
  H10      1.0000 0.29080  0.96380  0.80880  Biso   1.000  H
  C16      1.0000 0.24860  0.93010  0.16300  Biso   1.000  C
  H11      1.0000 0.24310  0.90170  0.04790  Biso   1.000  H
  C17      1.0000 0.23690  0.97770  0.06200  Biso   1.000  C
  H12      1.0000 0.22340  0.98140  0.87410  Biso   1.000  H
  C18      1.0000 0.29140  0.87490  0.50800  Biso   1.000  C
  O4       1.0000 0.27600  0.87100  0.77300  Biso   1.000  O
  C19      1.0000 0.29400  0.00950  0.31300  Biso   1.000  C
  H13      1.0000 0.31860  0.03430  0.29520  Biso   1.000  H
  C20      1.0000 0.30750  0.96200  0.42100  Biso   1.000  C
  H14      1.0000 0.34040  0.95440  0.47490  Biso   1.000  H
  C21      1.0000 0.21820  0.93340  0.36700  Biso   1.000  C
  H15      1.0000 0.19360  0.90870  0.38370  Biso   1.000  H
  C22      1.0000 0.20900  0.98210  0.26200  Biso   1.000  C
  H16      1.0000 0.17620  0.98980  0.20730  Biso   1.000  H
  Zn2      1.0000 0.76864  0.71554  0.44020  Biso   1.000  Zn
  O5       1.0000 0.72680  0.77800  0.50100  Biso   1.000  O
  H17      1.0000 0.70500  0.78950  0.38350  Biso   1.000  H
  N3       1.0000 0.74050  0.64880  0.48600  Biso   1.000  N
  C23      1.0000 0.75640  0.61270  0.65800  Biso   1.000  C
  H18      1.0000 0.78180  0.61670  0.79720  Biso   1.000  H
  N4       1.0000 0.73160  0.56880  0.60900  Biso   1.000  N
  C24      1.0000 0.70040  0.62460  0.30600  Biso   1.000  C
  O6       1.0000 0.76610  0.33730  0.98800  Biso   1.000  O
  C25      1.0000 0.67160  0.64710  0.08900  Biso   1.000  C
  H19      1.0000 0.67610  0.68080  0.04010  Biso   1.000  H
  O7       1.0000 0.83840  0.36690  0.94100  Biso   1.000  O
  C26      1.0000 0.63550  0.61760  0.94600  Biso   1.000  C
  C27      1.0000 0.60580  0.63830  0.72700  Biso   1.000  C
  H20      1.0000 0.61010  0.67200  0.67760  Biso   1.000  H
  C28      1.0000 0.56960  0.61000  0.57900  Biso   1.000  C
  H21      1.0000 0.54960  0.62390  0.43130  Biso   1.000  H
  C29      1.0000 0.56510  0.55990  0.66300  Biso   1.000  C
  H22      1.0000 0.54140  0.53970  0.56900  Biso   1.000  H
  C30      1.0000 0.59480  0.53930  0.88300  Biso   1.000  C
  H23      1.0000 0.59020  0.50560  0.93290  Biso   1.000  H
  C31      1.0000 0.63100  0.56700  0.03100  Biso   1.000  C
  C32      1.0000 0.66010  0.54480  0.24900  Biso   1.000  C
  H24      1.0000 0.65600  0.51100  0.29820  Biso   1.000  H
  C33      1.0000 0.69540  0.57460  0.39000  Biso   1.000  C
  C34      1.0000 0.74490  0.52020  0.73300  Biso   1.000  C
  C35      1.0000 0.76880  0.42630  0.94200  Biso   1.000  C
  C36      1.0000 0.76510  0.51420  0.01100  Biso   1.000  C
  H25      1.0000 0.77060  0.54260  0.12740  Biso   1.000  H
  C37      1.0000 0.77730  0.46750  0.12100  Biso   1.000  C
  H26      1.0000 0.79080  0.46380  0.30880  Biso   1.000  H
  C38      1.0000 0.74860  0.43010  0.66300  Biso   1.000  C
  H27      1.0000 0.74310  0.40170  0.54790  Biso   1.000  H
  C39      1.0000 0.73690  0.47770  0.56200  Biso   1.000  C
  H28      1.0000 0.72340  0.48140  0.37410  Biso   1.000  H
  C40      1.0000 0.79140  0.37490  0.00800  Biso   1.000  C
  O8       1.0000 0.77600  0.37100  0.27300  Biso   1.000  O
  C41      1.0000 0.79400  0.50950  0.81300  Biso   1.000  C
  H29      1.0000 0.81860  0.53430  0.79520  Biso   1.000  H
  C42      1.0000 0.80750  0.46200  0.92100  Biso   1.000  C
  H30      1.0000 0.84040  0.45440  0.97490  Biso   1.000  H
  C43      1.0000 0.71820  0.43340  0.86700  Biso   1.000  C
  H31      1.0000 0.69360  0.40870  0.88370  Biso   1.000  H
  C44      1.0000 0.70900  0.48210  0.76200  Biso   1.000  C
  H32      1.0000 0.67620  0.48980  0.70730  Biso   1.000  H
  Zn3      1.0000 0.73136  0.78446  0.94020  Biso   1.000  Zn
  O9       1.0000 0.77320  0.72200  0.00100  Biso   1.000  O
  H33      1.0000 0.79500  0.71050  0.88350  Biso   1.000  H
  N5       1.0000 0.75950  0.85120  0.98600  Biso   1.000  N
  C45      1.0000 0.74360  0.88730  0.15800  Biso   1.000  C
  H34      1.0000 0.71820  0.88330  0.29720  Biso   1.000  H
  N6       1.0000 0.76840  0.93120  0.10900  Biso   1.000  N
  C46      1.0000 0.79960  0.87540  0.80600  Biso   1.000  C
  O10      1.0000 0.73390  0.16270  0.48800  Biso   1.000  O
  C47      1.0000 0.82840  0.85290  0.58900  Biso   1.000  C
  H35      1.0000 0.82390  0.81920  0.54010  Biso   1.000  H
  O11      1.0000 0.66160  0.13310  0.44100  Biso   1.000  O
  C48      1.0000 0.86450  0.88240  0.44600  Biso   1.000  C
  C49      1.0000 0.89420  0.86170  0.22700  Biso   1.000  C
  H36      1.0000 0.88990  0.82800  0.17760  Biso   1.000  H
  C50      1.0000 0.93040  0.89000  0.07900  Biso   1.000  C
  H37      1.0000 0.95040  0.87610  0.93130  Biso   1.000  H
  C51      1.0000 0.93490  0.94010  0.16300  Biso   1.000  C
  H38      1.0000 0.95860  0.96030  0.06900  Biso   1.000  H
  C52      1.0000 0.90520  0.96070  0.38300  Biso   1.000  C
  H39      1.0000 0.90980  0.99440  0.43290  Biso   1.000  H
  C53      1.0000 0.86900  0.93300  0.53100  Biso   1.000  C
  C54      1.0000 0.83990  0.95520  0.74900  Biso   1.000  C
  H40      1.0000 0.84400  0.98900  0.79820  Biso   1.000  H
  C55      1.0000 0.80460  0.92540  0.89000  Biso   1.000  C
  C56      1.0000 0.75510  0.97980  0.23300  Biso   1.000  C
  C57      1.0000 0.73120  0.07370  0.44200  Biso   1.000  C
  C58      1.0000 0.73490  0.98580  0.51100  Biso   1.000  C
  H41      1.0000 0.72940  0.95740  0.62740  Biso   1.000  H
  C59      1.0000 0.72270  0.03250  0.62100  Biso   1.000  C
  H42      1.0000 0.70920  0.03620  0.80880  Biso   1.000  H
  C60      1.0000 0.75140  0.06990  0.16300  Biso   1.000  C
  H43      1.0000 0.75690  0.09830  0.04790  Biso   1.000  H
  C61      1.0000 0.76310  0.02230  0.06200  Biso   1.000  C
  H44      1.0000 0.77660  0.01860  0.87410  Biso   1.000  H
  C62      1.0000 0.70860  0.12510  0.50800  Biso   1.000  C
  O12      1.0000 0.72400  0.12900  0.77300  Biso   1.000  O
  C63      1.0000 0.70600  0.99050  0.31300  Biso   1.000  C
  H45      1.0000 0.68140  0.96570  0.29520  Biso   1.000  H
  C64      1.0000 0.69250  0.03800  0.42100  Biso   1.000  C
  H46      1.0000 0.65960  0.04560  0.47490  Biso   1.000  H
  C65      1.0000 0.78180  0.06660  0.36700  Biso   1.000  C
  H47      1.0000 0.80640  0.09130  0.38370  Biso   1.000  H
  C66      1.0000 0.79100  0.01790  0.26200  Biso   1.000  C
  H48      1.0000 0.82380  0.01020  0.20730  Biso   1.000  H
  Zn4      1.0000 0.23136  0.28446  0.44020  Biso   1.000  Zn
  O13      1.0000 0.27320  0.22200  0.50100  Biso   1.000  O
  H49      1.0000 0.29500  0.21050  0.38350  Biso   1.000  H
  N7       1.0000 0.25950  0.35120  0.48600  Biso   1.000  N
  C67      1.0000 0.24360  0.38730  0.65800  Biso   1.000  C
  H50      1.0000 0.21820  0.38330  0.79720  Biso   1.000  H
  N8       1.0000 0.26840  0.43120  0.60900  Biso   1.000  N
  C68      1.0000 0.29960  0.37540  0.30600  Biso   1.000  C
  O14      1.0000 0.23390  0.66270  0.98800  Biso   1.000  O
  C69      1.0000 0.32840  0.35290  0.08900  Biso   1.000  C
  H51      1.0000 0.32390  0.31920  0.04010  Biso   1.000  H
  O15      1.0000 0.16160  0.63310  0.94100  Biso   1.000  O
  C70      1.0000 0.36450  0.38240  0.94600  Biso   1.000  C
  C71      1.0000 0.39420  0.36170  0.72700  Biso   1.000  C
  H52      1.0000 0.38990  0.32800  0.67760  Biso   1.000  H
  C72      1.0000 0.43040  0.39000  0.57900  Biso   1.000  C
  H53      1.0000 0.45040  0.37610  0.43130  Biso   1.000  H
  C73      1.0000 0.43490  0.44010  0.66300  Biso   1.000  C
  H54      1.0000 0.45860  0.46030  0.56900  Biso   1.000  H
  C74      1.0000 0.40520  0.46070  0.88300  Biso   1.000  C
  H55      1.0000 0.40980  0.49440  0.93290  Biso   1.000  H
  C75      1.0000 0.36900  0.43300  0.03100  Biso   1.000  C
  C76      1.0000 0.33990  0.45520  0.24900  Biso   1.000  C
  H56      1.0000 0.34400  0.48900  0.29820  Biso   1.000  H
  C77      1.0000 0.30460  0.42540  0.39000  Biso   1.000  C
  C78      1.0000 0.25510  0.47980  0.73300  Biso   1.000  C
  C79      1.0000 0.23120  0.57370  0.94200  Biso   1.000  C
  C80      1.0000 0.23490  0.48580  0.01100  Biso   1.000  C
  H57      1.0000 0.22940  0.45740  0.12740  Biso   1.000  H
  C81      1.0000 0.22270  0.53250  0.12100  Biso   1.000  C
  H58      1.0000 0.20920  0.53620  0.30880  Biso   1.000  H
  C82      1.0000 0.25140  0.56990  0.66300  Biso   1.000  C
  H59      1.0000 0.25690  0.59830  0.54790  Biso   1.000  H
  C83      1.0000 0.26310  0.52230  0.56200  Biso   1.000  C
  H60      1.0000 0.27660  0.51860  0.37410  Biso   1.000  H
  C84      1.0000 0.20860  0.62510  0.00800  Biso   1.000  C
  O16      1.0000 0.22400  0.62900  0.27300  Biso   1.000  O
  C85      1.0000 0.20600  0.49050  0.81300  Biso   1.000  C
  H61      1.0000 0.18140  0.46570  0.79520  Biso   1.000  H
  C86      1.0000 0.19250  0.53800  0.92100  Biso   1.000  C
  H62      1.0000 0.15960  0.54560  0.97490  Biso   1.000  H
  C87      1.0000 0.28180  0.56660  0.86700  Biso   1.000  C
  H63      1.0000 0.30640  0.59130  0.88370  Biso   1.000  H
  C88      1.0000 0.29100  0.51790  0.76200  Biso   1.000  C
  H64      1.0000 0.32380  0.51020  0.70730  Biso   1.000  H
  Zn5      1.0000 0.21554  0.73136  0.05980  Biso   1.000  Zn
  O17      1.0000 0.27800  0.77320  0.99900  Biso   1.000  O
  H65      1.0000 0.28950  0.79500  0.11650  Biso   1.000  H
  N9       1.0000 0.14880  0.75950  0.01400  Biso   1.000  N
  C89      1.0000 0.11270  0.74360  0.84200  Biso   1.000  C
  H66      1.0000 0.11670  0.71820  0.70280  Biso   1.000  H
  N10      1.0000 0.06880  0.76840  0.89100  Biso   1.000  N
  C90      1.0000 0.12460  0.79960  0.19400  Biso   1.000  C
  O18      1.0000 0.83730  0.73390  0.51200  Biso   1.000  O
  C91      1.0000 0.14710  0.82840  0.41100  Biso   1.000  C
  H67      1.0000 0.18080  0.82390  0.45990  Biso   1.000  H
  O19      1.0000 0.86690  0.66160  0.55900  Biso   1.000  O
  C92      1.0000 0.11760  0.86450  0.55400  Biso   1.000  C
  C93      1.0000 0.13830  0.89420  0.77300  Biso   1.000  C
  H68      1.0000 0.17200  0.88990  0.82240  Biso   1.000  H
  C94      1.0000 0.11000  0.93040  0.92100  Biso   1.000  C
  H69      1.0000 0.12390  0.95040  0.06870  Biso   1.000  H
  C95      1.0000 0.05990  0.93490  0.83700  Biso   1.000  C
  H70      1.0000 0.03970  0.95860  0.93100  Biso   1.000  H
  C96      1.0000 0.03930  0.90520  0.61700  Biso   1.000  C
  H71      1.0000 0.00560  0.90980  0.56710  Biso   1.000  H
  C97      1.0000 0.06700  0.86900  0.46900  Biso   1.000  C
  C98      1.0000 0.04480  0.83990  0.25100  Biso   1.000  C
  H72      1.0000 0.01100  0.84400  0.20180  Biso   1.000  H
  C99      1.0000 0.07460  0.80460  0.11000  Biso   1.000  C
  C100     1.0000 0.02020  0.75510  0.76700  Biso   1.000  C
  C101     1.0000 0.92630  0.73120  0.55800  Biso   1.000  C
  C102     1.0000 0.01420  0.73490  0.48900  Biso   1.000  C
  H73      1.0000 0.04260  0.72940  0.37260  Biso   1.000  H
  C103     1.0000 0.96750  0.72270  0.37900  Biso   1.000  C
  H74      1.0000 0.96380  0.70920  0.19120  Biso   1.000  H
  C104     1.0000 0.93010  0.75140  0.83700  Biso   1.000  C
  H75      1.0000 0.90170  0.75690  0.95210  Biso   1.000  H
  C105     1.0000 0.97770  0.76310  0.93800  Biso   1.000  C
  H76      1.0000 0.98140  0.77660  0.12590  Biso   1.000  H
  C106     1.0000 0.87490  0.70860  0.49200  Biso   1.000  C
  O20      1.0000 0.87100  0.72400  0.22700  Biso   1.000  O
  C107     1.0000 0.00950  0.70600  0.68700  Biso   1.000  C
  H77      1.0000 0.03430  0.68140  0.70480  Biso   1.000  H
  C108     1.0000 0.96200  0.69250  0.57900  Biso   1.000  C
  H78      1.0000 0.95440  0.65960  0.52510  Biso   1.000  H
  C109     1.0000 0.93340  0.78180  0.63300  Biso   1.000  C
  H79      1.0000 0.90870  0.80640  0.61630  Biso   1.000  H
  C110     1.0000 0.98210  0.79100  0.73800  Biso   1.000  C
  H80      1.0000 0.98980  0.82380  0.79270  Biso   1.000  H
  Zn6      1.0000 0.71554  0.23136  0.55980  Biso   1.000  Zn
  O21      1.0000 0.77800  0.27320  0.49900  Biso   1.000  O
  H81      1.0000 0.78950  0.29500  0.61650  Biso   1.000  H
  N11      1.0000 0.64880  0.25950  0.51400  Biso   1.000  N
  C111     1.0000 0.61270  0.24360  0.34200  Biso   1.000  C
  H82      1.0000 0.61670  0.21820  0.20280  Biso   1.000  H
  N12      1.0000 0.56880  0.26840  0.39100  Biso   1.000  N
  C112     1.0000 0.62460  0.29960  0.69400  Biso   1.000  C
  O22      1.0000 0.33730  0.23390  0.01200  Biso   1.000  O
  C113     1.0000 0.64710  0.32840  0.91100  Biso   1.000  C
  H83      1.0000 0.68080  0.32390  0.95990  Biso   1.000  H
  O23      1.0000 0.36690  0.16160  0.05900  Biso   1.000  O
  C114     1.0000 0.61760  0.36450  0.05400  Biso   1.000  C
  C115     1.0000 0.63830  0.39420  0.27300  Biso   1.000  C
  H84      1.0000 0.67200  0.38990  0.32240  Biso   1.000  H
  C116     1.0000 0.61000  0.43040  0.42100  Biso   1.000  C
  H85      1.0000 0.62390  0.45040  0.56870  Biso   1.000  H
  C117     1.0000 0.55990  0.43490  0.33700  Biso   1.000  C
  H86      1.0000 0.53970  0.45860  0.43100  Biso   1.000  H
  C118     1.0000 0.53930  0.40520  0.11700  Biso   1.000  C
  H87      1.0000 0.50560  0.40980  0.06710  Biso   1.000  H
  C119     1.0000 0.56700  0.36900  0.96900  Biso   1.000  C
  C120     1.0000 0.54480  0.33990  0.75100  Biso   1.000  C
  H88      1.0000 0.51100  0.34400  0.70180  Biso   1.000  H
  C121     1.0000 0.57460  0.30460  0.61000  Biso   1.000  C
  C122     1.0000 0.52020  0.25510  0.26700  Biso   1.000  C
  C123     1.0000 0.42630  0.23120  0.05800  Biso   1.000  C
  C124     1.0000 0.51420  0.23490  0.98900  Biso   1.000  C
  H89      1.0000 0.54260  0.22940  0.87260  Biso   1.000  H
  C125     1.0000 0.46750  0.22270  0.87900  Biso   1.000  C
  H90      1.0000 0.46380  0.20920  0.69120  Biso   1.000  H
  C126     1.0000 0.43010  0.25140  0.33700  Biso   1.000  C
  H91      1.0000 0.40170  0.25690  0.45210  Biso   1.000  H
  C127     1.0000 0.47770  0.26310  0.43800  Biso   1.000  C
  H92      1.0000 0.48140  0.27660  0.62590  Biso   1.000  H
  C128     1.0000 0.37490  0.20860  0.99200  Biso   1.000  C
  O24      1.0000 0.37100  0.22400  0.72700  Biso   1.000  O
  C129     1.0000 0.50950  0.20600  0.18700  Biso   1.000  C
  H93      1.0000 0.53430  0.18140  0.20480  Biso   1.000  H
  C130     1.0000 0.46200  0.19250  0.07900  Biso   1.000  C
  H94      1.0000 0.45440  0.15960  0.02510  Biso   1.000  H
  C131     1.0000 0.43340  0.28180  0.13300  Biso   1.000  C
  H95      1.0000 0.40870  0.30640  0.11630  Biso   1.000  H
  C132     1.0000 0.48210  0.29100  0.23800  Biso   1.000  C
  H96      1.0000 0.48980  0.32380  0.29270  Biso   1.000  H
  Zn7      1.0000 0.78446  0.26864  0.05980  Biso   1.000  Zn
  O25      1.0000 0.72200  0.22680  0.99900  Biso   1.000  O
  H97      1.0000 0.71050  0.20500  0.11650  Biso   1.000  H
  N13      1.0000 0.85120  0.24050  0.01400  Biso   1.000  N
  C133     1.0000 0.88730  0.25640  0.84200  Biso   1.000  C
  H98      1.0000 0.88330  0.28180  0.70280  Biso   1.000  H
  N14      1.0000 0.93120  0.23160  0.89100  Biso   1.000  N
  C134     1.0000 0.87540  0.20040  0.19400  Biso   1.000  C
  O26      1.0000 0.16270  0.26610  0.51200  Biso   1.000  O
  C135     1.0000 0.85290  0.17160  0.41100  Biso   1.000  C
  H99      1.0000 0.81920  0.17610  0.45990  Biso   1.000  H
  O27      1.0000 0.13310  0.33840  0.55900  Biso   1.000  O
  C136     1.0000 0.88240  0.13550  0.55400  Biso   1.000  C
  C137     1.0000 0.86170  0.10580  0.77300  Biso   1.000  C
  H100     1.0000 0.82800  0.11010  0.82240  Biso   1.000  H
  C138     1.0000 0.89000  0.06960  0.92100  Biso   1.000  C
  H101     1.0000 0.87610  0.04960  0.06870  Biso   1.000  H
  C139     1.0000 0.94010  0.06510  0.83700  Biso   1.000  C
  H102     1.0000 0.96030  0.04140  0.93100  Biso   1.000  H
  C140     1.0000 0.96070  0.09480  0.61700  Biso   1.000  C
  H103     1.0000 0.99440  0.09020  0.56710  Biso   1.000  H
  C141     1.0000 0.93300  0.13100  0.46900  Biso   1.000  C
  C142     1.0000 0.95520  0.16010  0.25100  Biso   1.000  C
  H104     1.0000 0.98900  0.15600  0.20180  Biso   1.000  H
  C143     1.0000 0.92540  0.19540  0.11000  Biso   1.000  C
  C144     1.0000 0.97980  0.24490  0.76700  Biso   1.000  C
  C145     1.0000 0.07370  0.26880  0.55800  Biso   1.000  C
  C146     1.0000 0.98580  0.26510  0.48900  Biso   1.000  C
  H105     1.0000 0.95740  0.27060  0.37260  Biso   1.000  H
  C147     1.0000 0.03250  0.27730  0.37900  Biso   1.000  C
  H106     1.0000 0.03620  0.29080  0.19120  Biso   1.000  H
  C148     1.0000 0.06990  0.24860  0.83700  Biso   1.000  C
  H107     1.0000 0.09830  0.24310  0.95210  Biso   1.000  H
  C149     1.0000 0.02230  0.23690  0.93800  Biso   1.000  C
  H108     1.0000 0.01860  0.22340  0.12590  Biso   1.000  H
  C150     1.0000 0.12510  0.29140  0.49200  Biso   1.000  C
  O28      1.0000 0.12900  0.27600  0.22700  Biso   1.000  O
  C151     1.0000 0.99050  0.29400  0.68700  Biso   1.000  C
  H109     1.0000 0.96570  0.31860  0.70480  Biso   1.000  H
  C152     1.0000 0.03800  0.30750  0.57900  Biso   1.000  C
  H110     1.0000 0.04560  0.34040  0.52510  Biso   1.000  H
  C153     1.0000 0.06660  0.21820  0.63300  Biso   1.000  C
  H111     1.0000 0.09130  0.19360  0.61630  Biso   1.000  H
  C154     1.0000 0.01790  0.20900  0.73800  Biso   1.000  C
  H112     1.0000 0.01020  0.17620  0.79270  Biso   1.000  H
  Zn8      1.0000 0.28446  0.76864  0.55980  Biso   1.000  Zn
  O29      1.0000 0.22200  0.72680  0.49900  Biso   1.000  O
  H113     1.0000 0.21050  0.70500  0.61650  Biso   1.000  H
  N15      1.0000 0.35120  0.74050  0.51400  Biso   1.000  N
  C155     1.0000 0.38730  0.75640  0.34200  Biso   1.000  C
  H114     1.0000 0.38330  0.78180  0.20280  Biso   1.000  H
  N16      1.0000 0.43120  0.73160  0.39100  Biso   1.000  N
  C156     1.0000 0.37540  0.70040  0.69400  Biso   1.000  C
  O30      1.0000 0.66270  0.76610  0.01200  Biso   1.000  O
  C157     1.0000 0.35290  0.67160  0.91100  Biso   1.000  C
  H115     1.0000 0.31920  0.67610  0.95990  Biso   1.000  H
  O31      1.0000 0.63310  0.83840  0.05900  Biso   1.000  O
  C158     1.0000 0.38240  0.63550  0.05400  Biso   1.000  C
  C159     1.0000 0.36170  0.60580  0.27300  Biso   1.000  C
  H116     1.0000 0.32800  0.61010  0.32240  Biso   1.000  H
  C160     1.0000 0.39000  0.56960  0.42100  Biso   1.000  C
  H117     1.0000 0.37610  0.54960  0.56870  Biso   1.000  H
  C161     1.0000 0.44010  0.56510  0.33700  Biso   1.000  C
  H118     1.0000 0.46030  0.54140  0.43100  Biso   1.000  H
  C162     1.0000 0.46070  0.59480  0.11700  Biso   1.000  C
  H119     1.0000 0.49440  0.59020  0.06710  Biso   1.000  H
  C163     1.0000 0.43300  0.63100  0.96900  Biso   1.000  C
  C164     1.0000 0.45520  0.66010  0.75100  Biso   1.000  C
  H120     1.0000 0.48900  0.65600  0.70180  Biso   1.000  H
  C165     1.0000 0.42540  0.69540  0.61000  Biso   1.000  C
  C166     1.0000 0.47980  0.74490  0.26700  Biso   1.000  C
  C167     1.0000 0.57370  0.76880  0.05800  Biso   1.000  C
  C168     1.0000 0.48580  0.76510  0.98900  Biso   1.000  C
  H121     1.0000 0.45740  0.77060  0.87260  Biso   1.000  H
  C169     1.0000 0.53250  0.77730  0.87900  Biso   1.000  C
  H122     1.0000 0.53620  0.79080  0.69120  Biso   1.000  H
  C170     1.0000 0.56990  0.74860  0.33700  Biso   1.000  C
  H123     1.0000 0.59830  0.74310  0.45210  Biso   1.000  H
  C171     1.0000 0.52230  0.73690  0.43800  Biso   1.000  C
  H124     1.0000 0.51860  0.72340  0.62590  Biso   1.000  H
  C172     1.0000 0.62510  0.79140  0.99200  Biso   1.000  C
  O32      1.0000 0.62900  0.77600  0.72700  Biso   1.000  O
  C173     1.0000 0.49050  0.79400  0.18700  Biso   1.000  C
  H125     1.0000 0.46570  0.81860  0.20480  Biso   1.000  H
  C174     1.0000 0.53800  0.80750  0.07900  Biso   1.000  C
  H126     1.0000 0.54560  0.84040  0.02510  Biso   1.000  H
  C175     1.0000 0.56660  0.71820  0.13300  Biso   1.000  C
  H127     1.0000 0.59130  0.69360  0.11630  Biso   1.000  H
  C176     1.0000 0.51790  0.70900  0.23800  Biso   1.000  C
  H128     1.0000 0.51020  0.67620  0.29270  Biso   1.000  H
