data_image0
_cell_length_a       26.297
_cell_length_b       26.297
_cell_length_c       4.9766
_cell_angle_alpha    90
_cell_angle_beta     90
_cell_angle_gamma    90

_symmetry_space_group_name_H-M    "P 1"
_symmetry_int_tables_number       1

loop_
  _symmetry_equiv_pos_as_xyz
  'x, y, z'

loop_
  _atom_site_label
  _atom_site_occupancy
  _atom_site_fract_x
  _atom_site_fract_y
  _atom_site_fract_z
  _atom_site_thermal_displace_type
  _atom_site_B_iso_or_equiv
  _atom_site_type_symbol
  Zn1      1.0000 0.27160  0.21545  0.88240  Biso   1.000  Zn
  O1       1.0000 0.22430  0.26760  0.01700  Biso   1.000  O
  N1       1.0000 0.24520  0.14620  0.92500  Biso   1.000  N
  O2       1.0000 0.33760  0.22860  0.06500  Biso   1.000  O
  H1       1.0000 0.20360  0.27860  0.90490  Biso   1.000  H
  C1       1.0000 0.25940  0.10840  0.07700  Biso   1.000  C
  C2       1.0000 0.20690  0.12360  0.76480  Biso   1.000  C
  H2       1.0000 0.28470  0.11260  0.20550  Biso   1.000  H
  N2       1.0000 0.23610  0.06270  0.04330  Biso   1.000  N
  C3       1.0000 0.17760  0.14520  0.56500  Biso   1.000  C
  C4       1.0000 0.20050  0.07340  0.84500  Biso   1.000  C
  C5       1.0000 0.25040  0.01560  0.16800  Biso   1.000  C
  H3       1.0000 0.18150  0.17920  0.51830  Biso   1.000  H
  C6       1.0000 0.14200  0.11490  0.43450  Biso   1.000  C
  C7       1.0000 0.16650  0.04240  0.71180  Biso   1.000  C
  C8       1.0000 0.27320  0.01410  0.41800  Biso   1.000  C
  C9       1.0000 0.24110  0.97040  0.03500  Biso   1.000  C
  C10      1.0000 0.11200  0.13490  0.23200  Biso   1.000  C
  C11      1.0000 0.13690  0.06400  0.51030  Biso   1.000  C
  H4       1.0000 0.16340  0.00810  0.75520  Biso   1.000  H
  H5       1.0000 0.27960  0.04440  0.50800  Biso   1.000  H
  C12      1.0000 0.28680  0.96880  0.53600  Biso   1.000  C
  C13      1.0000 0.25400  0.92420  0.14600  Biso   1.000  C
  H6       1.0000 0.22570  0.97120  0.86670  Biso   1.000  H
  H7       1.0000 0.11610  0.16890  0.18630  Biso   1.000  H
  C14      1.0000 0.07620  0.10630  0.09600  Biso   1.000  C
  C15      1.0000 0.10080  0.03500  0.37400  Biso   1.000  C
  C16      1.0000 0.27680  0.92490  0.39400  Biso   1.000  C
  H8       1.0000 0.30210  0.96780  0.70460  Biso   1.000  H
  H9       1.0000 0.24750  0.89390  0.05700  Biso   1.000  H
  H10      1.0000 0.05630  0.12030  0.96030  Biso   1.000  H
  C17      1.0000 0.07110  0.05570  0.17180  Biso   1.000  C
  H11      1.0000 0.09640  0.00100  0.42040  Biso   1.000  H
  C18      1.0000 0.29200  0.87470  0.52700  Biso   1.000  C
  H12      1.0000 0.04740  0.03540  0.08480  Biso   1.000  H
  O3       1.0000 0.29960  0.87750  0.77900  Biso   1.000  O
  O4       1.0000 0.34180  0.87410  0.53800  Biso   1.000  O
  C19      1.0000 0.29940  0.00860  0.25500  Biso   1.000  C
  H13      1.0000 0.32300  0.03470  0.23570  Biso   1.000  H
  C20      1.0000 0.31430  0.96260  0.37100  Biso   1.000  C
  H14      1.0000 0.34740  0.95720  0.43040  Biso   1.000  H
  C21      1.0000 0.22620  0.92890  0.30900  Biso   1.000  C
  H15      1.0000 0.20240  0.90290  0.32600  Biso   1.000  H
  C22      1.0000 0.21550  0.97640  0.19700  Biso   1.000  C
  H16      1.0000 0.18250  0.98220  0.13750  Biso   1.000  H
  Zn2      1.0000 0.77160  0.71545  0.38240  Biso   1.000  Zn
  O5       1.0000 0.72430  0.76760  0.51700  Biso   1.000  O
  N3       1.0000 0.74520  0.64620  0.42500  Biso   1.000  N
  O6       1.0000 0.83760  0.72860  0.56500  Biso   1.000  O
  H17      1.0000 0.70360  0.77860  0.40490  Biso   1.000  H
  C23      1.0000 0.75940  0.60840  0.57700  Biso   1.000  C
  C24      1.0000 0.70690  0.62360  0.26480  Biso   1.000  C
  H18      1.0000 0.78470  0.61260  0.70550  Biso   1.000  H
  N4       1.0000 0.73610  0.56270  0.54330  Biso   1.000  N
  C25      1.0000 0.67760  0.64520  0.06500  Biso   1.000  C
  C26      1.0000 0.70050  0.57340  0.34500  Biso   1.000  C
  C27      1.0000 0.75040  0.51560  0.66800  Biso   1.000  C
  H19      1.0000 0.68150  0.67920  0.01830  Biso   1.000  H
  C28      1.0000 0.64200  0.61490  0.93450  Biso   1.000  C
  C29      1.0000 0.66650  0.54240  0.21180  Biso   1.000  C
  C30      1.0000 0.77320  0.51410  0.91800  Biso   1.000  C
  C31      1.0000 0.74110  0.47040  0.53500  Biso   1.000  C
  C32      1.0000 0.61200  0.63490  0.73200  Biso   1.000  C
  C33      1.0000 0.63690  0.56400  0.01030  Biso   1.000  C
  H20      1.0000 0.66340  0.50810  0.25520  Biso   1.000  H
  H21      1.0000 0.77960  0.54440  0.00800  Biso   1.000  H
  C34      1.0000 0.78680  0.46880  0.03600  Biso   1.000  C
  C35      1.0000 0.75400  0.42420  0.64600  Biso   1.000  C
  H22      1.0000 0.72570  0.47120  0.36670  Biso   1.000  H
  H23      1.0000 0.61610  0.66890  0.68630  Biso   1.000  H
  C36      1.0000 0.57620  0.60630  0.59600  Biso   1.000  C
  C37      1.0000 0.60080  0.53500  0.87400  Biso   1.000  C
  C38      1.0000 0.77680  0.42490  0.89400  Biso   1.000  C
  H24      1.0000 0.80210  0.46780  0.20460  Biso   1.000  H
  H25      1.0000 0.74750  0.39390  0.55700  Biso   1.000  H
  H26      1.0000 0.55630  0.62030  0.46030  Biso   1.000  H
  C39      1.0000 0.57110  0.55570  0.67180  Biso   1.000  C
  H27      1.0000 0.59640  0.50100  0.92040  Biso   1.000  H
  C40      1.0000 0.79200  0.37470  0.02700  Biso   1.000  C
  H28      1.0000 0.54740  0.53540  0.58480  Biso   1.000  H
  O7       1.0000 0.79960  0.37750  0.27900  Biso   1.000  O
  O8       1.0000 0.84180  0.37410  0.03800  Biso   1.000  O
  C41      1.0000 0.79940  0.50860  0.75500  Biso   1.000  C
  H29      1.0000 0.82300  0.53470  0.73570  Biso   1.000  H
  C42      1.0000 0.81430  0.46260  0.87100  Biso   1.000  C
  H30      1.0000 0.84740  0.45720  0.93040  Biso   1.000  H
  C43      1.0000 0.72620  0.42890  0.80900  Biso   1.000  C
  H31      1.0000 0.70240  0.40290  0.82600  Biso   1.000  H
  C44      1.0000 0.71550  0.47640  0.69700  Biso   1.000  C
  H32      1.0000 0.68250  0.48220  0.63750  Biso   1.000  H
  Zn3      1.0000 0.72840  0.78455  0.88240  Biso   1.000  Zn
  O9       1.0000 0.77570  0.73240  0.01700  Biso   1.000  O
  N5       1.0000 0.75480  0.85380  0.92500  Biso   1.000  N
  O10      1.0000 0.66240  0.77140  0.06500  Biso   1.000  O
  H33      1.0000 0.79640  0.72140  0.90490  Biso   1.000  H
  C45      1.0000 0.74060  0.89160  0.07700  Biso   1.000  C
  C46      1.0000 0.79310  0.87640  0.76480  Biso   1.000  C
  H34      1.0000 0.71530  0.88740  0.20550  Biso   1.000  H
  N6       1.0000 0.76390  0.93730  0.04330  Biso   1.000  N
  C47      1.0000 0.82240  0.85480  0.56500  Biso   1.000  C
  C48      1.0000 0.79950  0.92660  0.84500  Biso   1.000  C
  C49      1.0000 0.74960  0.98440  0.16800  Biso   1.000  C
  H35      1.0000 0.81850  0.82080  0.51830  Biso   1.000  H
  C50      1.0000 0.85800  0.88510  0.43450  Biso   1.000  C
  C51      1.0000 0.83350  0.95760  0.71180  Biso   1.000  C
  C52      1.0000 0.72680  0.98590  0.41800  Biso   1.000  C
  C53      1.0000 0.75890  0.02960  0.03500  Biso   1.000  C
  C54      1.0000 0.88800  0.86510  0.23200  Biso   1.000  C
  C55      1.0000 0.86310  0.93600  0.51030  Biso   1.000  C
  H36      1.0000 0.83660  0.99190  0.75520  Biso   1.000  H
  H37      1.0000 0.72040  0.95560  0.50800  Biso   1.000  H
  C56      1.0000 0.71320  0.03120  0.53600  Biso   1.000  C
  C57      1.0000 0.74600  0.07580  0.14600  Biso   1.000  C
  H38      1.0000 0.77430  0.02880  0.86670  Biso   1.000  H
  H39      1.0000 0.88390  0.83110  0.18630  Biso   1.000  H
  C58      1.0000 0.92380  0.89370  0.09600  Biso   1.000  C
  C59      1.0000 0.89920  0.96500  0.37400  Biso   1.000  C
  C60      1.0000 0.72320  0.07510  0.39400  Biso   1.000  C
  H40      1.0000 0.69790  0.03220  0.70460  Biso   1.000  H
  H41      1.0000 0.75250  0.10610  0.05700  Biso   1.000  H
  H42      1.0000 0.94370  0.87970  0.96030  Biso   1.000  H
  C61      1.0000 0.92890  0.94430  0.17180  Biso   1.000  C
  H43      1.0000 0.90360  0.99900  0.42040  Biso   1.000  H
  C62      1.0000 0.70800  0.12530  0.52700  Biso   1.000  C
  H44      1.0000 0.95260  0.96460  0.08480  Biso   1.000  H
  O11      1.0000 0.70040  0.12250  0.77900  Biso   1.000  O
  O12      1.0000 0.65820  0.12590  0.53800  Biso   1.000  O
  C63      1.0000 0.70060  0.99140  0.25500  Biso   1.000  C
  H45      1.0000 0.67700  0.96530  0.23570  Biso   1.000  H
  C64      1.0000 0.68570  0.03740  0.37100  Biso   1.000  C
  H46      1.0000 0.65260  0.04280  0.43040  Biso   1.000  H
  C65      1.0000 0.77380  0.07110  0.30900  Biso   1.000  C
  H47      1.0000 0.79760  0.09710  0.32600  Biso   1.000  H
  C66      1.0000 0.78450  0.02360  0.19700  Biso   1.000  C
  H48      1.0000 0.81750  0.01780  0.13750  Biso   1.000  H
  Zn4      1.0000 0.22840  0.28455  0.38240  Biso   1.000  Zn
  O13      1.0000 0.27570  0.23240  0.51700  Biso   1.000  O
  N7       1.0000 0.25480  0.35380  0.42500  Biso   1.000  N
  O14      1.0000 0.16240  0.27140  0.56500  Biso   1.000  O
  H49      1.0000 0.29640  0.22140  0.40490  Biso   1.000  H
  C67      1.0000 0.24060  0.39160  0.57700  Biso   1.000  C
  C68      1.0000 0.29310  0.37640  0.26480  Biso   1.000  C
  H50      1.0000 0.21530  0.38740  0.70550  Biso   1.000  H
  N8       1.0000 0.26390  0.43730  0.54330  Biso   1.000  N
  C69      1.0000 0.32240  0.35480  0.06500  Biso   1.000  C
  C70      1.0000 0.29950  0.42660  0.34500  Biso   1.000  C
  C71      1.0000 0.24960  0.48440  0.66800  Biso   1.000  C
  H51      1.0000 0.31850  0.32080  0.01830  Biso   1.000  H
  C72      1.0000 0.35800  0.38510  0.93450  Biso   1.000  C
  C73      1.0000 0.33350  0.45760  0.21180  Biso   1.000  C
  C74      1.0000 0.22680  0.48590  0.91800  Biso   1.000  C
  C75      1.0000 0.25890  0.52960  0.53500  Biso   1.000  C
  C76      1.0000 0.38800  0.36510  0.73200  Biso   1.000  C
  C77      1.0000 0.36310  0.43600  0.01030  Biso   1.000  C
  H52      1.0000 0.33660  0.49190  0.25520  Biso   1.000  H
  H53      1.0000 0.22040  0.45560  0.00800  Biso   1.000  H
  C78      1.0000 0.21320  0.53120  0.03600  Biso   1.000  C
  C79      1.0000 0.24600  0.57580  0.64600  Biso   1.000  C
  H54      1.0000 0.27430  0.52880  0.36670  Biso   1.000  H
  H55      1.0000 0.38390  0.33110  0.68630  Biso   1.000  H
  C80      1.0000 0.42380  0.39370  0.59600  Biso   1.000  C
  C81      1.0000 0.39920  0.46500  0.87400  Biso   1.000  C
  C82      1.0000 0.22320  0.57510  0.89400  Biso   1.000  C
  H56      1.0000 0.19790  0.53220  0.20460  Biso   1.000  H
  H57      1.0000 0.25250  0.60610  0.55700  Biso   1.000  H
  H58      1.0000 0.44370  0.37970  0.46030  Biso   1.000  H
  C83      1.0000 0.42890  0.44430  0.67180  Biso   1.000  C
  H59      1.0000 0.40360  0.49900  0.92040  Biso   1.000  H
  C84      1.0000 0.20800  0.62530  0.02700  Biso   1.000  C
  H60      1.0000 0.45260  0.46460  0.58480  Biso   1.000  H
  O15      1.0000 0.20040  0.62250  0.27900  Biso   1.000  O
  O16      1.0000 0.15820  0.62590  0.03800  Biso   1.000  O
  C85      1.0000 0.20060  0.49140  0.75500  Biso   1.000  C
  H61      1.0000 0.17700  0.46530  0.73570  Biso   1.000  H
  C86      1.0000 0.18570  0.53740  0.87100  Biso   1.000  C
  H62      1.0000 0.15260  0.54280  0.93040  Biso   1.000  H
  C87      1.0000 0.27380  0.57110  0.80900  Biso   1.000  C
  H63      1.0000 0.29760  0.59710  0.82600  Biso   1.000  H
  C88      1.0000 0.28450  0.52360  0.69700  Biso   1.000  C
  H64      1.0000 0.31750  0.51780  0.63750  Biso   1.000  H
  Zn5      1.0000 0.21545  0.72840  0.11760  Biso   1.000  Zn
  O17      1.0000 0.26760  0.77570  0.98300  Biso   1.000  O
  N9       1.0000 0.14620  0.75480  0.07500  Biso   1.000  N
  O18      1.0000 0.22860  0.66240  0.93500  Biso   1.000  O
  H65      1.0000 0.27860  0.79640  0.09510  Biso   1.000  H
  C89      1.0000 0.10840  0.74060  0.92300  Biso   1.000  C
  C90      1.0000 0.12360  0.79310  0.23520  Biso   1.000  C
  H66      1.0000 0.11260  0.71530  0.79450  Biso   1.000  H
  N10      1.0000 0.06270  0.76390  0.95670  Biso   1.000  N
  C91      1.0000 0.14520  0.82240  0.43500  Biso   1.000  C
  C92      1.0000 0.07340  0.79950  0.15500  Biso   1.000  C
  C93      1.0000 0.01560  0.74960  0.83200  Biso   1.000  C
  H67      1.0000 0.17920  0.81850  0.48170  Biso   1.000  H
  C94      1.0000 0.11490  0.85800  0.56550  Biso   1.000  C
  C95      1.0000 0.04240  0.83350  0.28820  Biso   1.000  C
  C96      1.0000 0.01410  0.72680  0.58200  Biso   1.000  C
  C97      1.0000 0.97040  0.75890  0.96500  Biso   1.000  C
  C98      1.0000 0.13490  0.88800  0.76800  Biso   1.000  C
  C99      1.0000 0.06400  0.86310  0.48970  Biso   1.000  C
  H68      1.0000 0.00810  0.83660  0.24480  Biso   1.000  H
  H69      1.0000 0.04440  0.72040  0.49200  Biso   1.000  H
  C100     1.0000 0.96880  0.71320  0.46400  Biso   1.000  C
  C101     1.0000 0.92420  0.74600  0.85400  Biso   1.000  C
  H70      1.0000 0.97120  0.77430  0.13330  Biso   1.000  H
  H71      1.0000 0.16890  0.88390  0.81370  Biso   1.000  H
  C102     1.0000 0.10630  0.92380  0.90400  Biso   1.000  C
  C103     1.0000 0.03500  0.89920  0.62600  Biso   1.000  C
  C104     1.0000 0.92490  0.72320  0.60600  Biso   1.000  C
  H72      1.0000 0.96780  0.69790  0.29540  Biso   1.000  H
  H73      1.0000 0.89390  0.75250  0.94300  Biso   1.000  H
  H74      1.0000 0.12030  0.94370  0.03970  Biso   1.000  H
  C105     1.0000 0.05570  0.92890  0.82820  Biso   1.000  C
  H75      1.0000 0.00100  0.90360  0.57960  Biso   1.000  H
  C106     1.0000 0.87470  0.70800  0.47300  Biso   1.000  C
  H76      1.0000 0.03540  0.95260  0.91520  Biso   1.000  H
  O19      1.0000 0.87750  0.70040  0.22100  Biso   1.000  O
  O20      1.0000 0.87410  0.65820  0.46200  Biso   1.000  O
  C107     1.0000 0.00860  0.70060  0.74500  Biso   1.000  C
  H77      1.0000 0.03470  0.67700  0.76430  Biso   1.000  H
  C108     1.0000 0.96260  0.68570  0.62900  Biso   1.000  C
  H78      1.0000 0.95720  0.65260  0.56960  Biso   1.000  H
  C109     1.0000 0.92890  0.77380  0.69100  Biso   1.000  C
  H79      1.0000 0.90290  0.79760  0.67400  Biso   1.000  H
  C110     1.0000 0.97640  0.78450  0.80300  Biso   1.000  C
  H80      1.0000 0.98220  0.81750  0.86250  Biso   1.000  H
  Zn6      1.0000 0.71545  0.22840  0.61760  Biso   1.000  Zn
  O21      1.0000 0.76760  0.27570  0.48300  Biso   1.000  O
  N11      1.0000 0.64620  0.25480  0.57500  Biso   1.000  N
  O22      1.0000 0.72860  0.16240  0.43500  Biso   1.000  O
  H81      1.0000 0.77860  0.29640  0.59510  Biso   1.000  H
  C111     1.0000 0.60840  0.24060  0.42300  Biso   1.000  C
  C112     1.0000 0.62360  0.29310  0.73520  Biso   1.000  C
  H82      1.0000 0.61260  0.21530  0.29450  Biso   1.000  H
  N12      1.0000 0.56270  0.26390  0.45670  Biso   1.000  N
  C113     1.0000 0.64520  0.32240  0.93500  Biso   1.000  C
  C114     1.0000 0.57340  0.29950  0.65500  Biso   1.000  C
  C115     1.0000 0.51560  0.24960  0.33200  Biso   1.000  C
  H83      1.0000 0.67920  0.31850  0.98170  Biso   1.000  H
  C116     1.0000 0.61490  0.35800  0.06550  Biso   1.000  C
  C117     1.0000 0.54240  0.33350  0.78820  Biso   1.000  C
  C118     1.0000 0.51410  0.22680  0.08200  Biso   1.000  C
  C119     1.0000 0.47040  0.25890  0.46500  Biso   1.000  C
  C120     1.0000 0.63490  0.38800  0.26800  Biso   1.000  C
  C121     1.0000 0.56400  0.36310  0.98970  Biso   1.000  C
  H84      1.0000 0.50810  0.33660  0.74480  Biso   1.000  H
  H85      1.0000 0.54440  0.22040  0.99200  Biso   1.000  H
  C122     1.0000 0.46880  0.21320  0.96400  Biso   1.000  C
  C123     1.0000 0.42420  0.24600  0.35400  Biso   1.000  C
  H86      1.0000 0.47120  0.27430  0.63330  Biso   1.000  H
  H87      1.0000 0.66890  0.38390  0.31370  Biso   1.000  H
  C124     1.0000 0.60630  0.42380  0.40400  Biso   1.000  C
  C125     1.0000 0.53500  0.39920  0.12600  Biso   1.000  C
  C126     1.0000 0.42490  0.22320  0.10600  Biso   1.000  C
  H88      1.0000 0.46780  0.19790  0.79540  Biso   1.000  H
  H89      1.0000 0.39390  0.25250  0.44300  Biso   1.000  H
  H90      1.0000 0.62030  0.44370  0.53970  Biso   1.000  H
  C127     1.0000 0.55570  0.42890  0.32820  Biso   1.000  C
  H91      1.0000 0.50100  0.40360  0.07960  Biso   1.000  H
  C128     1.0000 0.37470  0.20800  0.97300  Biso   1.000  C
  H92      1.0000 0.53540  0.45260  0.41520  Biso   1.000  H
  O23      1.0000 0.37750  0.20040  0.72100  Biso   1.000  O
  O24      1.0000 0.37410  0.15820  0.96200  Biso   1.000  O
  C129     1.0000 0.50860  0.20060  0.24500  Biso   1.000  C
  H93      1.0000 0.53470  0.17700  0.26430  Biso   1.000  H
  C130     1.0000 0.46260  0.18570  0.12900  Biso   1.000  C
  H94      1.0000 0.45720  0.15260  0.06960  Biso   1.000  H
  C131     1.0000 0.42890  0.27380  0.19100  Biso   1.000  C
  H95      1.0000 0.40290  0.29760  0.17400  Biso   1.000  H
  C132     1.0000 0.47640  0.28450  0.30300  Biso   1.000  C
  H96      1.0000 0.48220  0.31750  0.36250  Biso   1.000  H
  Zn7      1.0000 0.78455  0.27160  0.11760  Biso   1.000  Zn
  O25      1.0000 0.73240  0.22430  0.98300  Biso   1.000  O
  N13      1.0000 0.85380  0.24520  0.07500  Biso   1.000  N
  O26      1.0000 0.77140  0.33760  0.93500  Biso   1.000  O
  H97      1.0000 0.72140  0.20360  0.09510  Biso   1.000  H
  C133     1.0000 0.89160  0.25940  0.92300  Biso   1.000  C
  C134     1.0000 0.87640  0.20690  0.23520  Biso   1.000  C
  H98      1.0000 0.88740  0.28470  0.79450  Biso   1.000  H
  N14      1.0000 0.93730  0.23610  0.95670  Biso   1.000  N
  C135     1.0000 0.85480  0.17760  0.43500  Biso   1.000  C
  C136     1.0000 0.92660  0.20050  0.15500  Biso   1.000  C
  C137     1.0000 0.98440  0.25040  0.83200  Biso   1.000  C
  H99      1.0000 0.82080  0.18150  0.48170  Biso   1.000  H
  C138     1.0000 0.88510  0.14200  0.56550  Biso   1.000  C
  C139     1.0000 0.95760  0.16650  0.28820  Biso   1.000  C
  C140     1.0000 0.98590  0.27320  0.58200  Biso   1.000  C
  C141     1.0000 0.02960  0.24110  0.96500  Biso   1.000  C
  C142     1.0000 0.86510  0.11200  0.76800  Biso   1.000  C
  C143     1.0000 0.93600  0.13690  0.48970  Biso   1.000  C
  H100     1.0000 0.99190  0.16340  0.24480  Biso   1.000  H
  H101     1.0000 0.95560  0.27960  0.49200  Biso   1.000  H
  C144     1.0000 0.03120  0.28680  0.46400  Biso   1.000  C
  C145     1.0000 0.07580  0.25400  0.85400  Biso   1.000  C
  H102     1.0000 0.02880  0.22570  0.13330  Biso   1.000  H
  H103     1.0000 0.83110  0.11610  0.81370  Biso   1.000  H
  C146     1.0000 0.89370  0.07620  0.90400  Biso   1.000  C
  C147     1.0000 0.96500  0.10080  0.62600  Biso   1.000  C
  C148     1.0000 0.07510  0.27680  0.60600  Biso   1.000  C
  H104     1.0000 0.03220  0.30210  0.29540  Biso   1.000  H
  H105     1.0000 0.10610  0.24750  0.94300  Biso   1.000  H
  H106     1.0000 0.87970  0.05630  0.03970  Biso   1.000  H
  C149     1.0000 0.94430  0.07110  0.82820  Biso   1.000  C
  H107     1.0000 0.99900  0.09640  0.57960  Biso   1.000  H
  C150     1.0000 0.12530  0.29200  0.47300  Biso   1.000  C
  H108     1.0000 0.96460  0.04740  0.91520  Biso   1.000  H
  O27      1.0000 0.12250  0.29960  0.22100  Biso   1.000  O
  O28      1.0000 0.12590  0.34180  0.46200  Biso   1.000  O
  C151     1.0000 0.99140  0.29940  0.74500  Biso   1.000  C
  H109     1.0000 0.96530  0.32300  0.76430  Biso   1.000  H
  C152     1.0000 0.03740  0.31430  0.62900  Biso   1.000  C
  H110     1.0000 0.04280  0.34740  0.56960  Biso   1.000  H
  C153     1.0000 0.07110  0.22620  0.69100  Biso   1.000  C
  H111     1.0000 0.09710  0.20240  0.67400  Biso   1.000  H
  C154     1.0000 0.02360  0.21550  0.80300  Biso   1.000  C
  H112     1.0000 0.01780  0.18250  0.86250  Biso   1.000  H
  Zn8      1.0000 0.28455  0.77160  0.61760  Biso   1.000  Zn
  O29      1.0000 0.23240  0.72430  0.48300  Biso   1.000  O
  N15      1.0000 0.35380  0.74520  0.57500  Biso   1.000  N
  O30      1.0000 0.27140  0.83760  0.43500  Biso   1.000  O
  H113     1.0000 0.22140  0.70360  0.59510  Biso   1.000  H
  C155     1.0000 0.39160  0.75940  0.42300  Biso   1.000  C
  C156     1.0000 0.37640  0.70690  0.73520  Biso   1.000  C
  H114     1.0000 0.38740  0.78470  0.29450  Biso   1.000  H
  N16      1.0000 0.43730  0.73610  0.45670  Biso   1.000  N
  C157     1.0000 0.35480  0.67760  0.93500  Biso   1.000  C
  C158     1.0000 0.42660  0.70050  0.65500  Biso   1.000  C
  C159     1.0000 0.48440  0.75040  0.33200  Biso   1.000  C
  H115     1.0000 0.32080  0.68150  0.98170  Biso   1.000  H
  C160     1.0000 0.38510  0.64200  0.06550  Biso   1.000  C
  C161     1.0000 0.45760  0.66650  0.78820  Biso   1.000  C
  C162     1.0000 0.48590  0.77320  0.08200  Biso   1.000  C
  C163     1.0000 0.52960  0.74110  0.46500  Biso   1.000  C
  C164     1.0000 0.36510  0.61200  0.26800  Biso   1.000  C
  C165     1.0000 0.43600  0.63690  0.98970  Biso   1.000  C
  H116     1.0000 0.49190  0.66340  0.74480  Biso   1.000  H
  H117     1.0000 0.45560  0.77960  0.99200  Biso   1.000  H
  C166     1.0000 0.53120  0.78680  0.96400  Biso   1.000  C
  C167     1.0000 0.57580  0.75400  0.35400  Biso   1.000  C
  H118     1.0000 0.52880  0.72570  0.63330  Biso   1.000  H
  H119     1.0000 0.33110  0.61610  0.31370  Biso   1.000  H
  C168     1.0000 0.39370  0.57620  0.40400  Biso   1.000  C
  C169     1.0000 0.46500  0.60080  0.12600  Biso   1.000  C
  C170     1.0000 0.57510  0.77680  0.10600  Biso   1.000  C
  H120     1.0000 0.53220  0.80210  0.79540  Biso   1.000  H
  H121     1.0000 0.60610  0.74750  0.44300  Biso   1.000  H
  H122     1.0000 0.37970  0.55630  0.53970  Biso   1.000  H
  C171     1.0000 0.44430  0.57110  0.32820  Biso   1.000  C
  H123     1.0000 0.49900  0.59640  0.07960  Biso   1.000  H
  C172     1.0000 0.62530  0.79200  0.97300  Biso   1.000  C
  H124     1.0000 0.46460  0.54740  0.41520  Biso   1.000  H
  O31      1.0000 0.62250  0.79960  0.72100  Biso   1.000  O
  O32      1.0000 0.62590  0.84180  0.96200  Biso   1.000  O
  C173     1.0000 0.49140  0.79940  0.24500  Biso   1.000  C
  H125     1.0000 0.46530  0.82300  0.26430  Biso   1.000  H
  C174     1.0000 0.53740  0.81430  0.12900  Biso   1.000  C
  H126     1.0000 0.54280  0.84740  0.06960  Biso   1.000  H
  C175     1.0000 0.57110  0.72620  0.19100  Biso   1.000  C
  H127     1.0000 0.59710  0.70240  0.17400  Biso   1.000  H
  C176     1.0000 0.52360  0.71550  0.30300  Biso   1.000  C
  H128     1.0000 0.51780  0.68250  0.36250  Biso   1.000  H
