data_image0
_cell_length_a       26.421
_cell_length_b       26.421
_cell_length_c       4.7117
_cell_angle_alpha    90
_cell_angle_beta     90
_cell_angle_gamma    90

_symmetry_space_group_name_H-M    "P 1"
_symmetry_int_tables_number       1

loop_
  _symmetry_equiv_pos_as_xyz
  'x, y, z'

loop_
  _atom_site_label
  _atom_site_occupancy
  _atom_site_fract_x
  _atom_site_fract_y
  _atom_site_fract_z
  _atom_site_thermal_displace_type
  _atom_site_B_iso_or_equiv
  _atom_site_type_symbol
  Zn1      1.0000 0.26939  0.21578  0.91460  Biso   1.000  Zn
  O1       1.0000 0.22910  0.27370  0.00800  Biso   1.000  O
  H1       1.0000 0.20740  0.28520  0.89120  Biso   1.000  H
  N1       1.0000 0.24220  0.14840  0.97700  Biso   1.000  N
  C1       1.0000 0.25530  0.10990  0.13400  Biso   1.000  C
  H2       1.0000 0.28020  0.11320  0.27260  Biso   1.000  H
  N2       1.0000 0.23160  0.06500  0.08940  Biso   1.000  N
  C2       1.0000 0.20270  0.12590  0.79620  Biso   1.000  C
  O2       1.0000 0.27030  0.83840  0.46300  Biso   1.000  O
  C3       1.0000 0.17370  0.14730  0.58400  Biso   1.000  C
  H3       1.0000 0.17750  0.18120  0.53450  Biso   1.000  H
  O3       1.0000 0.34200  0.86230  0.45900  Biso   1.000  O
  C4       1.0000 0.13850  0.11670  0.44510  Biso   1.000  C
  C5       1.0000 0.10920  0.13720  0.23100  Biso   1.000  C
  H4       1.0000 0.11360  0.17110  0.18310  Biso   1.000  H
  C6       1.0000 0.07340  0.10870  0.08500  Biso   1.000  C
  H5       1.0000 0.05380  0.12280  0.94160  Biso   1.000  H
  C7       1.0000 0.06840  0.05820  0.16310  Biso   1.000  C
  H6       1.0000 0.04500  0.03800  0.06920  Biso   1.000  H
  C8       1.0000 0.09760  0.03710  0.37800  Biso   1.000  C
  H7       1.0000 0.09320  0.00330  0.42580  Biso   1.000  H
  C9       1.0000 0.13340  0.06600  0.52380  Biso   1.000  C
  C10      1.0000 0.16280  0.04410  0.73700  Biso   1.000  C
  H8       1.0000 0.15940  0.01020  0.78580  Biso   1.000  H
  C11      1.0000 0.19730  0.07540  0.87400  Biso   1.000  C
  C12      1.0000 0.24590  0.01790  0.19600  Biso   1.000  C
  C13      1.0000 0.27460  0.92700  0.41600  Biso   1.000  C
  C14      1.0000 0.29540  0.01130  0.27600  Biso   1.000  C
  H9       1.0000 0.31850  0.03770  0.25530  Biso   1.000  H
  C15      1.0000 0.31140  0.96510  0.39000  Biso   1.000  C
  H10      1.0000 0.34480  0.95980  0.44480  Biso   1.000  H
  C16      1.0000 0.22360  0.93110  0.33800  Biso   1.000  C
  H11      1.0000 0.20030  0.90500  0.35710  Biso   1.000  H
  C17      1.0000 0.21190  0.97870  0.22800  Biso   1.000  C
  H12      1.0000 0.17860  0.98450  0.17140  Biso   1.000  H
  C18      1.0000 0.29510  0.87590  0.50600  Biso   1.000  C
  C19      1.0000 0.26490  0.01460  0.46900  Biso   1.000  C
  H13      1.0000 0.26780  0.04390  0.57740  Biso   1.000  H
  C20      1.0000 0.27940  0.96910  0.58400  Biso   1.000  C
  H14      1.0000 0.29200  0.96690  0.76800  Biso   1.000  H
  C21      1.0000 0.25570  0.92780  0.14400  Biso   1.000  C
  H15      1.0000 0.25260  0.89840  0.03700  Biso   1.000  H
  C22      1.0000 0.24160  0.97430  0.03700  Biso   1.000  C
  H16      1.0000 0.22880  0.97630  0.85330  Biso   1.000  H
  O4       1.0000 0.30370  0.87070  0.77100  Biso   1.000  O
  Zn2      1.0000 0.76939  0.71578  0.41460  Biso   1.000  Zn
  O5       1.0000 0.72910  0.77370  0.50800  Biso   1.000  O
  H17      1.0000 0.70740  0.78520  0.39120  Biso   1.000  H
  N3       1.0000 0.74220  0.64840  0.47700  Biso   1.000  N
  C23      1.0000 0.75530  0.60990  0.63400  Biso   1.000  C
  H18      1.0000 0.78020  0.61320  0.77260  Biso   1.000  H
  N4       1.0000 0.73160  0.56500  0.58940  Biso   1.000  N
  C24      1.0000 0.70270  0.62590  0.29620  Biso   1.000  C
  O6       1.0000 0.77030  0.33840  0.96300  Biso   1.000  O
  C25      1.0000 0.67370  0.64730  0.08400  Biso   1.000  C
  H19      1.0000 0.67750  0.68120  0.03450  Biso   1.000  H
  O7       1.0000 0.84200  0.36230  0.95900  Biso   1.000  O
  C26      1.0000 0.63850  0.61670  0.94510  Biso   1.000  C
  C27      1.0000 0.60920  0.63720  0.73100  Biso   1.000  C
  H20      1.0000 0.61360  0.67110  0.68310  Biso   1.000  H
  C28      1.0000 0.57340  0.60870  0.58500  Biso   1.000  C
  H21      1.0000 0.55380  0.62280  0.44160  Biso   1.000  H
  C29      1.0000 0.56840  0.55820  0.66310  Biso   1.000  C
  H22      1.0000 0.54500  0.53800  0.56920  Biso   1.000  H
  C30      1.0000 0.59760  0.53710  0.87800  Biso   1.000  C
  H23      1.0000 0.59320  0.50330  0.92580  Biso   1.000  H
  C31      1.0000 0.63340  0.56600  0.02380  Biso   1.000  C
  C32      1.0000 0.66280  0.54410  0.23700  Biso   1.000  C
  H24      1.0000 0.65940  0.51020  0.28580  Biso   1.000  H
  C33      1.0000 0.69730  0.57540  0.37400  Biso   1.000  C
  C34      1.0000 0.74590  0.51790  0.69600  Biso   1.000  C
  C35      1.0000 0.77460  0.42700  0.91600  Biso   1.000  C
  C36      1.0000 0.79540  0.51130  0.77600  Biso   1.000  C
  H25      1.0000 0.81850  0.53770  0.75530  Biso   1.000  H
  C37      1.0000 0.81140  0.46510  0.89000  Biso   1.000  C
  H26      1.0000 0.84480  0.45980  0.94480  Biso   1.000  H
  C38      1.0000 0.72360  0.43110  0.83800  Biso   1.000  C
  H27      1.0000 0.70030  0.40500  0.85710  Biso   1.000  H
  C39      1.0000 0.71190  0.47870  0.72800  Biso   1.000  C
  H28      1.0000 0.67860  0.48450  0.67140  Biso   1.000  H
  C40      1.0000 0.79510  0.37590  0.00600  Biso   1.000  C
  C41      1.0000 0.76490  0.51460  0.96900  Biso   1.000  C
  H29      1.0000 0.76780  0.54390  0.07740  Biso   1.000  H
  C42      1.0000 0.77940  0.46910  0.08400  Biso   1.000  C
  H30      1.0000 0.79200  0.46690  0.26800  Biso   1.000  H
  C43      1.0000 0.75570  0.42780  0.64400  Biso   1.000  C
  H31      1.0000 0.75260  0.39840  0.53700  Biso   1.000  H
  C44      1.0000 0.74160  0.47430  0.53700  Biso   1.000  C
  H32      1.0000 0.72880  0.47630  0.35330  Biso   1.000  H
  O8       1.0000 0.80370  0.37070  0.27100  Biso   1.000  O
  Zn3      1.0000 0.73061  0.78422  0.91460  Biso   1.000  Zn
  O9       1.0000 0.77090  0.72630  0.00800  Biso   1.000  O
  H33      1.0000 0.79260  0.71480  0.89120  Biso   1.000  H
  N5       1.0000 0.75780  0.85160  0.97700  Biso   1.000  N
  C45      1.0000 0.74470  0.89010  0.13400  Biso   1.000  C
  H34      1.0000 0.71980  0.88680  0.27260  Biso   1.000  H
  N6       1.0000 0.76840  0.93500  0.08940  Biso   1.000  N
  C46      1.0000 0.79730  0.87410  0.79620  Biso   1.000  C
  O10      1.0000 0.72970  0.16160  0.46300  Biso   1.000  O
  C47      1.0000 0.82630  0.85270  0.58400  Biso   1.000  C
  H35      1.0000 0.82250  0.81880  0.53450  Biso   1.000  H
  O11      1.0000 0.65800  0.13770  0.45900  Biso   1.000  O
  C48      1.0000 0.86150  0.88330  0.44510  Biso   1.000  C
  C49      1.0000 0.89080  0.86280  0.23100  Biso   1.000  C
  H36      1.0000 0.88640  0.82890  0.18310  Biso   1.000  H
  C50      1.0000 0.92660  0.89130  0.08500  Biso   1.000  C
  H37      1.0000 0.94620  0.87720  0.94160  Biso   1.000  H
  C51      1.0000 0.93160  0.94180  0.16310  Biso   1.000  C
  H38      1.0000 0.95500  0.96200  0.06920  Biso   1.000  H
  C52      1.0000 0.90240  0.96290  0.37800  Biso   1.000  C
  H39      1.0000 0.90680  0.99670  0.42580  Biso   1.000  H
  C53      1.0000 0.86660  0.93400  0.52380  Biso   1.000  C
  C54      1.0000 0.83720  0.95590  0.73700  Biso   1.000  C
  H40      1.0000 0.84060  0.98980  0.78580  Biso   1.000  H
  C55      1.0000 0.80270  0.92460  0.87400  Biso   1.000  C
  C56      1.0000 0.75410  0.98210  0.19600  Biso   1.000  C
  C57      1.0000 0.72540  0.07300  0.41600  Biso   1.000  C
  C58      1.0000 0.70460  0.98870  0.27600  Biso   1.000  C
  H41      1.0000 0.68150  0.96230  0.25530  Biso   1.000  H
  C59      1.0000 0.68860  0.03490  0.39000  Biso   1.000  C
  H42      1.0000 0.65520  0.04020  0.44480  Biso   1.000  H
  C60      1.0000 0.77640  0.06890  0.33800  Biso   1.000  C
  H43      1.0000 0.79970  0.09500  0.35710  Biso   1.000  H
  C61      1.0000 0.78810  0.02130  0.22800  Biso   1.000  C
  H44      1.0000 0.82140  0.01550  0.17140  Biso   1.000  H
  C62      1.0000 0.70490  0.12410  0.50600  Biso   1.000  C
  C63      1.0000 0.73510  0.98540  0.46900  Biso   1.000  C
  H45      1.0000 0.73220  0.95610  0.57740  Biso   1.000  H
  C64      1.0000 0.72060  0.03090  0.58400  Biso   1.000  C
  H46      1.0000 0.70800  0.03310  0.76800  Biso   1.000  H
  C65      1.0000 0.74430  0.07220  0.14400  Biso   1.000  C
  H47      1.0000 0.74740  0.10160  0.03700  Biso   1.000  H
  C66      1.0000 0.75840  0.02570  0.03700  Biso   1.000  C
  H48      1.0000 0.77120  0.02370  0.85330  Biso   1.000  H
  O12      1.0000 0.69630  0.12930  0.77100  Biso   1.000  O
  Zn4      1.0000 0.23061  0.28422  0.41460  Biso   1.000  Zn
  O13      1.0000 0.27090  0.22630  0.50800  Biso   1.000  O
  H49      1.0000 0.29260  0.21480  0.39120  Biso   1.000  H
  N7       1.0000 0.25780  0.35160  0.47700  Biso   1.000  N
  C67      1.0000 0.24470  0.39010  0.63400  Biso   1.000  C
  H50      1.0000 0.21980  0.38680  0.77260  Biso   1.000  H
  N8       1.0000 0.26840  0.43500  0.58940  Biso   1.000  N
  C68      1.0000 0.29730  0.37410  0.29620  Biso   1.000  C
  O14      1.0000 0.22970  0.66160  0.96300  Biso   1.000  O
  C69      1.0000 0.32630  0.35270  0.08400  Biso   1.000  C
  H51      1.0000 0.32250  0.31880  0.03450  Biso   1.000  H
  O15      1.0000 0.15800  0.63770  0.95900  Biso   1.000  O
  C70      1.0000 0.36150  0.38330  0.94510  Biso   1.000  C
  C71      1.0000 0.39080  0.36280  0.73100  Biso   1.000  C
  H52      1.0000 0.38640  0.32890  0.68310  Biso   1.000  H
  C72      1.0000 0.42660  0.39130  0.58500  Biso   1.000  C
  H53      1.0000 0.44620  0.37720  0.44160  Biso   1.000  H
  C73      1.0000 0.43160  0.44180  0.66310  Biso   1.000  C
  H54      1.0000 0.45500  0.46200  0.56920  Biso   1.000  H
  C74      1.0000 0.40240  0.46290  0.87800  Biso   1.000  C
  H55      1.0000 0.40680  0.49670  0.92580  Biso   1.000  H
  C75      1.0000 0.36660  0.43400  0.02380  Biso   1.000  C
  C76      1.0000 0.33720  0.45590  0.23700  Biso   1.000  C
  H56      1.0000 0.34060  0.48980  0.28580  Biso   1.000  H
  C77      1.0000 0.30270  0.42460  0.37400  Biso   1.000  C
  C78      1.0000 0.25410  0.48210  0.69600  Biso   1.000  C
  C79      1.0000 0.22540  0.57300  0.91600  Biso   1.000  C
  C80      1.0000 0.20460  0.48870  0.77600  Biso   1.000  C
  H57      1.0000 0.18150  0.46230  0.75530  Biso   1.000  H
  C81      1.0000 0.18860  0.53490  0.89000  Biso   1.000  C
  H58      1.0000 0.15520  0.54020  0.94480  Biso   1.000  H
  C82      1.0000 0.27640  0.56890  0.83800  Biso   1.000  C
  H59      1.0000 0.29970  0.59500  0.85710  Biso   1.000  H
  C83      1.0000 0.28810  0.52130  0.72800  Biso   1.000  C
  H60      1.0000 0.32140  0.51550  0.67140  Biso   1.000  H
  C84      1.0000 0.20490  0.62410  0.00600  Biso   1.000  C
  C85      1.0000 0.23510  0.48540  0.96900  Biso   1.000  C
  H61      1.0000 0.23220  0.45610  0.07740  Biso   1.000  H
  C86      1.0000 0.22060  0.53090  0.08400  Biso   1.000  C
  H62      1.0000 0.20800  0.53310  0.26800  Biso   1.000  H
  C87      1.0000 0.24430  0.57220  0.64400  Biso   1.000  C
  H63      1.0000 0.24740  0.60160  0.53700  Biso   1.000  H
  C88      1.0000 0.25840  0.52570  0.53700  Biso   1.000  C
  H64      1.0000 0.27120  0.52370  0.35330  Biso   1.000  H
  O16      1.0000 0.19630  0.62930  0.27100  Biso   1.000  O
  Zn5      1.0000 0.21578  0.73061  0.08540  Biso   1.000  Zn
  O17      1.0000 0.27370  0.77090  0.99200  Biso   1.000  O
  H65      1.0000 0.28520  0.79260  0.10880  Biso   1.000  H
  N9       1.0000 0.14840  0.75780  0.02300  Biso   1.000  N
  C89      1.0000 0.10990  0.74470  0.86600  Biso   1.000  C
  H66      1.0000 0.11320  0.71980  0.72740  Biso   1.000  H
  N10      1.0000 0.06500  0.76840  0.91060  Biso   1.000  N
  C90      1.0000 0.12590  0.79730  0.20380  Biso   1.000  C
  O18      1.0000 0.83840  0.72970  0.53700  Biso   1.000  O
  C91      1.0000 0.14730  0.82630  0.41600  Biso   1.000  C
  H67      1.0000 0.18120  0.82250  0.46550  Biso   1.000  H
  O19      1.0000 0.86230  0.65800  0.54100  Biso   1.000  O
  C92      1.0000 0.11670  0.86150  0.55490  Biso   1.000  C
  C93      1.0000 0.13720  0.89080  0.76900  Biso   1.000  C
  H68      1.0000 0.17110  0.88640  0.81690  Biso   1.000  H
  C94      1.0000 0.10870  0.92660  0.91500  Biso   1.000  C
  H69      1.0000 0.12280  0.94620  0.05840  Biso   1.000  H
  C95      1.0000 0.05820  0.93160  0.83690  Biso   1.000  C
  H70      1.0000 0.03800  0.95500  0.93080  Biso   1.000  H
  C96      1.0000 0.03710  0.90240  0.62200  Biso   1.000  C
  H71      1.0000 0.00330  0.90680  0.57420  Biso   1.000  H
  C97      1.0000 0.06600  0.86660  0.47620  Biso   1.000  C
  C98      1.0000 0.04410  0.83720  0.26300  Biso   1.000  C
  H72      1.0000 0.01020  0.84060  0.21420  Biso   1.000  H
  C99      1.0000 0.07540  0.80270  0.12600  Biso   1.000  C
  C100     1.0000 0.01790  0.75410  0.80400  Biso   1.000  C
  C101     1.0000 0.92700  0.72540  0.58400  Biso   1.000  C
  C102     1.0000 0.01130  0.70460  0.72400  Biso   1.000  C
  H73      1.0000 0.03770  0.68150  0.74470  Biso   1.000  H
  C103     1.0000 0.96510  0.68860  0.61000  Biso   1.000  C
  H74      1.0000 0.95980  0.65520  0.55520  Biso   1.000  H
  C104     1.0000 0.93110  0.77640  0.66200  Biso   1.000  C
  H75      1.0000 0.90500  0.79970  0.64290  Biso   1.000  H
  C105     1.0000 0.97870  0.78810  0.77200  Biso   1.000  C
  H76      1.0000 0.98450  0.82140  0.82860  Biso   1.000  H
  C106     1.0000 0.87590  0.70490  0.49400  Biso   1.000  C
  C107     1.0000 0.01460  0.73510  0.53100  Biso   1.000  C
  H77      1.0000 0.04390  0.73220  0.42260  Biso   1.000  H
  C108     1.0000 0.96910  0.72060  0.41600  Biso   1.000  C
  H78      1.0000 0.96690  0.70800  0.23200  Biso   1.000  H
  C109     1.0000 0.92780  0.74430  0.85600  Biso   1.000  C
  H79      1.0000 0.89840  0.74740  0.96300  Biso   1.000  H
  C110     1.0000 0.97430  0.75840  0.96300  Biso   1.000  C
  H80      1.0000 0.97630  0.77120  0.14670  Biso   1.000  H
  O20      1.0000 0.87070  0.69630  0.22900  Biso   1.000  O
  Zn6      1.0000 0.71578  0.23061  0.58540  Biso   1.000  Zn
  O21      1.0000 0.77370  0.27090  0.49200  Biso   1.000  O
  H81      1.0000 0.78520  0.29260  0.60880  Biso   1.000  H
  N11      1.0000 0.64840  0.25780  0.52300  Biso   1.000  N
  C111     1.0000 0.60990  0.24470  0.36600  Biso   1.000  C
  H82      1.0000 0.61320  0.21980  0.22740  Biso   1.000  H
  N12      1.0000 0.56500  0.26840  0.41060  Biso   1.000  N
  C112     1.0000 0.62590  0.29730  0.70380  Biso   1.000  C
  O22      1.0000 0.33840  0.22970  0.03700  Biso   1.000  O
  C113     1.0000 0.64730  0.32630  0.91600  Biso   1.000  C
  H83      1.0000 0.68120  0.32250  0.96550  Biso   1.000  H
  O23      1.0000 0.36230  0.15800  0.04100  Biso   1.000  O
  C114     1.0000 0.61670  0.36150  0.05490  Biso   1.000  C
  C115     1.0000 0.63720  0.39080  0.26900  Biso   1.000  C
  H84      1.0000 0.67110  0.38640  0.31690  Biso   1.000  H
  C116     1.0000 0.60870  0.42660  0.41500  Biso   1.000  C
  H85      1.0000 0.62280  0.44620  0.55840  Biso   1.000  H
  C117     1.0000 0.55820  0.43160  0.33690  Biso   1.000  C
  H86      1.0000 0.53800  0.45500  0.43080  Biso   1.000  H
  C118     1.0000 0.53710  0.40240  0.12200  Biso   1.000  C
  H87      1.0000 0.50330  0.40680  0.07420  Biso   1.000  H
  C119     1.0000 0.56600  0.36660  0.97620  Biso   1.000  C
  C120     1.0000 0.54410  0.33720  0.76300  Biso   1.000  C
  H88      1.0000 0.51020  0.34060  0.71420  Biso   1.000  H
  C121     1.0000 0.57540  0.30270  0.62600  Biso   1.000  C
  C122     1.0000 0.51790  0.25410  0.30400  Biso   1.000  C
  C123     1.0000 0.42700  0.22540  0.08400  Biso   1.000  C
  C124     1.0000 0.51130  0.20460  0.22400  Biso   1.000  C
  H89      1.0000 0.53770  0.18150  0.24470  Biso   1.000  H
  C125     1.0000 0.46510  0.18860  0.11000  Biso   1.000  C
  H90      1.0000 0.45980  0.15520  0.05520  Biso   1.000  H
  C126     1.0000 0.43110  0.27640  0.16200  Biso   1.000  C
  H91      1.0000 0.40500  0.29970  0.14290  Biso   1.000  H
  C127     1.0000 0.47870  0.28810  0.27200  Biso   1.000  C
  H92      1.0000 0.48450  0.32140  0.32860  Biso   1.000  H
  C128     1.0000 0.37590  0.20490  0.99400  Biso   1.000  C
  C129     1.0000 0.51460  0.23510  0.03100  Biso   1.000  C
  H93      1.0000 0.54390  0.23220  0.92260  Biso   1.000  H
  C130     1.0000 0.46910  0.22060  0.91600  Biso   1.000  C
  H94      1.0000 0.46690  0.20800  0.73200  Biso   1.000  H
  C131     1.0000 0.42780  0.24430  0.35600  Biso   1.000  C
  H95      1.0000 0.39840  0.24740  0.46300  Biso   1.000  H
  C132     1.0000 0.47430  0.25840  0.46300  Biso   1.000  C
  H96      1.0000 0.47630  0.27120  0.64670  Biso   1.000  H
  O24      1.0000 0.37070  0.19630  0.72900  Biso   1.000  O
  Zn7      1.0000 0.78422  0.26939  0.08540  Biso   1.000  Zn
  O25      1.0000 0.72630  0.22910  0.99200  Biso   1.000  O
  H97      1.0000 0.71480  0.20740  0.10880  Biso   1.000  H
  N13      1.0000 0.85160  0.24220  0.02300  Biso   1.000  N
  C133     1.0000 0.89010  0.25530  0.86600  Biso   1.000  C
  H98      1.0000 0.88680  0.28020  0.72740  Biso   1.000  H
  N14      1.0000 0.93500  0.23160  0.91060  Biso   1.000  N
  C134     1.0000 0.87410  0.20270  0.20380  Biso   1.000  C
  O26      1.0000 0.16160  0.27030  0.53700  Biso   1.000  O
  C135     1.0000 0.85270  0.17370  0.41600  Biso   1.000  C
  H99      1.0000 0.81880  0.17750  0.46550  Biso   1.000  H
  O27      1.0000 0.13770  0.34200  0.54100  Biso   1.000  O
  C136     1.0000 0.88330  0.13850  0.55490  Biso   1.000  C
  C137     1.0000 0.86280  0.10920  0.76900  Biso   1.000  C
  H100     1.0000 0.82890  0.11360  0.81690  Biso   1.000  H
  C138     1.0000 0.89130  0.07340  0.91500  Biso   1.000  C
  H101     1.0000 0.87720  0.05380  0.05840  Biso   1.000  H
  C139     1.0000 0.94180  0.06840  0.83690  Biso   1.000  C
  H102     1.0000 0.96200  0.04500  0.93080  Biso   1.000  H
  C140     1.0000 0.96290  0.09760  0.62200  Biso   1.000  C
  H103     1.0000 0.99670  0.09320  0.57420  Biso   1.000  H
  C141     1.0000 0.93400  0.13340  0.47620  Biso   1.000  C
  C142     1.0000 0.95590  0.16280  0.26300  Biso   1.000  C
  H104     1.0000 0.98980  0.15940  0.21420  Biso   1.000  H
  C143     1.0000 0.92460  0.19730  0.12600  Biso   1.000  C
  C144     1.0000 0.98210  0.24590  0.80400  Biso   1.000  C
  C145     1.0000 0.07300  0.27460  0.58400  Biso   1.000  C
  C146     1.0000 0.98870  0.29540  0.72400  Biso   1.000  C
  H105     1.0000 0.96230  0.31850  0.74470  Biso   1.000  H
  C147     1.0000 0.03490  0.31140  0.61000  Biso   1.000  C
  H106     1.0000 0.04020  0.34480  0.55520  Biso   1.000  H
  C148     1.0000 0.06890  0.22360  0.66200  Biso   1.000  C
  H107     1.0000 0.09500  0.20030  0.64290  Biso   1.000  H
  C149     1.0000 0.02130  0.21190  0.77200  Biso   1.000  C
  H108     1.0000 0.01550  0.17860  0.82860  Biso   1.000  H
  C150     1.0000 0.12410  0.29510  0.49400  Biso   1.000  C
  C151     1.0000 0.98540  0.26490  0.53100  Biso   1.000  C
  H109     1.0000 0.95610  0.26780  0.42260  Biso   1.000  H
  C152     1.0000 0.03090  0.27940  0.41600  Biso   1.000  C
  H110     1.0000 0.03310  0.29200  0.23200  Biso   1.000  H
  C153     1.0000 0.07220  0.25570  0.85600  Biso   1.000  C
  H111     1.0000 0.10160  0.25260  0.96300  Biso   1.000  H
  C154     1.0000 0.02570  0.24160  0.96300  Biso   1.000  C
  H112     1.0000 0.02370  0.22880  0.14670  Biso   1.000  H
  O28      1.0000 0.12930  0.30370  0.22900  Biso   1.000  O
  Zn8      1.0000 0.28422  0.76939  0.58540  Biso   1.000  Zn
  O29      1.0000 0.22630  0.72910  0.49200  Biso   1.000  O
  H113     1.0000 0.21480  0.70740  0.60880  Biso   1.000  H
  N15      1.0000 0.35160  0.74220  0.52300  Biso   1.000  N
  C155     1.0000 0.39010  0.75530  0.36600  Biso   1.000  C
  H114     1.0000 0.38680  0.78020  0.22740  Biso   1.000  H
  N16      1.0000 0.43500  0.73160  0.41060  Biso   1.000  N
  C156     1.0000 0.37410  0.70270  0.70380  Biso   1.000  C
  O30      1.0000 0.66160  0.77030  0.03700  Biso   1.000  O
  C157     1.0000 0.35270  0.67370  0.91600  Biso   1.000  C
  H115     1.0000 0.31880  0.67750  0.96550  Biso   1.000  H
  O31      1.0000 0.63770  0.84200  0.04100  Biso   1.000  O
  C158     1.0000 0.38330  0.63850  0.05490  Biso   1.000  C
  C159     1.0000 0.36280  0.60920  0.26900  Biso   1.000  C
  H116     1.0000 0.32890  0.61360  0.31690  Biso   1.000  H
  C160     1.0000 0.39130  0.57340  0.41500  Biso   1.000  C
  H117     1.0000 0.37720  0.55380  0.55840  Biso   1.000  H
  C161     1.0000 0.44180  0.56840  0.33690  Biso   1.000  C
  H118     1.0000 0.46200  0.54500  0.43080  Biso   1.000  H
  C162     1.0000 0.46290  0.59760  0.12200  Biso   1.000  C
  H119     1.0000 0.49670  0.59320  0.07420  Biso   1.000  H
  C163     1.0000 0.43400  0.63340  0.97620  Biso   1.000  C
  C164     1.0000 0.45590  0.66280  0.76300  Biso   1.000  C
  H120     1.0000 0.48980  0.65940  0.71420  Biso   1.000  H
  C165     1.0000 0.42460  0.69730  0.62600  Biso   1.000  C
  C166     1.0000 0.48210  0.74590  0.30400  Biso   1.000  C
  C167     1.0000 0.57300  0.77460  0.08400  Biso   1.000  C
  C168     1.0000 0.48870  0.79540  0.22400  Biso   1.000  C
  H121     1.0000 0.46230  0.81850  0.24470  Biso   1.000  H
  C169     1.0000 0.53490  0.81140  0.11000  Biso   1.000  C
  H122     1.0000 0.54020  0.84480  0.05520  Biso   1.000  H
  C170     1.0000 0.56890  0.72360  0.16200  Biso   1.000  C
  H123     1.0000 0.59500  0.70030  0.14290  Biso   1.000  H
  C171     1.0000 0.52130  0.71190  0.27200  Biso   1.000  C
  H124     1.0000 0.51550  0.67860  0.32860  Biso   1.000  H
  C172     1.0000 0.62410  0.79510  0.99400  Biso   1.000  C
  C173     1.0000 0.48540  0.76490  0.03100  Biso   1.000  C
  H125     1.0000 0.45610  0.76780  0.92260  Biso   1.000  H
  C174     1.0000 0.53090  0.77940  0.91600  Biso   1.000  C
  H126     1.0000 0.53310  0.79200  0.73200  Biso   1.000  H
  C175     1.0000 0.57220  0.75570  0.35600  Biso   1.000  C
  H127     1.0000 0.60160  0.75260  0.46300  Biso   1.000  H
  C176     1.0000 0.52570  0.74160  0.46300  Biso   1.000  C
  H128     1.0000 0.52370  0.72880  0.64670  Biso   1.000  H
  O32      1.0000 0.62930  0.80370  0.72900  Biso   1.000  O
