data_image0
_cell_length_a       26.528
_cell_length_b       26.528
_cell_length_c       4.498
_cell_angle_alpha    90
_cell_angle_beta     90
_cell_angle_gamma    90

_symmetry_space_group_name_H-M    "P 1"
_symmetry_int_tables_number       1

loop_
  _symmetry_equiv_pos_as_xyz
  'x, y, z'

loop_
  _atom_site_label
  _atom_site_occupancy
  _atom_site_fract_x
  _atom_site_fract_y
  _atom_site_fract_z
  _atom_site_thermal_displace_type
  _atom_site_B_iso_or_equiv
  _atom_site_type_symbol
  Zn1      1.0000 0.26859  0.21543  0.94750  Biso   1.000  Zn
  O1       1.0000 0.22600  0.27830  0.00000  Biso   1.000  O
  H1       1.0000 0.20420  0.28990  0.88280  Biso   1.000  H
  N1       1.0000 0.24020  0.14720  0.98000  Biso   1.000  N
  C1       1.0000 0.25670  0.11160  0.15500  Biso   1.000  C
  H2       1.0000 0.28240  0.11560  0.29440  Biso   1.000  H
  N2       1.0000 0.23120  0.06810  0.10700  Biso   1.000  N
  C2       1.0000 0.20060  0.12390  0.80600  Biso   1.000  C
  O2       1.0000 0.26370  0.83700  0.49300  Biso   1.000  O
  C3       1.0000 0.17120  0.14570  0.58700  Biso   1.000  C
  H3       1.0000 0.17560  0.17930  0.53540  Biso   1.000  H
  O3       1.0000 0.32790  0.86330  0.40900  Biso   1.000  O
  C4       1.0000 0.13510  0.11680  0.44600  Biso   1.000  C
  C5       1.0000 0.10480  0.13710  0.22700  Biso   1.000  C
  H4       1.0000 0.10910  0.17080  0.17610  Biso   1.000  H
  C6       1.0000 0.06840  0.10970  0.08000  Biso   1.000  C
  H5       1.0000 0.04840  0.12390  0.93200  Biso   1.000  H
  C7       1.0000 0.06310  0.05990  0.16400  Biso   1.000  C
  H6       1.0000 0.03900  0.03980  0.07100  Biso   1.000  H
  C8       1.0000 0.09310  0.03970  0.38300  Biso   1.000  C
  H7       1.0000 0.08850  0.00600  0.43420  Biso   1.000  H
  C9       1.0000 0.12980  0.06700  0.53000  Biso   1.000  C
  C10      1.0000 0.15920  0.04530  0.74800  Biso   1.000  C
  H8       1.0000 0.15670  0.01100  0.78930  Biso   1.000  H
  C11      1.0000 0.19240  0.07530  0.90300  Biso   1.000  C
  C12      1.0000 0.24510  0.01790  0.21500  Biso   1.000  C
  C13      1.0000 0.27190  0.92680  0.43900  Biso   1.000  C
  C14      1.0000 0.26210  0.01380  0.50400  Biso   1.000  C
  H9       1.0000 0.26420  0.04260  0.62170  Biso   1.000  H
  C15      1.0000 0.27590  0.96810  0.62200  Biso   1.000  C
  H10      1.0000 0.28740  0.96510  0.81680  Biso   1.000  H
  C16      1.0000 0.25530  0.92870  0.15100  Biso   1.000  C
  H11      1.0000 0.25320  0.89980  0.03420  Biso   1.000  H
  C17      1.0000 0.24190  0.97520  0.04200  Biso   1.000  C
  H12      1.0000 0.23050  0.97800  0.84690  Biso   1.000  H
  C18      1.0000 0.28660  0.87490  0.55200  Biso   1.000  C
  O4       1.0000 0.27030  0.87200  0.81800  Biso   1.000  O
  C19      1.0000 0.29360  0.01050  0.31100  Biso   1.000  C
  H13      1.0000 0.31670  0.03680  0.29750  Biso   1.000  H
  C20      1.0000 0.30890  0.96420  0.42700  Biso   1.000  C
  H14      1.0000 0.34170  0.95860  0.49260  Biso   1.000  H
  C21      1.0000 0.22180  0.93050  0.34800  Biso   1.000  C
  H15      1.0000 0.19850  0.90430  0.35990  Biso   1.000  H
  C22      1.0000 0.21090  0.97830  0.23600  Biso   1.000  C
  H16      1.0000 0.17820  0.98420  0.16950  Biso   1.000  H
  Zn2      1.0000 0.76859  0.71543  0.44750  Biso   1.000  Zn
  O5       1.0000 0.72600  0.77830  0.50000  Biso   1.000  O
  H17      1.0000 0.70420  0.78990  0.38280  Biso   1.000  H
  N3       1.0000 0.74020  0.64720  0.48000  Biso   1.000  N
  C23      1.0000 0.75670  0.61160  0.65500  Biso   1.000  C
  H18      1.0000 0.78240  0.61560  0.79440  Biso   1.000  H
  N4       1.0000 0.73120  0.56810  0.60700  Biso   1.000  N
  C24      1.0000 0.70060  0.62390  0.30600  Biso   1.000  C
  O6       1.0000 0.76370  0.33700  0.99300  Biso   1.000  O
  C25      1.0000 0.67120  0.64570  0.08700  Biso   1.000  C
  H19      1.0000 0.67560  0.67930  0.03540  Biso   1.000  H
  O7       1.0000 0.82790  0.36330  0.90900  Biso   1.000  O
  C26      1.0000 0.63510  0.61680  0.94600  Biso   1.000  C
  C27      1.0000 0.60480  0.63710  0.72700  Biso   1.000  C
  H20      1.0000 0.60910  0.67080  0.67610  Biso   1.000  H
  C28      1.0000 0.56840  0.60970  0.58000  Biso   1.000  C
  H21      1.0000 0.54840  0.62390  0.43200  Biso   1.000  H
  C29      1.0000 0.56310  0.55990  0.66400  Biso   1.000  C
  H22      1.0000 0.53900  0.53980  0.57100  Biso   1.000  H
  C30      1.0000 0.59310  0.53970  0.88300  Biso   1.000  C
  H23      1.0000 0.58850  0.50600  0.93420  Biso   1.000  H
  C31      1.0000 0.62980  0.56700  0.03000  Biso   1.000  C
  C32      1.0000 0.65920  0.54530  0.24800  Biso   1.000  C
  H24      1.0000 0.65670  0.51100  0.28930  Biso   1.000  H
  C33      1.0000 0.69240  0.57530  0.40300  Biso   1.000  C
  C34      1.0000 0.74510  0.51790  0.71500  Biso   1.000  C
  C35      1.0000 0.77190  0.42680  0.93900  Biso   1.000  C
  C36      1.0000 0.76210  0.51380  0.00400  Biso   1.000  C
  H25      1.0000 0.76420  0.54260  0.12170  Biso   1.000  H
  C37      1.0000 0.77590  0.46810  0.12200  Biso   1.000  C
  H26      1.0000 0.78740  0.46510  0.31680  Biso   1.000  H
  C38      1.0000 0.75530  0.42870  0.65100  Biso   1.000  C
  H27      1.0000 0.75320  0.39980  0.53420  Biso   1.000  H
  C39      1.0000 0.74190  0.47520  0.54200  Biso   1.000  C
  H28      1.0000 0.73050  0.47800  0.34690  Biso   1.000  H
  C40      1.0000 0.78660  0.37490  0.05200  Biso   1.000  C
  O8       1.0000 0.77030  0.37200  0.31800  Biso   1.000  O
  C41      1.0000 0.79360  0.51050  0.81100  Biso   1.000  C
  H29      1.0000 0.81670  0.53680  0.79750  Biso   1.000  H
  C42      1.0000 0.80890  0.46420  0.92700  Biso   1.000  C
  H30      1.0000 0.84170  0.45860  0.99260  Biso   1.000  H
  C43      1.0000 0.72180  0.43050  0.84800  Biso   1.000  C
  H31      1.0000 0.69850  0.40430  0.85990  Biso   1.000  H
  C44      1.0000 0.71090  0.47830  0.73600  Biso   1.000  C
  H32      1.0000 0.67820  0.48420  0.66950  Biso   1.000  H
  Zn3      1.0000 0.73141  0.78457  0.94750  Biso   1.000  Zn
  O9       1.0000 0.77400  0.72170  0.00000  Biso   1.000  O
  H33      1.0000 0.79580  0.71010  0.88280  Biso   1.000  H
  N5       1.0000 0.75980  0.85280  0.98000  Biso   1.000  N
  C45      1.0000 0.74330  0.88840  0.15500  Biso   1.000  C
  H34      1.0000 0.71760  0.88440  0.29440  Biso   1.000  H
  N6       1.0000 0.76880  0.93190  0.10700  Biso   1.000  N
  C46      1.0000 0.79940  0.87610  0.80600  Biso   1.000  C
  O10      1.0000 0.73630  0.16300  0.49300  Biso   1.000  O
  C47      1.0000 0.82880  0.85430  0.58700  Biso   1.000  C
  H35      1.0000 0.82440  0.82070  0.53540  Biso   1.000  H
  O11      1.0000 0.67210  0.13670  0.40900  Biso   1.000  O
  C48      1.0000 0.86490  0.88320  0.44600  Biso   1.000  C
  C49      1.0000 0.89520  0.86290  0.22700  Biso   1.000  C
  H36      1.0000 0.89090  0.82920  0.17610  Biso   1.000  H
  C50      1.0000 0.93160  0.89030  0.08000  Biso   1.000  C
  H37      1.0000 0.95160  0.87610  0.93200  Biso   1.000  H
  C51      1.0000 0.93690  0.94010  0.16400  Biso   1.000  C
  H38      1.0000 0.96100  0.96020  0.07100  Biso   1.000  H
  C52      1.0000 0.90690  0.96030  0.38300  Biso   1.000  C
  H39      1.0000 0.91150  0.99400  0.43420  Biso   1.000  H
  C53      1.0000 0.87020  0.93300  0.53000  Biso   1.000  C
  C54      1.0000 0.84080  0.95470  0.74800  Biso   1.000  C
  H40      1.0000 0.84330  0.98900  0.78930  Biso   1.000  H
  C55      1.0000 0.80760  0.92470  0.90300  Biso   1.000  C
  C56      1.0000 0.75490  0.98210  0.21500  Biso   1.000  C
  C57      1.0000 0.72810  0.07320  0.43900  Biso   1.000  C
  C58      1.0000 0.73790  0.98620  0.50400  Biso   1.000  C
  H41      1.0000 0.73580  0.95740  0.62170  Biso   1.000  H
  C59      1.0000 0.72410  0.03190  0.62200  Biso   1.000  C
  H42      1.0000 0.71260  0.03490  0.81680  Biso   1.000  H
  C60      1.0000 0.74470  0.07130  0.15100  Biso   1.000  C
  H43      1.0000 0.74680  0.10020  0.03420  Biso   1.000  H
  C61      1.0000 0.75810  0.02480  0.04200  Biso   1.000  C
  H44      1.0000 0.76950  0.02200  0.84690  Biso   1.000  H
  C62      1.0000 0.71340  0.12510  0.55200  Biso   1.000  C
  O12      1.0000 0.72970  0.12800  0.81800  Biso   1.000  O
  C63      1.0000 0.70640  0.98950  0.31100  Biso   1.000  C
  H45      1.0000 0.68330  0.96320  0.29750  Biso   1.000  H
  C64      1.0000 0.69110  0.03580  0.42700  Biso   1.000  C
  H46      1.0000 0.65830  0.04140  0.49260  Biso   1.000  H
  C65      1.0000 0.77820  0.06950  0.34800  Biso   1.000  C
  H47      1.0000 0.80150  0.09570  0.35990  Biso   1.000  H
  C66      1.0000 0.78910  0.02170  0.23600  Biso   1.000  C
  H48      1.0000 0.82180  0.01580  0.16950  Biso   1.000  H
  Zn4      1.0000 0.23141  0.28457  0.44750  Biso   1.000  Zn
  O13      1.0000 0.27400  0.22170  0.50000  Biso   1.000  O
  H49      1.0000 0.29580  0.21010  0.38280  Biso   1.000  H
  N7       1.0000 0.25980  0.35280  0.48000  Biso   1.000  N
  C67      1.0000 0.24330  0.38840  0.65500  Biso   1.000  C
  H50      1.0000 0.21760  0.38440  0.79440  Biso   1.000  H
  N8       1.0000 0.26880  0.43190  0.60700  Biso   1.000  N
  C68      1.0000 0.29940  0.37610  0.30600  Biso   1.000  C
  O14      1.0000 0.23630  0.66300  0.99300  Biso   1.000  O
  C69      1.0000 0.32880  0.35430  0.08700  Biso   1.000  C
  H51      1.0000 0.32440  0.32070  0.03540  Biso   1.000  H
  O15      1.0000 0.17210  0.63670  0.90900  Biso   1.000  O
  C70      1.0000 0.36490  0.38320  0.94600  Biso   1.000  C
  C71      1.0000 0.39520  0.36290  0.72700  Biso   1.000  C
  H52      1.0000 0.39090  0.32920  0.67610  Biso   1.000  H
  C72      1.0000 0.43160  0.39030  0.58000  Biso   1.000  C
  H53      1.0000 0.45160  0.37610  0.43200  Biso   1.000  H
  C73      1.0000 0.43690  0.44010  0.66400  Biso   1.000  C
  H54      1.0000 0.46100  0.46020  0.57100  Biso   1.000  H
  C74      1.0000 0.40690  0.46030  0.88300  Biso   1.000  C
  H55      1.0000 0.41150  0.49400  0.93420  Biso   1.000  H
  C75      1.0000 0.37020  0.43300  0.03000  Biso   1.000  C
  C76      1.0000 0.34080  0.45470  0.24800  Biso   1.000  C
  H56      1.0000 0.34330  0.48900  0.28930  Biso   1.000  H
  C77      1.0000 0.30760  0.42470  0.40300  Biso   1.000  C
  C78      1.0000 0.25490  0.48210  0.71500  Biso   1.000  C
  C79      1.0000 0.22810  0.57320  0.93900  Biso   1.000  C
  C80      1.0000 0.23790  0.48620  0.00400  Biso   1.000  C
  H57      1.0000 0.23580  0.45740  0.12170  Biso   1.000  H
  C81      1.0000 0.22410  0.53190  0.12200  Biso   1.000  C
  H58      1.0000 0.21260  0.53490  0.31680  Biso   1.000  H
  C82      1.0000 0.24470  0.57130  0.65100  Biso   1.000  C
  H59      1.0000 0.24680  0.60020  0.53420  Biso   1.000  H
  C83      1.0000 0.25810  0.52480  0.54200  Biso   1.000  C
  H60      1.0000 0.26950  0.52200  0.34690  Biso   1.000  H
  C84      1.0000 0.21340  0.62510  0.05200  Biso   1.000  C
  O16      1.0000 0.22970  0.62800  0.31800  Biso   1.000  O
  C85      1.0000 0.20640  0.48950  0.81100  Biso   1.000  C
  H61      1.0000 0.18330  0.46320  0.79750  Biso   1.000  H
  C86      1.0000 0.19110  0.53580  0.92700  Biso   1.000  C
  H62      1.0000 0.15830  0.54140  0.99260  Biso   1.000  H
  C87      1.0000 0.27820  0.56950  0.84800  Biso   1.000  C
  H63      1.0000 0.30150  0.59570  0.85990  Biso   1.000  H
  C88      1.0000 0.28910  0.52170  0.73600  Biso   1.000  C
  H64      1.0000 0.32180  0.51580  0.66950  Biso   1.000  H
  Zn5      1.0000 0.21543  0.73141  0.05250  Biso   1.000  Zn
  O17      1.0000 0.27830  0.77400  0.00000  Biso   1.000  O
  H65      1.0000 0.28990  0.79580  0.11720  Biso   1.000  H
  N9       1.0000 0.14720  0.75980  0.02000  Biso   1.000  N
  C89      1.0000 0.11160  0.74330  0.84500  Biso   1.000  C
  H66      1.0000 0.11560  0.71760  0.70560  Biso   1.000  H
  N10      1.0000 0.06810  0.76880  0.89300  Biso   1.000  N
  C90      1.0000 0.12390  0.79940  0.19400  Biso   1.000  C
  O18      1.0000 0.83700  0.73630  0.50700  Biso   1.000  O
  C91      1.0000 0.14570  0.82880  0.41300  Biso   1.000  C
  H67      1.0000 0.17930  0.82440  0.46460  Biso   1.000  H
  O19      1.0000 0.86330  0.67210  0.59100  Biso   1.000  O
  C92      1.0000 0.11680  0.86490  0.55400  Biso   1.000  C
  C93      1.0000 0.13710  0.89520  0.77300  Biso   1.000  C
  H68      1.0000 0.17080  0.89090  0.82390  Biso   1.000  H
  C94      1.0000 0.10970  0.93160  0.92000  Biso   1.000  C
  H69      1.0000 0.12390  0.95160  0.06800  Biso   1.000  H
  C95      1.0000 0.05990  0.93690  0.83600  Biso   1.000  C
  H70      1.0000 0.03980  0.96100  0.92900  Biso   1.000  H
  C96      1.0000 0.03970  0.90690  0.61700  Biso   1.000  C
  H71      1.0000 0.00600  0.91150  0.56580  Biso   1.000  H
  C97      1.0000 0.06700  0.87020  0.47000  Biso   1.000  C
  C98      1.0000 0.04530  0.84080  0.25200  Biso   1.000  C
  H72      1.0000 0.01100  0.84330  0.21070  Biso   1.000  H
  C99      1.0000 0.07530  0.80760  0.09700  Biso   1.000  C
  C100     1.0000 0.01790  0.75490  0.78500  Biso   1.000  C
  C101     1.0000 0.92680  0.72810  0.56100  Biso   1.000  C
  C102     1.0000 0.01380  0.73790  0.49600  Biso   1.000  C
  H73      1.0000 0.04260  0.73580  0.37830  Biso   1.000  H
  C103     1.0000 0.96810  0.72410  0.37800  Biso   1.000  C
  H74      1.0000 0.96510  0.71260  0.18320  Biso   1.000  H
  C104     1.0000 0.92870  0.74470  0.84900  Biso   1.000  C
  H75      1.0000 0.89980  0.74680  0.96580  Biso   1.000  H
  C105     1.0000 0.97520  0.75810  0.95800  Biso   1.000  C
  H76      1.0000 0.97800  0.76950  0.15310  Biso   1.000  H
  C106     1.0000 0.87490  0.71340  0.44800  Biso   1.000  C
  O20      1.0000 0.87200  0.72970  0.18200  Biso   1.000  O
  C107     1.0000 0.01050  0.70640  0.68900  Biso   1.000  C
  H77      1.0000 0.03680  0.68330  0.70250  Biso   1.000  H
  C108     1.0000 0.96420  0.69110  0.57300  Biso   1.000  C
  H78      1.0000 0.95860  0.65830  0.50740  Biso   1.000  H
  C109     1.0000 0.93050  0.77820  0.65200  Biso   1.000  C
  H79      1.0000 0.90430  0.80150  0.64010  Biso   1.000  H
  C110     1.0000 0.97830  0.78910  0.76400  Biso   1.000  C
  H80      1.0000 0.98420  0.82180  0.83050  Biso   1.000  H
  Zn6      1.0000 0.71543  0.23141  0.55250  Biso   1.000  Zn
  O21      1.0000 0.77830  0.27400  0.50000  Biso   1.000  O
  H81      1.0000 0.78990  0.29580  0.61720  Biso   1.000  H
  N11      1.0000 0.64720  0.25980  0.52000  Biso   1.000  N
  C111     1.0000 0.61160  0.24330  0.34500  Biso   1.000  C
  H82      1.0000 0.61560  0.21760  0.20560  Biso   1.000  H
  N12      1.0000 0.56810  0.26880  0.39300  Biso   1.000  N
  C112     1.0000 0.62390  0.29940  0.69400  Biso   1.000  C
  O22      1.0000 0.33700  0.23630  0.00700  Biso   1.000  O
  C113     1.0000 0.64570  0.32880  0.91300  Biso   1.000  C
  H83      1.0000 0.67930  0.32440  0.96460  Biso   1.000  H
  O23      1.0000 0.36330  0.17210  0.09100  Biso   1.000  O
  C114     1.0000 0.61680  0.36490  0.05400  Biso   1.000  C
  C115     1.0000 0.63710  0.39520  0.27300  Biso   1.000  C
  H84      1.0000 0.67080  0.39090  0.32390  Biso   1.000  H
  C116     1.0000 0.60970  0.43160  0.42000  Biso   1.000  C
  H85      1.0000 0.62390  0.45160  0.56800  Biso   1.000  H
  C117     1.0000 0.55990  0.43690  0.33600  Biso   1.000  C
  H86      1.0000 0.53980  0.46100  0.42900  Biso   1.000  H
  C118     1.0000 0.53970  0.40690  0.11700  Biso   1.000  C
  H87      1.0000 0.50600  0.41150  0.06580  Biso   1.000  H
  C119     1.0000 0.56700  0.37020  0.97000  Biso   1.000  C
  C120     1.0000 0.54530  0.34080  0.75200  Biso   1.000  C
  H88      1.0000 0.51100  0.34330  0.71070  Biso   1.000  H
  C121     1.0000 0.57530  0.30760  0.59700  Biso   1.000  C
  C122     1.0000 0.51790  0.25490  0.28500  Biso   1.000  C
  C123     1.0000 0.42680  0.22810  0.06100  Biso   1.000  C
  C124     1.0000 0.51380  0.23790  0.99600  Biso   1.000  C
  H89      1.0000 0.54260  0.23580  0.87830  Biso   1.000  H
  C125     1.0000 0.46810  0.22410  0.87800  Biso   1.000  C
  H90      1.0000 0.46510  0.21260  0.68320  Biso   1.000  H
  C126     1.0000 0.42870  0.24470  0.34900  Biso   1.000  C
  H91      1.0000 0.39980  0.24680  0.46580  Biso   1.000  H
  C127     1.0000 0.47520  0.25810  0.45800  Biso   1.000  C
  H92      1.0000 0.47800  0.26950  0.65310  Biso   1.000  H
  C128     1.0000 0.37490  0.21340  0.94800  Biso   1.000  C
  O24      1.0000 0.37200  0.22970  0.68200  Biso   1.000  O
  C129     1.0000 0.51050  0.20640  0.18900  Biso   1.000  C
  H93      1.0000 0.53680  0.18330  0.20250  Biso   1.000  H
  C130     1.0000 0.46420  0.19110  0.07300  Biso   1.000  C
  H94      1.0000 0.45860  0.15830  0.00740  Biso   1.000  H
  C131     1.0000 0.43050  0.27820  0.15200  Biso   1.000  C
  H95      1.0000 0.40430  0.30150  0.14010  Biso   1.000  H
  C132     1.0000 0.47830  0.28910  0.26400  Biso   1.000  C
  H96      1.0000 0.48420  0.32180  0.33050  Biso   1.000  H
  Zn7      1.0000 0.78457  0.26859  0.05250  Biso   1.000  Zn
  O25      1.0000 0.72170  0.22600  0.00000  Biso   1.000  O
  H97      1.0000 0.71010  0.20420  0.11720  Biso   1.000  H
  N13      1.0000 0.85280  0.24020  0.02000  Biso   1.000  N
  C133     1.0000 0.88840  0.25670  0.84500  Biso   1.000  C
  H98      1.0000 0.88440  0.28240  0.70560  Biso   1.000  H
  N14      1.0000 0.93190  0.23120  0.89300  Biso   1.000  N
  C134     1.0000 0.87610  0.20060  0.19400  Biso   1.000  C
  O26      1.0000 0.16300  0.26370  0.50700  Biso   1.000  O
  C135     1.0000 0.85430  0.17120  0.41300  Biso   1.000  C
  H99      1.0000 0.82070  0.17560  0.46460  Biso   1.000  H
  O27      1.0000 0.13670  0.32790  0.59100  Biso   1.000  O
  C136     1.0000 0.88320  0.13510  0.55400  Biso   1.000  C
  C137     1.0000 0.86290  0.10480  0.77300  Biso   1.000  C
  H100     1.0000 0.82920  0.10910  0.82390  Biso   1.000  H
  C138     1.0000 0.89030  0.06840  0.92000  Biso   1.000  C
  H101     1.0000 0.87610  0.04840  0.06800  Biso   1.000  H
  C139     1.0000 0.94010  0.06310  0.83600  Biso   1.000  C
  H102     1.0000 0.96020  0.03900  0.92900  Biso   1.000  H
  C140     1.0000 0.96030  0.09310  0.61700  Biso   1.000  C
  H103     1.0000 0.99400  0.08850  0.56580  Biso   1.000  H
  C141     1.0000 0.93300  0.12980  0.47000  Biso   1.000  C
  C142     1.0000 0.95470  0.15920  0.25200  Biso   1.000  C
  H104     1.0000 0.98900  0.15670  0.21070  Biso   1.000  H
  C143     1.0000 0.92470  0.19240  0.09700  Biso   1.000  C
  C144     1.0000 0.98210  0.24510  0.78500  Biso   1.000  C
  C145     1.0000 0.07320  0.27190  0.56100  Biso   1.000  C
  C146     1.0000 0.98620  0.26210  0.49600  Biso   1.000  C
  H105     1.0000 0.95740  0.26420  0.37830  Biso   1.000  H
  C147     1.0000 0.03190  0.27590  0.37800  Biso   1.000  C
  H106     1.0000 0.03490  0.28740  0.18320  Biso   1.000  H
  C148     1.0000 0.07130  0.25530  0.84900  Biso   1.000  C
  H107     1.0000 0.10020  0.25320  0.96580  Biso   1.000  H
  C149     1.0000 0.02480  0.24190  0.95800  Biso   1.000  C
  H108     1.0000 0.02200  0.23050  0.15310  Biso   1.000  H
  C150     1.0000 0.12510  0.28660  0.44800  Biso   1.000  C
  O28      1.0000 0.12800  0.27030  0.18200  Biso   1.000  O
  C151     1.0000 0.98950  0.29360  0.68900  Biso   1.000  C
  H109     1.0000 0.96320  0.31670  0.70250  Biso   1.000  H
  C152     1.0000 0.03580  0.30890  0.57300  Biso   1.000  C
  H110     1.0000 0.04140  0.34170  0.50740  Biso   1.000  H
  C153     1.0000 0.06950  0.22180  0.65200  Biso   1.000  C
  H111     1.0000 0.09570  0.19850  0.64010  Biso   1.000  H
  C154     1.0000 0.02170  0.21090  0.76400  Biso   1.000  C
  H112     1.0000 0.01580  0.17820  0.83050  Biso   1.000  H
  Zn8      1.0000 0.28457  0.76859  0.55250  Biso   1.000  Zn
  O29      1.0000 0.22170  0.72600  0.50000  Biso   1.000  O
  H113     1.0000 0.21010  0.70420  0.61720  Biso   1.000  H
  N15      1.0000 0.35280  0.74020  0.52000  Biso   1.000  N
  C155     1.0000 0.38840  0.75670  0.34500  Biso   1.000  C
  H114     1.0000 0.38440  0.78240  0.20560  Biso   1.000  H
  N16      1.0000 0.43190  0.73120  0.39300  Biso   1.000  N
  C156     1.0000 0.37610  0.70060  0.69400  Biso   1.000  C
  O30      1.0000 0.66300  0.76370  0.00700  Biso   1.000  O
  C157     1.0000 0.35430  0.67120  0.91300  Biso   1.000  C
  H115     1.0000 0.32070  0.67560  0.96460  Biso   1.000  H
  O31      1.0000 0.63670  0.82790  0.09100  Biso   1.000  O
  C158     1.0000 0.38320  0.63510  0.05400  Biso   1.000  C
  C159     1.0000 0.36290  0.60480  0.27300  Biso   1.000  C
  H116     1.0000 0.32920  0.60910  0.32390  Biso   1.000  H
  C160     1.0000 0.39030  0.56840  0.42000  Biso   1.000  C
  H117     1.0000 0.37610  0.54840  0.56800  Biso   1.000  H
  C161     1.0000 0.44010  0.56310  0.33600  Biso   1.000  C
  H118     1.0000 0.46020  0.53900  0.42900  Biso   1.000  H
  C162     1.0000 0.46030  0.59310  0.11700  Biso   1.000  C
  H119     1.0000 0.49400  0.58850  0.06580  Biso   1.000  H
  C163     1.0000 0.43300  0.62980  0.97000  Biso   1.000  C
  C164     1.0000 0.45470  0.65920  0.75200  Biso   1.000  C
  H120     1.0000 0.48900  0.65670  0.71070  Biso   1.000  H
  C165     1.0000 0.42470  0.69240  0.59700  Biso   1.000  C
  C166     1.0000 0.48210  0.74510  0.28500  Biso   1.000  C
  C167     1.0000 0.57320  0.77190  0.06100  Biso   1.000  C
  C168     1.0000 0.48620  0.76210  0.99600  Biso   1.000  C
  H121     1.0000 0.45740  0.76420  0.87830  Biso   1.000  H
  C169     1.0000 0.53190  0.77590  0.87800  Biso   1.000  C
  H122     1.0000 0.53490  0.78740  0.68320  Biso   1.000  H
  C170     1.0000 0.57130  0.75530  0.34900  Biso   1.000  C
  H123     1.0000 0.60020  0.75320  0.46580  Biso   1.000  H
  C171     1.0000 0.52480  0.74190  0.45800  Biso   1.000  C
  H124     1.0000 0.52200  0.73050  0.65310  Biso   1.000  H
  C172     1.0000 0.62510  0.78660  0.94800  Biso   1.000  C
  O32      1.0000 0.62800  0.77030  0.68200  Biso   1.000  O
  C173     1.0000 0.48950  0.79360  0.18900  Biso   1.000  C
  H125     1.0000 0.46320  0.81670  0.20250  Biso   1.000  H
  C174     1.0000 0.53580  0.80890  0.07300  Biso   1.000  C
  H126     1.0000 0.54140  0.84170  0.00740  Biso   1.000  H
  C175     1.0000 0.56950  0.72180  0.15200  Biso   1.000  C
  H127     1.0000 0.59570  0.69850  0.14010  Biso   1.000  H
  C176     1.0000 0.52170  0.71090  0.26400  Biso   1.000  C
  H128     1.0000 0.51580  0.67820  0.33050  Biso   1.000  H
