data_image0
_cell_length_a       26.5757
_cell_length_b       26.5757
_cell_length_c       5.2077
_cell_angle_alpha    90
_cell_angle_beta     90
_cell_angle_gamma    90

_symmetry_space_group_name_H-M    "P 1"
_symmetry_int_tables_number       1

loop_
  _symmetry_equiv_pos_as_xyz
  'x, y, z'

loop_
  _atom_site_label
  _atom_site_occupancy
  _atom_site_fract_x
  _atom_site_fract_y
  _atom_site_fract_z
  _atom_site_thermal_displace_type
  _atom_site_B_iso_or_equiv
  _atom_site_type_symbol
  Zn1      1.0000 0.27147  0.21421  0.93330  Biso   1.000  Zn
  O1       1.0000 0.22260  0.25450  0.10300  Biso   1.000  O
  H1       1.0000 0.20180  0.26550  0.99090  Biso   1.000  H
  N1       1.0000 0.25120  0.14180  0.91800  Biso   1.000  N
  C1       1.0000 0.26650  0.10410  0.05900  Biso   1.000  C
  H2       1.0000 0.29150  0.10680  0.18310  Biso   1.000  H
  N2       1.0000 0.24190  0.06060  0.00510  Biso   1.000  N
  C2       1.0000 0.21260  0.12170  0.75580  Biso   1.000  C
  O2       1.0000 0.27570  0.83270  0.35200  Biso   1.000  O
  C3       1.0000 0.18310  0.14400  0.56920  Biso   1.000  C
  H3       1.0000 0.18650  0.17800  0.53090  Biso   1.000  H
  O3       1.0000 0.31370  0.86950  0.67300  Biso   1.000  O
  C4       1.0000 0.14820  0.11450  0.44030  Biso   1.000  C
  C5       1.0000 0.11840  0.13580  0.25200  Biso   1.000  C
  H4       1.0000 0.12240  0.16970  0.21420  Biso   1.000  H
  C6       1.0000 0.08280  0.10840  0.11700  Biso   1.000  C
  H5       1.0000 0.06300  0.12340  0.99130  Biso   1.000  H
  C7       1.0000 0.07760  0.05770  0.17540  Biso   1.000  C
  H6       1.0000 0.05410  0.03830  0.08780  Biso   1.000  H
  C8       1.0000 0.10730  0.03590  0.36300  Biso   1.000  C
  H7       1.0000 0.10330  0.00190  0.40030  Biso   1.000  H
  C9       1.0000 0.14300  0.06370  0.49880  Biso   1.000  C
  C10      1.0000 0.17250  0.04110  0.68700  Biso   1.000  C
  H8       1.0000 0.16950  0.00700  0.72430  Biso   1.000  H
  C11      1.0000 0.20640  0.07120  0.81700  Biso   1.000  C
  C12      1.0000 0.25570  0.01220  0.11100  Biso   1.000  C
  C13      1.0000 0.28300  0.92190  0.32700  Biso   1.000  C
  C14      1.0000 0.30490  0.00450  0.18300  Biso   1.000  C
  H9       1.0000 0.32830  0.03000  0.15770  Biso   1.000  H
  C15      1.0000 0.32020  0.95890  0.29400  Biso   1.000  C
  H10      1.0000 0.35340  0.95340  0.34230  Biso   1.000  H
  C16      1.0000 0.23240  0.92640  0.25800  Biso   1.000  C
  H11      1.0000 0.20870  0.90100  0.28140  Biso   1.000  H
  C17      1.0000 0.22110  0.97340  0.15100  Biso   1.000  C
  H12      1.0000 0.18800  0.97920  0.10310  Biso   1.000  H
  C18      1.0000 0.29670  0.87140  0.44500  Biso   1.000  C
  O4       1.0000 0.34790  0.87380  0.52000  Biso   1.000  O
  C19      1.0000 0.27410  0.01020  0.35900  Biso   1.000  C
  H13      1.0000 0.27730  0.03990  0.45240  Biso   1.000  H
  C20      1.0000 0.28800  0.96540  0.47200  Biso   1.000  C
  H14      1.0000 0.30030  0.96440  0.63870  Biso   1.000  H
  C21      1.0000 0.26460  0.92210  0.07900  Biso   1.000  C
  H15      1.0000 0.26120  0.89240  0.98650  Biso   1.000  H
  C22      1.0000 0.25140  0.96780  0.97400  Biso   1.000  C
  H16      1.0000 0.23920  0.96880  0.80650  Biso   1.000  H
  Zn2      1.0000 0.77147  0.71421  0.43330  Biso   1.000  Zn
  O5       1.0000 0.72260  0.75450  0.60300  Biso   1.000  O
  H17      1.0000 0.70180  0.76550  0.49090  Biso   1.000  H
  N3       1.0000 0.75120  0.64180  0.41800  Biso   1.000  N
  C23      1.0000 0.76650  0.60410  0.55900  Biso   1.000  C
  H18      1.0000 0.79150  0.60680  0.68310  Biso   1.000  H
  N4       1.0000 0.74190  0.56060  0.50510  Biso   1.000  N
  C24      1.0000 0.71260  0.62170  0.25580  Biso   1.000  C
  O6       1.0000 0.77570  0.33270  0.85200  Biso   1.000  O
  C25      1.0000 0.68310  0.64400  0.06920  Biso   1.000  C
  H19      1.0000 0.68650  0.67800  0.03090  Biso   1.000  H
  O7       1.0000 0.81370  0.36950  0.17300  Biso   1.000  O
  C26      1.0000 0.64820  0.61450  0.94030  Biso   1.000  C
  C27      1.0000 0.61840  0.63580  0.75200  Biso   1.000  C
  H20      1.0000 0.62240  0.66970  0.71420  Biso   1.000  H
  C28      1.0000 0.58280  0.60840  0.61700  Biso   1.000  C
  H21      1.0000 0.56300  0.62340  0.49130  Biso   1.000  H
  C29      1.0000 0.57760  0.55770  0.67540  Biso   1.000  C
  H22      1.0000 0.55410  0.53830  0.58780  Biso   1.000  H
  C30      1.0000 0.60730  0.53590  0.86300  Biso   1.000  C
  H23      1.0000 0.60330  0.50190  0.90030  Biso   1.000  H
  C31      1.0000 0.64300  0.56370  0.99880  Biso   1.000  C
  C32      1.0000 0.67250  0.54110  0.18700  Biso   1.000  C
  H24      1.0000 0.66950  0.50700  0.22430  Biso   1.000  H
  C33      1.0000 0.70640  0.57120  0.31700  Biso   1.000  C
  C34      1.0000 0.75570  0.51220  0.61100  Biso   1.000  C
  C35      1.0000 0.78300  0.42190  0.82700  Biso   1.000  C
  C36      1.0000 0.80490  0.50450  0.68300  Biso   1.000  C
  H25      1.0000 0.82830  0.53000  0.65770  Biso   1.000  H
  C37      1.0000 0.82020  0.45890  0.79400  Biso   1.000  C
  H26      1.0000 0.85340  0.45340  0.84230  Biso   1.000  H
  C38      1.0000 0.73240  0.42640  0.75800  Biso   1.000  C
  H27      1.0000 0.70870  0.40100  0.78140  Biso   1.000  H
  C39      1.0000 0.72110  0.47340  0.65100  Biso   1.000  C
  H28      1.0000 0.68800  0.47920  0.60310  Biso   1.000  H
  C40      1.0000 0.79670  0.37140  0.94500  Biso   1.000  C
  O8       1.0000 0.84790  0.37380  0.02000  Biso   1.000  O
  C41      1.0000 0.77410  0.51020  0.85900  Biso   1.000  C
  H29      1.0000 0.77730  0.53990  0.95240  Biso   1.000  H
  C42      1.0000 0.78800  0.46540  0.97200  Biso   1.000  C
  H30      1.0000 0.80030  0.46440  0.13870  Biso   1.000  H
  C43      1.0000 0.76460  0.42210  0.57900  Biso   1.000  C
  H31      1.0000 0.76120  0.39240  0.48650  Biso   1.000  H
  C44      1.0000 0.75140  0.46780  0.47400  Biso   1.000  C
  H32      1.0000 0.73920  0.46880  0.30650  Biso   1.000  H
  Zn3      1.0000 0.72853  0.78579  0.93330  Biso   1.000  Zn
  O9       1.0000 0.77740  0.74550  0.10300  Biso   1.000  O
  H33      1.0000 0.79820  0.73450  0.99090  Biso   1.000  H
  N5       1.0000 0.74880  0.85820  0.91800  Biso   1.000  N
  C45      1.0000 0.73350  0.89590  0.05900  Biso   1.000  C
  H34      1.0000 0.70850  0.89320  0.18310  Biso   1.000  H
  N6       1.0000 0.75810  0.93940  0.00510  Biso   1.000  N
  C46      1.0000 0.78740  0.87830  0.75580  Biso   1.000  C
  O10      1.0000 0.72430  0.16730  0.35200  Biso   1.000  O
  C47      1.0000 0.81690  0.85600  0.56920  Biso   1.000  C
  H35      1.0000 0.81350  0.82200  0.53090  Biso   1.000  H
  O11      1.0000 0.68630  0.13050  0.67300  Biso   1.000  O
  C48      1.0000 0.85180  0.88550  0.44030  Biso   1.000  C
  C49      1.0000 0.88160  0.86420  0.25200  Biso   1.000  C
  H36      1.0000 0.87760  0.83030  0.21420  Biso   1.000  H
  C50      1.0000 0.91720  0.89160  0.11700  Biso   1.000  C
  H37      1.0000 0.93700  0.87660  0.99130  Biso   1.000  H
  C51      1.0000 0.92240  0.94230  0.17540  Biso   1.000  C
  H38      1.0000 0.94590  0.96170  0.08780  Biso   1.000  H
  C52      1.0000 0.89270  0.96410  0.36300  Biso   1.000  C
  H39      1.0000 0.89670  0.99810  0.40030  Biso   1.000  H
  C53      1.0000 0.85700  0.93630  0.49880  Biso   1.000  C
  C54      1.0000 0.82750  0.95890  0.68700  Biso   1.000  C
  H40      1.0000 0.83050  0.99300  0.72430  Biso   1.000  H
  C55      1.0000 0.79360  0.92880  0.81700  Biso   1.000  C
  C56      1.0000 0.74430  0.98780  0.11100  Biso   1.000  C
  C57      1.0000 0.71700  0.07810  0.32700  Biso   1.000  C
  C58      1.0000 0.69510  0.99550  0.18300  Biso   1.000  C
  H41      1.0000 0.67170  0.97000  0.15770  Biso   1.000  H
  C59      1.0000 0.67980  0.04110  0.29400  Biso   1.000  C
  H42      1.0000 0.64660  0.04660  0.34230  Biso   1.000  H
  C60      1.0000 0.76760  0.07360  0.25800  Biso   1.000  C
  H43      1.0000 0.79130  0.09900  0.28140  Biso   1.000  H
  C61      1.0000 0.77890  0.02660  0.15100  Biso   1.000  C
  H44      1.0000 0.81200  0.02080  0.10310  Biso   1.000  H
  C62      1.0000 0.70330  0.12860  0.44500  Biso   1.000  C
  O12      1.0000 0.65210  0.12620  0.52000  Biso   1.000  O
  C63      1.0000 0.72590  0.98980  0.35900  Biso   1.000  C
  H45      1.0000 0.72270  0.96010  0.45240  Biso   1.000  H
  C64      1.0000 0.71200  0.03460  0.47200  Biso   1.000  C
  H46      1.0000 0.69970  0.03560  0.63870  Biso   1.000  H
  C65      1.0000 0.73540  0.07790  0.07900  Biso   1.000  C
  H47      1.0000 0.73880  0.10760  0.98650  Biso   1.000  H
  C66      1.0000 0.74860  0.03220  0.97400  Biso   1.000  C
  H48      1.0000 0.76080  0.03120  0.80650  Biso   1.000  H
  Zn4      1.0000 0.22853  0.28579  0.43330  Biso   1.000  Zn
  O13      1.0000 0.27740  0.24550  0.60300  Biso   1.000  O
  H49      1.0000 0.29820  0.23450  0.49090  Biso   1.000  H
  N7       1.0000 0.24880  0.35820  0.41800  Biso   1.000  N
  C67      1.0000 0.23350  0.39590  0.55900  Biso   1.000  C
  H50      1.0000 0.20850  0.39320  0.68310  Biso   1.000  H
  N8       1.0000 0.25810  0.43940  0.50510  Biso   1.000  N
  C68      1.0000 0.28740  0.37830  0.25580  Biso   1.000  C
  O14      1.0000 0.22430  0.66730  0.85200  Biso   1.000  O
  C69      1.0000 0.31690  0.35600  0.06920  Biso   1.000  C
  H51      1.0000 0.31350  0.32200  0.03090  Biso   1.000  H
  O15      1.0000 0.18630  0.63050  0.17300  Biso   1.000  O
  C70      1.0000 0.35180  0.38550  0.94030  Biso   1.000  C
  C71      1.0000 0.38160  0.36420  0.75200  Biso   1.000  C
  H52      1.0000 0.37760  0.33030  0.71420  Biso   1.000  H
  C72      1.0000 0.41720  0.39160  0.61700  Biso   1.000  C
  H53      1.0000 0.43700  0.37660  0.49130  Biso   1.000  H
  C73      1.0000 0.42240  0.44230  0.67540  Biso   1.000  C
  H54      1.0000 0.44590  0.46170  0.58780  Biso   1.000  H
  C74      1.0000 0.39270  0.46410  0.86300  Biso   1.000  C
  H55      1.0000 0.39670  0.49810  0.90030  Biso   1.000  H
  C75      1.0000 0.35700  0.43630  0.99880  Biso   1.000  C
  C76      1.0000 0.32750  0.45890  0.18700  Biso   1.000  C
  H56      1.0000 0.33050  0.49300  0.22430  Biso   1.000  H
  C77      1.0000 0.29360  0.42880  0.31700  Biso   1.000  C
  C78      1.0000 0.24430  0.48780  0.61100  Biso   1.000  C
  C79      1.0000 0.21700  0.57810  0.82700  Biso   1.000  C
  C80      1.0000 0.19510  0.49550  0.68300  Biso   1.000  C
  H57      1.0000 0.17170  0.47000  0.65770  Biso   1.000  H
  C81      1.0000 0.17980  0.54110  0.79400  Biso   1.000  C
  H58      1.0000 0.14660  0.54660  0.84230  Biso   1.000  H
  C82      1.0000 0.26760  0.57360  0.75800  Biso   1.000  C
  H59      1.0000 0.29130  0.59900  0.78140  Biso   1.000  H
  C83      1.0000 0.27890  0.52660  0.65100  Biso   1.000  C
  H60      1.0000 0.31200  0.52080  0.60310  Biso   1.000  H
  C84      1.0000 0.20330  0.62860  0.94500  Biso   1.000  C
  O16      1.0000 0.15210  0.62620  0.02000  Biso   1.000  O
  C85      1.0000 0.22590  0.48980  0.85900  Biso   1.000  C
  H61      1.0000 0.22270  0.46010  0.95240  Biso   1.000  H
  C86      1.0000 0.21200  0.53460  0.97200  Biso   1.000  C
  H62      1.0000 0.19970  0.53560  0.13870  Biso   1.000  H
  C87      1.0000 0.23540  0.57790  0.57900  Biso   1.000  C
  H63      1.0000 0.23880  0.60760  0.48650  Biso   1.000  H
  C88      1.0000 0.24860  0.53220  0.47400  Biso   1.000  C
  H64      1.0000 0.26080  0.53120  0.30650  Biso   1.000  H
  Zn5      1.0000 0.21421  0.72853  0.06670  Biso   1.000  Zn
  O17      1.0000 0.25450  0.77740  0.89700  Biso   1.000  O
  H65      1.0000 0.26550  0.79820  0.00910  Biso   1.000  H
  N9       1.0000 0.14180  0.74880  0.08200  Biso   1.000  N
  C89      1.0000 0.10410  0.73350  0.94100  Biso   1.000  C
  H66      1.0000 0.10680  0.70850  0.81690  Biso   1.000  H
  N10      1.0000 0.06060  0.75810  0.99490  Biso   1.000  N
  C90      1.0000 0.12170  0.78740  0.24420  Biso   1.000  C
  O18      1.0000 0.83270  0.72430  0.64800  Biso   1.000  O
  C91      1.0000 0.14400  0.81690  0.43080  Biso   1.000  C
  H67      1.0000 0.17800  0.81350  0.46910  Biso   1.000  H
  O19      1.0000 0.86950  0.68630  0.32700  Biso   1.000  O
  C92      1.0000 0.11450  0.85180  0.55970  Biso   1.000  C
  C93      1.0000 0.13580  0.88160  0.74800  Biso   1.000  C
  H68      1.0000 0.16970  0.87760  0.78580  Biso   1.000  H
  C94      1.0000 0.10840  0.91720  0.88300  Biso   1.000  C
  H69      1.0000 0.12340  0.93700  0.00870  Biso   1.000  H
  C95      1.0000 0.05770  0.92240  0.82460  Biso   1.000  C
  H70      1.0000 0.03830  0.94590  0.91220  Biso   1.000  H
  C96      1.0000 0.03590  0.89270  0.63700  Biso   1.000  C
  H71      1.0000 0.00190  0.89670  0.59970  Biso   1.000  H
  C97      1.0000 0.06370  0.85700  0.50120  Biso   1.000  C
  C98      1.0000 0.04110  0.82750  0.31300  Biso   1.000  C
  H72      1.0000 0.00700  0.83050  0.27570  Biso   1.000  H
  C99      1.0000 0.07120  0.79360  0.18300  Biso   1.000  C
  C100     1.0000 0.01220  0.74430  0.88900  Biso   1.000  C
  C101     1.0000 0.92190  0.71700  0.67300  Biso   1.000  C
  C102     1.0000 0.00450  0.69510  0.81700  Biso   1.000  C
  H73      1.0000 0.03000  0.67170  0.84230  Biso   1.000  H
  C103     1.0000 0.95890  0.67980  0.70600  Biso   1.000  C
  H74      1.0000 0.95340  0.64660  0.65770  Biso   1.000  H
  C104     1.0000 0.92640  0.76760  0.74200  Biso   1.000  C
  H75      1.0000 0.90100  0.79130  0.71860  Biso   1.000  H
  C105     1.0000 0.97340  0.77890  0.84900  Biso   1.000  C
  H76      1.0000 0.97920  0.81200  0.89690  Biso   1.000  H
  C106     1.0000 0.87140  0.70330  0.55500  Biso   1.000  C
  O20      1.0000 0.87380  0.65210  0.48000  Biso   1.000  O
  C107     1.0000 0.01020  0.72590  0.64100  Biso   1.000  C
  H77      1.0000 0.03990  0.72270  0.54760  Biso   1.000  H
  C108     1.0000 0.96540  0.71200  0.52800  Biso   1.000  C
  H78      1.0000 0.96440  0.69970  0.36130  Biso   1.000  H
  C109     1.0000 0.92210  0.73540  0.92100  Biso   1.000  C
  H79      1.0000 0.89240  0.73880  0.01350  Biso   1.000  H
  C110     1.0000 0.96780  0.74860  0.02600  Biso   1.000  C
  H80      1.0000 0.96880  0.76080  0.19350  Biso   1.000  H
  Zn6      1.0000 0.71421  0.22853  0.56670  Biso   1.000  Zn
  O21      1.0000 0.75450  0.27740  0.39700  Biso   1.000  O
  H81      1.0000 0.76550  0.29820  0.50910  Biso   1.000  H
  N11      1.0000 0.64180  0.24880  0.58200  Biso   1.000  N
  C111     1.0000 0.60410  0.23350  0.44100  Biso   1.000  C
  H82      1.0000 0.60680  0.20850  0.31690  Biso   1.000  H
  N12      1.0000 0.56060  0.25810  0.49490  Biso   1.000  N
  C112     1.0000 0.62170  0.28740  0.74420  Biso   1.000  C
  O22      1.0000 0.33270  0.22430  0.14800  Biso   1.000  O
  C113     1.0000 0.64400  0.31690  0.93080  Biso   1.000  C
  H83      1.0000 0.67800  0.31350  0.96910  Biso   1.000  H
  O23      1.0000 0.36950  0.18630  0.82700  Biso   1.000  O
  C114     1.0000 0.61450  0.35180  0.05970  Biso   1.000  C
  C115     1.0000 0.63580  0.38160  0.24800  Biso   1.000  C
  H84      1.0000 0.66970  0.37760  0.28580  Biso   1.000  H
  C116     1.0000 0.60840  0.41720  0.38300  Biso   1.000  C
  H85      1.0000 0.62340  0.43700  0.50870  Biso   1.000  H
  C117     1.0000 0.55770  0.42240  0.32460  Biso   1.000  C
  H86      1.0000 0.53830  0.44590  0.41220  Biso   1.000  H
  C118     1.0000 0.53590  0.39270  0.13700  Biso   1.000  C
  H87      1.0000 0.50190  0.39670  0.09970  Biso   1.000  H
  C119     1.0000 0.56370  0.35700  0.00120  Biso   1.000  C
  C120     1.0000 0.54110  0.32750  0.81300  Biso   1.000  C
  H88      1.0000 0.50700  0.33050  0.77570  Biso   1.000  H
  C121     1.0000 0.57120  0.29360  0.68300  Biso   1.000  C
  C122     1.0000 0.51220  0.24430  0.38900  Biso   1.000  C
  C123     1.0000 0.42190  0.21700  0.17300  Biso   1.000  C
  C124     1.0000 0.50450  0.19510  0.31700  Biso   1.000  C
  H89      1.0000 0.53000  0.17170  0.34230  Biso   1.000  H
  C125     1.0000 0.45890  0.17980  0.20600  Biso   1.000  C
  H90      1.0000 0.45340  0.14660  0.15770  Biso   1.000  H
  C126     1.0000 0.42640  0.26760  0.24200  Biso   1.000  C
  H91      1.0000 0.40100  0.29130  0.21860  Biso   1.000  H
  C127     1.0000 0.47340  0.27890  0.34900  Biso   1.000  C
  H92      1.0000 0.47920  0.31200  0.39690  Biso   1.000  H
  C128     1.0000 0.37140  0.20330  0.05500  Biso   1.000  C
  O24      1.0000 0.37380  0.15210  0.98000  Biso   1.000  O
  C129     1.0000 0.51020  0.22590  0.14100  Biso   1.000  C
  H93      1.0000 0.53990  0.22270  0.04760  Biso   1.000  H
  C130     1.0000 0.46540  0.21200  0.02800  Biso   1.000  C
  H94      1.0000 0.46440  0.19970  0.86130  Biso   1.000  H
  C131     1.0000 0.42210  0.23540  0.42100  Biso   1.000  C
  H95      1.0000 0.39240  0.23880  0.51350  Biso   1.000  H
  C132     1.0000 0.46780  0.24860  0.52600  Biso   1.000  C
  H96      1.0000 0.46880  0.26080  0.69350  Biso   1.000  H
  Zn7      1.0000 0.78579  0.27147  0.06670  Biso   1.000  Zn
  O25      1.0000 0.74550  0.22260  0.89700  Biso   1.000  O
  H97      1.0000 0.73450  0.20180  0.00910  Biso   1.000  H
  N13      1.0000 0.85820  0.25120  0.08200  Biso   1.000  N
  C133     1.0000 0.89590  0.26650  0.94100  Biso   1.000  C
  H98      1.0000 0.89320  0.29150  0.81690  Biso   1.000  H
  N14      1.0000 0.93940  0.24190  0.99490  Biso   1.000  N
  C134     1.0000 0.87830  0.21260  0.24420  Biso   1.000  C
  O26      1.0000 0.16730  0.27570  0.64800  Biso   1.000  O
  C135     1.0000 0.85600  0.18310  0.43080  Biso   1.000  C
  H99      1.0000 0.82200  0.18650  0.46910  Biso   1.000  H
  O27      1.0000 0.13050  0.31370  0.32700  Biso   1.000  O
  C136     1.0000 0.88550  0.14820  0.55970  Biso   1.000  C
  C137     1.0000 0.86420  0.11840  0.74800  Biso   1.000  C
  H100     1.0000 0.83030  0.12240  0.78580  Biso   1.000  H
  C138     1.0000 0.89160  0.08280  0.88300  Biso   1.000  C
  H101     1.0000 0.87660  0.06300  0.00870  Biso   1.000  H
  C139     1.0000 0.94230  0.07760  0.82460  Biso   1.000  C
  H102     1.0000 0.96170  0.05410  0.91220  Biso   1.000  H
  C140     1.0000 0.96410  0.10730  0.63700  Biso   1.000  C
  H103     1.0000 0.99810  0.10330  0.59970  Biso   1.000  H
  C141     1.0000 0.93630  0.14300  0.50120  Biso   1.000  C
  C142     1.0000 0.95890  0.17250  0.31300  Biso   1.000  C
  H104     1.0000 0.99300  0.16950  0.27570  Biso   1.000  H
  C143     1.0000 0.92880  0.20640  0.18300  Biso   1.000  C
  C144     1.0000 0.98780  0.25570  0.88900  Biso   1.000  C
  C145     1.0000 0.07810  0.28300  0.67300  Biso   1.000  C
  C146     1.0000 0.99550  0.30490  0.81700  Biso   1.000  C
  H105     1.0000 0.97000  0.32830  0.84230  Biso   1.000  H
  C147     1.0000 0.04110  0.32020  0.70600  Biso   1.000  C
  H106     1.0000 0.04660  0.35340  0.65770  Biso   1.000  H
  C148     1.0000 0.07360  0.23240  0.74200  Biso   1.000  C
  H107     1.0000 0.09900  0.20870  0.71860  Biso   1.000  H
  C149     1.0000 0.02660  0.22110  0.84900  Biso   1.000  C
  H108     1.0000 0.02080  0.18800  0.89690  Biso   1.000  H
  C150     1.0000 0.12860  0.29670  0.55500  Biso   1.000  C
  O28      1.0000 0.12620  0.34790  0.48000  Biso   1.000  O
  C151     1.0000 0.98980  0.27410  0.64100  Biso   1.000  C
  H109     1.0000 0.96010  0.27730  0.54760  Biso   1.000  H
  C152     1.0000 0.03460  0.28800  0.52800  Biso   1.000  C
  H110     1.0000 0.03560  0.30030  0.36130  Biso   1.000  H
  C153     1.0000 0.07790  0.26460  0.92100  Biso   1.000  C
  H111     1.0000 0.10760  0.26120  0.01350  Biso   1.000  H
  C154     1.0000 0.03220  0.25140  0.02600  Biso   1.000  C
  H112     1.0000 0.03120  0.23920  0.19350  Biso   1.000  H
  Zn8      1.0000 0.28579  0.77147  0.56670  Biso   1.000  Zn
  O29      1.0000 0.24550  0.72260  0.39700  Biso   1.000  O
  H113     1.0000 0.23450  0.70180  0.50910  Biso   1.000  H
  N15      1.0000 0.35820  0.75120  0.58200  Biso   1.000  N
  C155     1.0000 0.39590  0.76650  0.44100  Biso   1.000  C
  H114     1.0000 0.39320  0.79150  0.31690  Biso   1.000  H
  N16      1.0000 0.43940  0.74190  0.49490  Biso   1.000  N
  C156     1.0000 0.37830  0.71260  0.74420  Biso   1.000  C
  O30      1.0000 0.66730  0.77570  0.14800  Biso   1.000  O
  C157     1.0000 0.35600  0.68310  0.93080  Biso   1.000  C
  H115     1.0000 0.32200  0.68650  0.96910  Biso   1.000  H
  O31      1.0000 0.63050  0.81370  0.82700  Biso   1.000  O
  C158     1.0000 0.38550  0.64820  0.05970  Biso   1.000  C
  C159     1.0000 0.36420  0.61840  0.24800  Biso   1.000  C
  H116     1.0000 0.33030  0.62240  0.28580  Biso   1.000  H
  C160     1.0000 0.39160  0.58280  0.38300  Biso   1.000  C
  H117     1.0000 0.37660  0.56300  0.50870  Biso   1.000  H
  C161     1.0000 0.44230  0.57760  0.32460  Biso   1.000  C
  H118     1.0000 0.46170  0.55410  0.41220  Biso   1.000  H
  C162     1.0000 0.46410  0.60730  0.13700  Biso   1.000  C
  H119     1.0000 0.49810  0.60330  0.09970  Biso   1.000  H
  C163     1.0000 0.43630  0.64300  0.00120  Biso   1.000  C
  C164     1.0000 0.45890  0.67250  0.81300  Biso   1.000  C
  H120     1.0000 0.49300  0.66950  0.77570  Biso   1.000  H
  C165     1.0000 0.42880  0.70640  0.68300  Biso   1.000  C
  C166     1.0000 0.48780  0.75570  0.38900  Biso   1.000  C
  C167     1.0000 0.57810  0.78300  0.17300  Biso   1.000  C
  C168     1.0000 0.49550  0.80490  0.31700  Biso   1.000  C
  H121     1.0000 0.47000  0.82830  0.34230  Biso   1.000  H
  C169     1.0000 0.54110  0.82020  0.20600  Biso   1.000  C
  H122     1.0000 0.54660  0.85340  0.15770  Biso   1.000  H
  C170     1.0000 0.57360  0.73240  0.24200  Biso   1.000  C
  H123     1.0000 0.59900  0.70870  0.21860  Biso   1.000  H
  C171     1.0000 0.52660  0.72110  0.34900  Biso   1.000  C
  H124     1.0000 0.52080  0.68800  0.39690  Biso   1.000  H
  C172     1.0000 0.62860  0.79670  0.05500  Biso   1.000  C
  O32      1.0000 0.62620  0.84790  0.98000  Biso   1.000  O
  C173     1.0000 0.48980  0.77410  0.14100  Biso   1.000  C
  H125     1.0000 0.46010  0.77730  0.04760  Biso   1.000  H
  C174     1.0000 0.53460  0.78800  0.02800  Biso   1.000  C
  H126     1.0000 0.53560  0.80030  0.86130  Biso   1.000  H
  C175     1.0000 0.57790  0.76460  0.42100  Biso   1.000  C
  H127     1.0000 0.60760  0.76120  0.51350  Biso   1.000  H
  C176     1.0000 0.53220  0.75140  0.52600  Biso   1.000  C
  H128     1.0000 0.53120  0.73920  0.69350  Biso   1.000  H
