data_image0
_cell_length_a       26.742
_cell_length_b       26.742
_cell_length_c       5.1504
_cell_angle_alpha    90
_cell_angle_beta     90
_cell_angle_gamma    90

_symmetry_space_group_name_H-M    "P 1"
_symmetry_int_tables_number       1

loop_
  _symmetry_equiv_pos_as_xyz
  'x, y, z'

loop_
  _atom_site_label
  _atom_site_occupancy
  _atom_site_fract_x
  _atom_site_fract_y
  _atom_site_fract_z
  _atom_site_thermal_displace_type
  _atom_site_B_iso_or_equiv
  _atom_site_type_symbol
  Zn1      1.0000 0.72947  0.28654  0.79226  Biso   1.000  Zn
  O1       1.0000 0.78008  0.24716  0.61770  Biso   1.000  O
  C1       1.0000 0.73597  0.39578  0.67410  Biso   1.000  C
  H1       1.0000 0.71060  0.39270  0.54600  Biso   1.000  H
  O2       1.0000 0.72123  0.66856  0.42030  Biso   1.000  O
  N1       1.0000 0.75236  0.35822  0.81220  Biso   1.000  N
  C2       1.0000 0.78961  0.37759  0.97770  Biso   1.000  C
  N2       1.0000 0.75896  0.43994  0.73250  Biso   1.000  N
  C3       1.0000 0.81692  0.35445  0.16510  Biso   1.000  C
  H2       1.0000 0.81240  0.31990  0.20210  Biso   1.000  H
  C4       1.0000 0.85222  0.38336  0.30290  Biso   1.000  C
  C5       1.0000 0.88182  0.36224  0.50540  Biso   1.000  C
  H3       1.0000 0.87800  0.32780  0.54700  Biso   1.000  H
  C6       1.0000 0.91559  0.39048  0.64110  Biso   1.000  C
  H4       1.0000 0.93460  0.37590  0.77720  Biso   1.000  H
  C7       1.0000 0.92202  0.44205  0.57640  Biso   1.000  C
  H5       1.0000 0.94570  0.46160  0.66950  Biso   1.000  H
  C8       1.0000 0.89505  0.46332  0.38550  Biso   1.000  C
  H6       1.0000 0.90050  0.49750  0.34400  Biso   1.000  H
  C9       1.0000 0.85818  0.43561  0.24330  Biso   1.000  C
  C10      1.0000 0.82871  0.45871  0.05330  Biso   1.000  C
  H7       1.0000 0.83230  0.49320  0.01430  Biso   1.000  H
  C11      1.0000 0.79468  0.42969  0.92670  Biso   1.000  C
  C12      1.0000 0.74518  0.48756  0.62810  Biso   1.000  C
  C13      1.0000 0.71761  0.58052  0.43500  Biso   1.000  C
  C14      1.0000 0.70260  0.63023  0.32430  Biso   1.000  C
  O3       1.0000 0.68740  0.63020  0.07580  Biso   1.000  O
  C15      1.0000 0.72860  0.49050  0.38120  Biso   1.000  C
  H8       1.0000 0.72590  0.46100  0.27930  Biso   1.000  H
  C16      1.0000 0.71510  0.53710  0.27330  Biso   1.000  C
  H9       1.0000 0.70470  0.53960  0.09750  Biso   1.000  H
  C17      1.0000 0.73470  0.57770  0.67830  Biso   1.000  C
  H10      1.0000 0.73820  0.60740  0.77800  Biso   1.000  H
  C18      1.0000 0.74760  0.53170  0.78820  Biso   1.000  C
  H11      1.0000 0.75770  0.52950  0.96460  Biso   1.000  H
  O4       1.0000 0.66110  0.63292  0.21450  Biso   1.000  O
  C19      1.0000 0.69530  0.49440  0.56250  Biso   1.000  C
  H12      1.0000 0.67170  0.46810  0.58050  Biso   1.000  H
  C20      1.0000 0.68140  0.54060  0.47040  Biso   1.000  C
  H13      1.0000 0.64730  0.54660  0.42900  Biso   1.000  H
  C21      1.0000 0.76500  0.57180  0.51080  Biso   1.000  C
  H14      1.0000 0.78860  0.59840  0.51020  Biso   1.000  H
  C22      1.0000 0.78020  0.52410  0.59050  Biso   1.000  C
  H15      1.0000 0.81460  0.51710  0.61820  Biso   1.000  H
  Zn2      1.0000 0.22947  0.78654  0.29226  Biso   1.000  Zn
  O5       1.0000 0.28008  0.74716  0.11770  Biso   1.000  O
  C23      1.0000 0.23597  0.89578  0.17410  Biso   1.000  C
  H16      1.0000 0.21060  0.89270  0.04600  Biso   1.000  H
  O6       1.0000 0.22123  0.16856  0.92030  Biso   1.000  O
  N3       1.0000 0.25236  0.85822  0.31220  Biso   1.000  N
  C24      1.0000 0.28961  0.87759  0.47770  Biso   1.000  C
  N4       1.0000 0.25896  0.93994  0.23250  Biso   1.000  N
  C25      1.0000 0.31692  0.85445  0.66510  Biso   1.000  C
  H17      1.0000 0.31240  0.81990  0.70210  Biso   1.000  H
  C26      1.0000 0.35222  0.88336  0.80290  Biso   1.000  C
  C27      1.0000 0.38182  0.86224  0.00540  Biso   1.000  C
  H18      1.0000 0.37800  0.82780  0.04700  Biso   1.000  H
  C28      1.0000 0.41559  0.89048  0.14110  Biso   1.000  C
  H19      1.0000 0.43460  0.87590  0.27720  Biso   1.000  H
  C29      1.0000 0.42202  0.94205  0.07640  Biso   1.000  C
  H20      1.0000 0.44570  0.96160  0.16950  Biso   1.000  H
  C30      1.0000 0.39505  0.96332  0.88550  Biso   1.000  C
  H21      1.0000 0.40050  0.99750  0.84400  Biso   1.000  H
  C31      1.0000 0.35818  0.93561  0.74330  Biso   1.000  C
  C32      1.0000 0.32871  0.95871  0.55330  Biso   1.000  C
  H22      1.0000 0.33230  0.99320  0.51430  Biso   1.000  H
  C33      1.0000 0.29468  0.92969  0.42670  Biso   1.000  C
  C34      1.0000 0.24518  0.98756  0.12810  Biso   1.000  C
  C35      1.0000 0.21761  0.08052  0.93500  Biso   1.000  C
  C36      1.0000 0.20260  0.13023  0.82430  Biso   1.000  C
  O7       1.0000 0.18740  0.13020  0.57580  Biso   1.000  O
  C37      1.0000 0.22860  0.99050  0.88120  Biso   1.000  C
  H23      1.0000 0.22590  0.96100  0.77930  Biso   1.000  H
  C38      1.0000 0.21510  0.03710  0.77330  Biso   1.000  C
  H24      1.0000 0.20470  0.03960  0.59750  Biso   1.000  H
  C39      1.0000 0.23470  0.07770  0.17830  Biso   1.000  C
  H25      1.0000 0.23820  0.10740  0.27800  Biso   1.000  H
  C40      1.0000 0.24760  0.03170  0.28820  Biso   1.000  C
  H26      1.0000 0.25770  0.02950  0.46460  Biso   1.000  H
  O8       1.0000 0.16110  0.13292  0.71450  Biso   1.000  O
  C41      1.0000 0.19530  0.99440  0.06250  Biso   1.000  C
  H27      1.0000 0.17170  0.96810  0.08050  Biso   1.000  H
  C42      1.0000 0.18140  0.04060  0.97040  Biso   1.000  C
  H28      1.0000 0.14730  0.04660  0.92900  Biso   1.000  H
  C43      1.0000 0.26500  0.07180  0.01080  Biso   1.000  C
  H29      1.0000 0.28860  0.09840  0.01020  Biso   1.000  H
  C44      1.0000 0.28020  0.02410  0.09050  Biso   1.000  C
  H30      1.0000 0.31460  0.01710  0.11820  Biso   1.000  H
  Zn3      1.0000 0.27053  0.71346  0.79226  Biso   1.000  Zn
  O9       1.0000 0.21992  0.75284  0.61770  Biso   1.000  O
  C45      1.0000 0.26403  0.60422  0.67410  Biso   1.000  C
  H31      1.0000 0.28940  0.60730  0.54600  Biso   1.000  H
  O10      1.0000 0.27877  0.33144  0.42030  Biso   1.000  O
  N5       1.0000 0.24764  0.64178  0.81220  Biso   1.000  N
  C46      1.0000 0.21039  0.62241  0.97770  Biso   1.000  C
  N6       1.0000 0.24104  0.56006  0.73250  Biso   1.000  N
  C47      1.0000 0.18308  0.64555  0.16510  Biso   1.000  C
  H32      1.0000 0.18760  0.68010  0.20210  Biso   1.000  H
  C48      1.0000 0.14778  0.61664  0.30290  Biso   1.000  C
  C49      1.0000 0.11818  0.63776  0.50540  Biso   1.000  C
  H33      1.0000 0.12200  0.67220  0.54700  Biso   1.000  H
  C50      1.0000 0.08441  0.60952  0.64110  Biso   1.000  C
  H34      1.0000 0.06540  0.62410  0.77720  Biso   1.000  H
  C51      1.0000 0.07798  0.55795  0.57640  Biso   1.000  C
  H35      1.0000 0.05430  0.53840  0.66950  Biso   1.000  H
  C52      1.0000 0.10495  0.53668  0.38550  Biso   1.000  C
  H36      1.0000 0.09950  0.50250  0.34400  Biso   1.000  H
  C53      1.0000 0.14182  0.56439  0.24330  Biso   1.000  C
  C54      1.0000 0.17129  0.54129  0.05330  Biso   1.000  C
  H37      1.0000 0.16770  0.50680  0.01430  Biso   1.000  H
  C55      1.0000 0.20532  0.57031  0.92670  Biso   1.000  C
  C56      1.0000 0.25482  0.51244  0.62810  Biso   1.000  C
  C57      1.0000 0.28239  0.41948  0.43500  Biso   1.000  C
  C58      1.0000 0.29740  0.36977  0.32430  Biso   1.000  C
  O11      1.0000 0.31260  0.36980  0.07580  Biso   1.000  O
  C59      1.0000 0.27140  0.50950  0.38120  Biso   1.000  C
  H38      1.0000 0.27410  0.53900  0.27930  Biso   1.000  H
  C60      1.0000 0.28490  0.46290  0.27330  Biso   1.000  C
  H39      1.0000 0.29530  0.46040  0.09750  Biso   1.000  H
  C61      1.0000 0.26530  0.42230  0.67830  Biso   1.000  C
  H40      1.0000 0.26180  0.39260  0.77800  Biso   1.000  H
  C62      1.0000 0.25240  0.46830  0.78820  Biso   1.000  C
  H41      1.0000 0.24230  0.47050  0.96460  Biso   1.000  H
  O12      1.0000 0.33890  0.36708  0.21450  Biso   1.000  O
  C63      1.0000 0.30470  0.50560  0.56250  Biso   1.000  C
  H42      1.0000 0.32830  0.53190  0.58050  Biso   1.000  H
  C64      1.0000 0.31860  0.45940  0.47040  Biso   1.000  C
  H43      1.0000 0.35270  0.45340  0.42900  Biso   1.000  H
  C65      1.0000 0.23500  0.42820  0.51080  Biso   1.000  C
  H44      1.0000 0.21140  0.40160  0.51020  Biso   1.000  H
  C66      1.0000 0.21980  0.47590  0.59050  Biso   1.000  C
  H45      1.0000 0.18540  0.48290  0.61820  Biso   1.000  H
  Zn4      1.0000 0.77053  0.21346  0.29226  Biso   1.000  Zn
  O13      1.0000 0.71992  0.25284  0.11770  Biso   1.000  O
  C67      1.0000 0.76403  0.10422  0.17410  Biso   1.000  C
  H46      1.0000 0.78940  0.10730  0.04600  Biso   1.000  H
  O14      1.0000 0.77877  0.83144  0.92030  Biso   1.000  O
  N7       1.0000 0.74764  0.14178  0.31220  Biso   1.000  N
  C68      1.0000 0.71039  0.12241  0.47770  Biso   1.000  C
  N8       1.0000 0.74104  0.06006  0.23250  Biso   1.000  N
  C69      1.0000 0.68308  0.14555  0.66510  Biso   1.000  C
  H47      1.0000 0.68760  0.18010  0.70210  Biso   1.000  H
  C70      1.0000 0.64778  0.11664  0.80290  Biso   1.000  C
  C71      1.0000 0.61818  0.13776  0.00540  Biso   1.000  C
  H48      1.0000 0.62200  0.17220  0.04700  Biso   1.000  H
  C72      1.0000 0.58441  0.10952  0.14110  Biso   1.000  C
  H49      1.0000 0.56540  0.12410  0.27720  Biso   1.000  H
  C73      1.0000 0.57798  0.05795  0.07640  Biso   1.000  C
  H50      1.0000 0.55430  0.03840  0.16950  Biso   1.000  H
  C74      1.0000 0.60495  0.03668  0.88550  Biso   1.000  C
  H51      1.0000 0.59950  0.00250  0.84400  Biso   1.000  H
  C75      1.0000 0.64182  0.06439  0.74330  Biso   1.000  C
  C76      1.0000 0.67129  0.04129  0.55330  Biso   1.000  C
  H52      1.0000 0.66770  0.00680  0.51430  Biso   1.000  H
  C77      1.0000 0.70532  0.07031  0.42670  Biso   1.000  C
  C78      1.0000 0.75482  0.01244  0.12810  Biso   1.000  C
  C79      1.0000 0.78239  0.91948  0.93500  Biso   1.000  C
  C80      1.0000 0.79740  0.86977  0.82430  Biso   1.000  C
  O15      1.0000 0.81260  0.86980  0.57580  Biso   1.000  O
  C81      1.0000 0.77140  0.00950  0.88120  Biso   1.000  C
  H53      1.0000 0.77410  0.03900  0.77930  Biso   1.000  H
  C82      1.0000 0.78490  0.96290  0.77330  Biso   1.000  C
  H54      1.0000 0.79530  0.96040  0.59750  Biso   1.000  H
  C83      1.0000 0.76530  0.92230  0.17830  Biso   1.000  C
  H55      1.0000 0.76180  0.89260  0.27800  Biso   1.000  H
  C84      1.0000 0.75240  0.96830  0.28820  Biso   1.000  C
  H56      1.0000 0.74230  0.97050  0.46460  Biso   1.000  H
  O16      1.0000 0.83890  0.86708  0.71450  Biso   1.000  O
  C85      1.0000 0.80470  0.00560  0.06250  Biso   1.000  C
  H57      1.0000 0.82830  0.03190  0.08050  Biso   1.000  H
  C86      1.0000 0.81860  0.95940  0.97040  Biso   1.000  C
  H58      1.0000 0.85270  0.95340  0.92900  Biso   1.000  H
  C87      1.0000 0.73500  0.92820  0.01080  Biso   1.000  C
  H59      1.0000 0.71140  0.90160  0.01020  Biso   1.000  H
  C88      1.0000 0.71980  0.97590  0.09050  Biso   1.000  C
  H60      1.0000 0.68540  0.98290  0.11820  Biso   1.000  H
  Zn5      1.0000 0.28654  0.27053  0.20774  Biso   1.000  Zn
  O17      1.0000 0.24716  0.21992  0.38230  Biso   1.000  O
  C89      1.0000 0.39578  0.26403  0.32590  Biso   1.000  C
  H61      1.0000 0.39270  0.28940  0.45400  Biso   1.000  H
  O18      1.0000 0.66856  0.27877  0.57970  Biso   1.000  O
  N9       1.0000 0.35822  0.24764  0.18780  Biso   1.000  N
  C90      1.0000 0.37759  0.21039  0.02230  Biso   1.000  C
  N10      1.0000 0.43994  0.24104  0.26750  Biso   1.000  N
  C91      1.0000 0.35445  0.18308  0.83490  Biso   1.000  C
  H62      1.0000 0.31990  0.18760  0.79790  Biso   1.000  H
  C92      1.0000 0.38336  0.14778  0.69710  Biso   1.000  C
  C93      1.0000 0.36224  0.11818  0.49460  Biso   1.000  C
  H63      1.0000 0.32780  0.12200  0.45300  Biso   1.000  H
  C94      1.0000 0.39048  0.08441  0.35890  Biso   1.000  C
  H64      1.0000 0.37590  0.06540  0.22280  Biso   1.000  H
  C95      1.0000 0.44205  0.07798  0.42360  Biso   1.000  C
  H65      1.0000 0.46160  0.05430  0.33050  Biso   1.000  H
  C96      1.0000 0.46332  0.10495  0.61450  Biso   1.000  C
  H66      1.0000 0.49750  0.09950  0.65600  Biso   1.000  H
  C97      1.0000 0.43561  0.14182  0.75670  Biso   1.000  C
  C98      1.0000 0.45871  0.17129  0.94670  Biso   1.000  C
  H67      1.0000 0.49320  0.16770  0.98570  Biso   1.000  H
  C99      1.0000 0.42969  0.20532  0.07330  Biso   1.000  C
  C100     1.0000 0.48756  0.25482  0.37190  Biso   1.000  C
  C101     1.0000 0.58052  0.28239  0.56500  Biso   1.000  C
  C102     1.0000 0.63023  0.29740  0.67570  Biso   1.000  C
  O19      1.0000 0.63020  0.31260  0.92420  Biso   1.000  O
  C103     1.0000 0.49050  0.27140  0.61880  Biso   1.000  C
  H68      1.0000 0.46100  0.27410  0.72070  Biso   1.000  H
  C104     1.0000 0.53710  0.28490  0.72670  Biso   1.000  C
  H69      1.0000 0.53960  0.29530  0.90250  Biso   1.000  H
  C105     1.0000 0.57770  0.26530  0.32170  Biso   1.000  C
  H70      1.0000 0.60740  0.26180  0.22200  Biso   1.000  H
  C106     1.0000 0.53170  0.25240  0.21180  Biso   1.000  C
  H71      1.0000 0.52950  0.24230  0.03540  Biso   1.000  H
  O20      1.0000 0.63292  0.33890  0.78550  Biso   1.000  O
  C107     1.0000 0.49440  0.30470  0.43750  Biso   1.000  C
  H72      1.0000 0.46810  0.32830  0.41950  Biso   1.000  H
  C108     1.0000 0.54060  0.31860  0.52960  Biso   1.000  C
  H73      1.0000 0.54660  0.35270  0.57100  Biso   1.000  H
  C109     1.0000 0.57180  0.23500  0.48920  Biso   1.000  C
  H74      1.0000 0.59840  0.21140  0.48980  Biso   1.000  H
  C110     1.0000 0.52410  0.21980  0.40950  Biso   1.000  C
  H75      1.0000 0.51710  0.18540  0.38180  Biso   1.000  H
  Zn6      1.0000 0.78654  0.77053  0.70774  Biso   1.000  Zn
  O21      1.0000 0.74716  0.71992  0.88230  Biso   1.000  O
  C111     1.0000 0.89578  0.76403  0.82590  Biso   1.000  C
  H76      1.0000 0.89270  0.78940  0.95400  Biso   1.000  H
  O22      1.0000 0.16856  0.77877  0.07970  Biso   1.000  O
  N11      1.0000 0.85822  0.74764  0.68780  Biso   1.000  N
  C112     1.0000 0.87759  0.71039  0.52230  Biso   1.000  C
  N12      1.0000 0.93994  0.74104  0.76750  Biso   1.000  N
  C113     1.0000 0.85445  0.68308  0.33490  Biso   1.000  C
  H77      1.0000 0.81990  0.68760  0.29790  Biso   1.000  H
  C114     1.0000 0.88336  0.64778  0.19710  Biso   1.000  C
  C115     1.0000 0.86224  0.61818  0.99460  Biso   1.000  C
  H78      1.0000 0.82780  0.62200  0.95300  Biso   1.000  H
  C116     1.0000 0.89048  0.58441  0.85890  Biso   1.000  C
  H79      1.0000 0.87590  0.56540  0.72280  Biso   1.000  H
  C117     1.0000 0.94205  0.57798  0.92360  Biso   1.000  C
  H80      1.0000 0.96160  0.55430  0.83050  Biso   1.000  H
  C118     1.0000 0.96332  0.60495  0.11450  Biso   1.000  C
  H81      1.0000 0.99750  0.59950  0.15600  Biso   1.000  H
  C119     1.0000 0.93561  0.64182  0.25670  Biso   1.000  C
  C120     1.0000 0.95871  0.67129  0.44670  Biso   1.000  C
  H82      1.0000 0.99320  0.66770  0.48570  Biso   1.000  H
  C121     1.0000 0.92969  0.70532  0.57330  Biso   1.000  C
  C122     1.0000 0.98756  0.75482  0.87190  Biso   1.000  C
  C123     1.0000 0.08052  0.78239  0.06500  Biso   1.000  C
  C124     1.0000 0.13023  0.79740  0.17570  Biso   1.000  C
  O23      1.0000 0.13020  0.81260  0.42420  Biso   1.000  O
  C125     1.0000 0.99050  0.77140  0.11880  Biso   1.000  C
  H83      1.0000 0.96100  0.77410  0.22070  Biso   1.000  H
  C126     1.0000 0.03710  0.78490  0.22670  Biso   1.000  C
  H84      1.0000 0.03960  0.79530  0.40250  Biso   1.000  H
  C127     1.0000 0.07770  0.76530  0.82170  Biso   1.000  C
  H85      1.0000 0.10740  0.76180  0.72200  Biso   1.000  H
  C128     1.0000 0.03170  0.75240  0.71180  Biso   1.000  C
  H86      1.0000 0.02950  0.74230  0.53540  Biso   1.000  H
  O24      1.0000 0.13292  0.83890  0.28550  Biso   1.000  O
  C129     1.0000 0.99440  0.80470  0.93750  Biso   1.000  C
  H87      1.0000 0.96810  0.82830  0.91950  Biso   1.000  H
  C130     1.0000 0.04060  0.81860  0.02960  Biso   1.000  C
  H88      1.0000 0.04660  0.85270  0.07100  Biso   1.000  H
  C131     1.0000 0.07180  0.73500  0.98920  Biso   1.000  C
  H89      1.0000 0.09840  0.71140  0.98980  Biso   1.000  H
  C132     1.0000 0.02410  0.71980  0.90950  Biso   1.000  C
  H90      1.0000 0.01710  0.68540  0.88180  Biso   1.000  H
  Zn7      1.0000 0.71346  0.72947  0.20774  Biso   1.000  Zn
  O25      1.0000 0.75284  0.78008  0.38230  Biso   1.000  O
  C133     1.0000 0.60422  0.73597  0.32590  Biso   1.000  C
  H91      1.0000 0.60730  0.71060  0.45400  Biso   1.000  H
  O26      1.0000 0.33144  0.72123  0.57970  Biso   1.000  O
  N13      1.0000 0.64178  0.75236  0.18780  Biso   1.000  N
  C134     1.0000 0.62241  0.78961  0.02230  Biso   1.000  C
  N14      1.0000 0.56006  0.75896  0.26750  Biso   1.000  N
  C135     1.0000 0.64555  0.81692  0.83490  Biso   1.000  C
  H92      1.0000 0.68010  0.81240  0.79790  Biso   1.000  H
  C136     1.0000 0.61664  0.85222  0.69710  Biso   1.000  C
  C137     1.0000 0.63776  0.88182  0.49460  Biso   1.000  C
  H93      1.0000 0.67220  0.87800  0.45300  Biso   1.000  H
  C138     1.0000 0.60952  0.91559  0.35890  Biso   1.000  C
  H94      1.0000 0.62410  0.93460  0.22280  Biso   1.000  H
  C139     1.0000 0.55795  0.92202  0.42360  Biso   1.000  C
  H95      1.0000 0.53840  0.94570  0.33050  Biso   1.000  H
  C140     1.0000 0.53668  0.89505  0.61450  Biso   1.000  C
  H96      1.0000 0.50250  0.90050  0.65600  Biso   1.000  H
  C141     1.0000 0.56439  0.85818  0.75670  Biso   1.000  C
  C142     1.0000 0.54129  0.82871  0.94670  Biso   1.000  C
  H97      1.0000 0.50680  0.83230  0.98570  Biso   1.000  H
  C143     1.0000 0.57031  0.79468  0.07330  Biso   1.000  C
  C144     1.0000 0.51244  0.74518  0.37190  Biso   1.000  C
  C145     1.0000 0.41948  0.71761  0.56500  Biso   1.000  C
  C146     1.0000 0.36977  0.70260  0.67570  Biso   1.000  C
  O27      1.0000 0.36980  0.68740  0.92420  Biso   1.000  O
  C147     1.0000 0.50950  0.72860  0.61880  Biso   1.000  C
  H98      1.0000 0.53900  0.72590  0.72070  Biso   1.000  H
  C148     1.0000 0.46290  0.71510  0.72670  Biso   1.000  C
  H99      1.0000 0.46040  0.70470  0.90250  Biso   1.000  H
  C149     1.0000 0.42230  0.73470  0.32170  Biso   1.000  C
  H100     1.0000 0.39260  0.73820  0.22200  Biso   1.000  H
  C150     1.0000 0.46830  0.74760  0.21180  Biso   1.000  C
  H101     1.0000 0.47050  0.75770  0.03540  Biso   1.000  H
  O28      1.0000 0.36708  0.66110  0.78550  Biso   1.000  O
  C151     1.0000 0.50560  0.69530  0.43750  Biso   1.000  C
  H102     1.0000 0.53190  0.67170  0.41950  Biso   1.000  H
  C152     1.0000 0.45940  0.68140  0.52960  Biso   1.000  C
  H103     1.0000 0.45340  0.64730  0.57100  Biso   1.000  H
  C153     1.0000 0.42820  0.76500  0.48920  Biso   1.000  C
  H104     1.0000 0.40160  0.78860  0.48980  Biso   1.000  H
  C154     1.0000 0.47590  0.78020  0.40950  Biso   1.000  C
  H105     1.0000 0.48290  0.81460  0.38180  Biso   1.000  H
  Zn8      1.0000 0.21346  0.22947  0.70774  Biso   1.000  Zn
  O29      1.0000 0.25284  0.28008  0.88230  Biso   1.000  O
  C155     1.0000 0.10422  0.23597  0.82590  Biso   1.000  C
  H106     1.0000 0.10730  0.21060  0.95400  Biso   1.000  H
  O30      1.0000 0.83144  0.22123  0.07970  Biso   1.000  O
  N15      1.0000 0.14178  0.25236  0.68780  Biso   1.000  N
  C156     1.0000 0.12241  0.28961  0.52230  Biso   1.000  C
  N16      1.0000 0.06006  0.25896  0.76750  Biso   1.000  N
  C157     1.0000 0.14555  0.31692  0.33490  Biso   1.000  C
  H107     1.0000 0.18010  0.31240  0.29790  Biso   1.000  H
  C158     1.0000 0.11664  0.35222  0.19710  Biso   1.000  C
  C159     1.0000 0.13776  0.38182  0.99460  Biso   1.000  C
  H108     1.0000 0.17220  0.37800  0.95300  Biso   1.000  H
  C160     1.0000 0.10952  0.41559  0.85890  Biso   1.000  C
  H109     1.0000 0.12410  0.43460  0.72280  Biso   1.000  H
  C161     1.0000 0.05795  0.42202  0.92360  Biso   1.000  C
  H110     1.0000 0.03840  0.44570  0.83050  Biso   1.000  H
  C162     1.0000 0.03668  0.39505  0.11450  Biso   1.000  C
  H111     1.0000 0.00250  0.40050  0.15600  Biso   1.000  H
  C163     1.0000 0.06439  0.35818  0.25670  Biso   1.000  C
  C164     1.0000 0.04129  0.32871  0.44670  Biso   1.000  C
  H112     1.0000 0.00680  0.33230  0.48570  Biso   1.000  H
  C165     1.0000 0.07031  0.29468  0.57330  Biso   1.000  C
  C166     1.0000 0.01244  0.24518  0.87190  Biso   1.000  C
  C167     1.0000 0.91948  0.21761  0.06500  Biso   1.000  C
  C168     1.0000 0.86977  0.20260  0.17570  Biso   1.000  C
  O31      1.0000 0.86980  0.18740  0.42420  Biso   1.000  O
  C169     1.0000 0.00950  0.22860  0.11880  Biso   1.000  C
  H113     1.0000 0.03900  0.22590  0.22070  Biso   1.000  H
  C170     1.0000 0.96290  0.21510  0.22670  Biso   1.000  C
  H114     1.0000 0.96040  0.20470  0.40250  Biso   1.000  H
  C171     1.0000 0.92230  0.23470  0.82170  Biso   1.000  C
  H115     1.0000 0.89260  0.23820  0.72200  Biso   1.000  H
  C172     1.0000 0.96830  0.24760  0.71180  Biso   1.000  C
  H116     1.0000 0.97050  0.25770  0.53540  Biso   1.000  H
  O32      1.0000 0.86708  0.16110  0.28550  Biso   1.000  O
  C173     1.0000 0.00560  0.19530  0.93750  Biso   1.000  C
  H117     1.0000 0.03190  0.17170  0.91950  Biso   1.000  H
  C174     1.0000 0.95940  0.18140  0.02960  Biso   1.000  C
  H118     1.0000 0.95340  0.14730  0.07100  Biso   1.000  H
  C175     1.0000 0.92820  0.26500  0.98920  Biso   1.000  C
  H119     1.0000 0.90160  0.28860  0.98980  Biso   1.000  H
  C176     1.0000 0.97590  0.28020  0.90950  Biso   1.000  C
  H120     1.0000 0.98290  0.31460  0.88180  Biso   1.000  H
