data_image0
_cell_length_a       22.3119
_cell_length_b       17.3774
_cell_length_c       10.1854
_cell_angle_alpha    90
_cell_angle_beta     110.295
_cell_angle_gamma    90

_symmetry_space_group_name_H-M    "P 1"
_symmetry_int_tables_number       1

loop_
  _symmetry_equiv_pos_as_xyz
  'x, y, z'

loop_
  _atom_site_label
  _atom_site_occupancy
  _atom_site_fract_x
  _atom_site_fract_y
  _atom_site_fract_z
  _atom_site_thermal_displace_type
  _atom_site_B_iso_or_equiv
  _atom_site_type_symbol
  Sr1      1.0000 0.33446  0.10099  0.52804  Biso   1.000  Sr
  P1       1.0000 0.47608  0.15365  0.46018  Biso   1.000  P
  O1       1.0000 0.45743  0.12420  0.58030  Biso   1.000  O
  C1       1.0000 0.56170  0.17330  0.51680  Biso   1.000  C
  P2       1.0000 0.60921  0.08607  0.57914  Biso   1.000  P
  O2       1.0000 0.45905  0.10170  0.33480  Biso   1.000  O
  C2       1.0000 0.57850  0.23300  0.63460  Biso   1.000  C
  H1       1.0000 0.57020  0.21190  0.71370  Biso   1.000  H
  H2       1.0000 0.55300  0.27830  0.60260  Biso   1.000  H
  H3       1.0000 0.62300  0.24610  0.66150  Biso   1.000  H
  P3       1.0000 0.19184  0.17692  0.59334  Biso   1.000  P
  O3       1.0000 0.44620  0.23510  0.41310  Biso   1.000  O
  H4       1.0000 0.41150  0.24080  0.42890  Biso   1.000  H
  C3       1.0000 0.16560  0.11150  0.44280  Biso   1.000  C
  P4       1.0000 0.18730  0.01105  0.47960  Biso   1.000  P
  O4       1.0000 0.59940  0.06350  0.71350  Biso   1.000  O
  C4       1.0000 0.09350  0.11830  0.36390  Biso   1.000  C
  H5       1.0000 0.08240  0.17140  0.34270  Biso   1.000  H
  H6       1.0000 0.07080  0.09840  0.42120  Biso   1.000  H
  H7       1.0000 0.08220  0.08930  0.27850  Biso   1.000  H
  O5       1.0000 0.59294  0.02770  0.46400  Biso   1.000  O
  O6       1.0000 0.68002  0.11160  0.60900  Biso   1.000  O
  O7       1.0000 0.25690  0.00600  0.55840  Biso   1.000  O
  O8       1.0000 0.16220  0.25430  0.54450  Biso   1.000  O
  O9       1.0000 0.20270  0.13560  0.35650  Biso   1.000  O
  H8       1.0000 0.19500  0.18080  0.33410  Biso   1.000  H
  O10      1.0000 0.16270  0.14820  0.70370  Biso   1.000  O
  H9       1.0000 0.17420  0.10380  0.72610  Biso   1.000  H
  O11      1.0000 0.14630  0.97910  0.56240  Biso   1.000  O
  H10      1.0000 0.15910  0.99710  0.64180  Biso   1.000  H
  O12      1.0000 0.26408  0.17570  0.64940  Biso   1.000  O
  O13      1.0000 0.57606  0.20650  0.40160  Biso   1.000  O
  H11      1.0000 0.56570  0.17600  0.33190  Biso   1.000  H
  O14      1.0000 0.16870  0.97870  0.33390  Biso   1.000  O
  O15      1.0000 0.15120  0.94920  0.38280  Biso   1.000  O
  Sr2      1.0000 0.83446  0.60099  0.52804  Biso   1.000  Sr
  P5       1.0000 0.97608  0.65365  0.46018  Biso   1.000  P
  O16      1.0000 0.95743  0.62420  0.58030  Biso   1.000  O
  C5       1.0000 0.06170  0.67330  0.51680  Biso   1.000  C
  P6       1.0000 0.10921  0.58607  0.57914  Biso   1.000  P
  O17      1.0000 0.95905  0.60170  0.33480  Biso   1.000  O
  C6       1.0000 0.07850  0.73300  0.63460  Biso   1.000  C
  H12      1.0000 0.07020  0.71190  0.71370  Biso   1.000  H
  H13      1.0000 0.05300  0.77830  0.60260  Biso   1.000  H
  H14      1.0000 0.12300  0.74610  0.66150  Biso   1.000  H
  P7       1.0000 0.69184  0.67692  0.59334  Biso   1.000  P
  O18      1.0000 0.94620  0.73510  0.41310  Biso   1.000  O
  H15      1.0000 0.91150  0.74080  0.42890  Biso   1.000  H
  C7       1.0000 0.66560  0.61150  0.44280  Biso   1.000  C
  P8       1.0000 0.68730  0.51105  0.47960  Biso   1.000  P
  O19      1.0000 0.09940  0.56350  0.71350  Biso   1.000  O
  C8       1.0000 0.59350  0.61830  0.36390  Biso   1.000  C
  H16      1.0000 0.58240  0.67140  0.34270  Biso   1.000  H
  H17      1.0000 0.57080  0.59840  0.42120  Biso   1.000  H
  H18      1.0000 0.58220  0.58930  0.27850  Biso   1.000  H
  O20      1.0000 0.09294  0.52770  0.46400  Biso   1.000  O
  O21      1.0000 0.18002  0.61160  0.60900  Biso   1.000  O
  O22      1.0000 0.75690  0.50600  0.55840  Biso   1.000  O
  O23      1.0000 0.66220  0.75430  0.54450  Biso   1.000  O
  O24      1.0000 0.70270  0.63560  0.35650  Biso   1.000  O
  H19      1.0000 0.69500  0.68080  0.33410  Biso   1.000  H
  O25      1.0000 0.66270  0.64820  0.70370  Biso   1.000  O
  H20      1.0000 0.67420  0.60380  0.72610  Biso   1.000  H
  O26      1.0000 0.64630  0.47910  0.56240  Biso   1.000  O
  H21      1.0000 0.65910  0.49710  0.64180  Biso   1.000  H
  O27      1.0000 0.76408  0.67570  0.64940  Biso   1.000  O
  O28      1.0000 0.07606  0.70650  0.40160  Biso   1.000  O
  H22      1.0000 0.06570  0.67600  0.33190  Biso   1.000  H
  O29      1.0000 0.66870  0.47870  0.33390  Biso   1.000  O
  O30      1.0000 0.65120  0.44920  0.38280  Biso   1.000  O
  Sr3      1.0000 0.66554  0.10099  0.97196  Biso   1.000  Sr
  P9       1.0000 0.52392  0.15365  0.03982  Biso   1.000  P
  O31      1.0000 0.54257  0.12420  0.91970  Biso   1.000  O
  C9       1.0000 0.43830  0.17330  0.98320  Biso   1.000  C
  P10      1.0000 0.39079  0.08607  0.92086  Biso   1.000  P
  O32      1.0000 0.54095  0.10170  0.16520  Biso   1.000  O
  C10      1.0000 0.42150  0.23300  0.86540  Biso   1.000  C
  H23      1.0000 0.42980  0.21190  0.78630  Biso   1.000  H
  H24      1.0000 0.44700  0.27830  0.89740  Biso   1.000  H
  H25      1.0000 0.37700  0.24610  0.83850  Biso   1.000  H
  P11      1.0000 0.80816  0.17692  0.90666  Biso   1.000  P
  O33      1.0000 0.55380  0.23510  0.08690  Biso   1.000  O
  H26      1.0000 0.58850  0.24080  0.07110  Biso   1.000  H
  C11      1.0000 0.83440  0.11150  0.05720  Biso   1.000  C
  P12      1.0000 0.81270  0.01105  0.02040  Biso   1.000  P
  O34      1.0000 0.40060  0.06350  0.78650  Biso   1.000  O
  C12      1.0000 0.90650  0.11830  0.13610  Biso   1.000  C
  H27      1.0000 0.91760  0.17140  0.15730  Biso   1.000  H
  H28      1.0000 0.92920  0.09840  0.07880  Biso   1.000  H
  H29      1.0000 0.91780  0.08930  0.22150  Biso   1.000  H
  O35      1.0000 0.40706  0.02770  0.03600  Biso   1.000  O
  O36      1.0000 0.31998  0.11160  0.89100  Biso   1.000  O
  O37      1.0000 0.74310  0.00600  0.94160  Biso   1.000  O
  O38      1.0000 0.83780  0.25430  0.95550  Biso   1.000  O
  O39      1.0000 0.79730  0.13560  0.14350  Biso   1.000  O
  H30      1.0000 0.80500  0.18080  0.16590  Biso   1.000  H
  O40      1.0000 0.83730  0.14820  0.79630  Biso   1.000  O
  H31      1.0000 0.82580  0.10380  0.77390  Biso   1.000  H
  O41      1.0000 0.85370  0.97910  0.93760  Biso   1.000  O
  H32      1.0000 0.84090  0.99710  0.85820  Biso   1.000  H
  O42      1.0000 0.73592  0.17570  0.85060  Biso   1.000  O
  O43      1.0000 0.42394  0.20650  0.09840  Biso   1.000  O
  H33      1.0000 0.43430  0.17600  0.16810  Biso   1.000  H
  O44      1.0000 0.83130  0.97870  0.16610  Biso   1.000  O
  O45      1.0000 0.84880  0.94920  0.11720  Biso   1.000  O
  Sr4      1.0000 0.16554  0.60099  0.97196  Biso   1.000  Sr
  P13      1.0000 0.02392  0.65365  0.03982  Biso   1.000  P
  O46      1.0000 0.04257  0.62420  0.91970  Biso   1.000  O
  C13      1.0000 0.93830  0.67330  0.98320  Biso   1.000  C
  P14      1.0000 0.89079  0.58607  0.92086  Biso   1.000  P
  O47      1.0000 0.04095  0.60170  0.16520  Biso   1.000  O
  C14      1.0000 0.92150  0.73300  0.86540  Biso   1.000  C
  H34      1.0000 0.92980  0.71190  0.78630  Biso   1.000  H
  H35      1.0000 0.94700  0.77830  0.89740  Biso   1.000  H
  H36      1.0000 0.87700  0.74610  0.83850  Biso   1.000  H
  P15      1.0000 0.30816  0.67692  0.90666  Biso   1.000  P
  O48      1.0000 0.05380  0.73510  0.08690  Biso   1.000  O
  H37      1.0000 0.08850  0.74080  0.07110  Biso   1.000  H
  C15      1.0000 0.33440  0.61150  0.05720  Biso   1.000  C
  P16      1.0000 0.31270  0.51105  0.02040  Biso   1.000  P
  O49      1.0000 0.90060  0.56350  0.78650  Biso   1.000  O
  C16      1.0000 0.40650  0.61830  0.13610  Biso   1.000  C
  H38      1.0000 0.41760  0.67140  0.15730  Biso   1.000  H
  H39      1.0000 0.42920  0.59840  0.07880  Biso   1.000  H
  H40      1.0000 0.41780  0.58930  0.22150  Biso   1.000  H
  O50      1.0000 0.90706  0.52770  0.03600  Biso   1.000  O
  O51      1.0000 0.81998  0.61160  0.89100  Biso   1.000  O
  O52      1.0000 0.24310  0.50600  0.94160  Biso   1.000  O
  O53      1.0000 0.33780  0.75430  0.95550  Biso   1.000  O
  O54      1.0000 0.29730  0.63560  0.14350  Biso   1.000  O
  H41      1.0000 0.30500  0.68080  0.16590  Biso   1.000  H
  O55      1.0000 0.33730  0.64820  0.79630  Biso   1.000  O
  H42      1.0000 0.32580  0.60380  0.77390  Biso   1.000  H
  O56      1.0000 0.35370  0.47910  0.93760  Biso   1.000  O
  H43      1.0000 0.34090  0.49710  0.85820  Biso   1.000  H
  O57      1.0000 0.23592  0.67570  0.85060  Biso   1.000  O
  O58      1.0000 0.92394  0.70650  0.09840  Biso   1.000  O
  H44      1.0000 0.93430  0.67600  0.16810  Biso   1.000  H
  O59      1.0000 0.33130  0.47870  0.16610  Biso   1.000  O
  O60      1.0000 0.34880  0.44920  0.11720  Biso   1.000  O
  Sr5      1.0000 0.66554  0.89901  0.47196  Biso   1.000  Sr
  P17      1.0000 0.52392  0.84635  0.53982  Biso   1.000  P
  O61      1.0000 0.54257  0.87580  0.41970  Biso   1.000  O
  C17      1.0000 0.43830  0.82670  0.48320  Biso   1.000  C
  P18      1.0000 0.39079  0.91393  0.42086  Biso   1.000  P
  O62      1.0000 0.54095  0.89830  0.66520  Biso   1.000  O
  C18      1.0000 0.42150  0.76700  0.36540  Biso   1.000  C
  H45      1.0000 0.42980  0.78810  0.28630  Biso   1.000  H
  H46      1.0000 0.44700  0.72170  0.39740  Biso   1.000  H
  H47      1.0000 0.37700  0.75390  0.33850  Biso   1.000  H
  P19      1.0000 0.80816  0.82308  0.40666  Biso   1.000  P
  O63      1.0000 0.55380  0.76490  0.58690  Biso   1.000  O
  H48      1.0000 0.58850  0.75920  0.57110  Biso   1.000  H
  C19      1.0000 0.83440  0.88850  0.55720  Biso   1.000  C
  P20      1.0000 0.81270  0.98895  0.52040  Biso   1.000  P
  O64      1.0000 0.40060  0.93650  0.28650  Biso   1.000  O
  C20      1.0000 0.90650  0.88170  0.63610  Biso   1.000  C
  H49      1.0000 0.91760  0.82860  0.65730  Biso   1.000  H
  H50      1.0000 0.92920  0.90160  0.57880  Biso   1.000  H
  H51      1.0000 0.91780  0.91070  0.72150  Biso   1.000  H
  O65      1.0000 0.40706  0.97230  0.53600  Biso   1.000  O
  O66      1.0000 0.31998  0.88840  0.39100  Biso   1.000  O
  O67      1.0000 0.74310  0.99400  0.44160  Biso   1.000  O
  O68      1.0000 0.83780  0.74570  0.45550  Biso   1.000  O
  O69      1.0000 0.79730  0.86440  0.64350  Biso   1.000  O
  H52      1.0000 0.80500  0.81920  0.66590  Biso   1.000  H
  O70      1.0000 0.83730  0.85180  0.29630  Biso   1.000  O
  H53      1.0000 0.82580  0.89620  0.27390  Biso   1.000  H
  O71      1.0000 0.85370  0.02090  0.43760  Biso   1.000  O
  H54      1.0000 0.84090  0.00290  0.35820  Biso   1.000  H
  O72      1.0000 0.73592  0.82430  0.35060  Biso   1.000  O
  O73      1.0000 0.42394  0.79350  0.59840  Biso   1.000  O
  H55      1.0000 0.43430  0.82400  0.66810  Biso   1.000  H
  O74      1.0000 0.83130  0.02130  0.66610  Biso   1.000  O
  O75      1.0000 0.84880  0.05080  0.61720  Biso   1.000  O
  Sr6      1.0000 0.16554  0.39901  0.47196  Biso   1.000  Sr
  P21      1.0000 0.02392  0.34635  0.53982  Biso   1.000  P
  O76      1.0000 0.04257  0.37580  0.41970  Biso   1.000  O
  C21      1.0000 0.93830  0.32670  0.48320  Biso   1.000  C
  P22      1.0000 0.89079  0.41393  0.42086  Biso   1.000  P
  O77      1.0000 0.04095  0.39830  0.66520  Biso   1.000  O
  C22      1.0000 0.92150  0.26700  0.36540  Biso   1.000  C
  H56      1.0000 0.92980  0.28810  0.28630  Biso   1.000  H
  H57      1.0000 0.94700  0.22170  0.39740  Biso   1.000  H
  H58      1.0000 0.87700  0.25390  0.33850  Biso   1.000  H
  P23      1.0000 0.30816  0.32308  0.40666  Biso   1.000  P
  O78      1.0000 0.05380  0.26490  0.58690  Biso   1.000  O
  H59      1.0000 0.08850  0.25920  0.57110  Biso   1.000  H
  C23      1.0000 0.33440  0.38850  0.55720  Biso   1.000  C
  P24      1.0000 0.31270  0.48895  0.52040  Biso   1.000  P
  O79      1.0000 0.90060  0.43650  0.28650  Biso   1.000  O
  C24      1.0000 0.40650  0.38170  0.63610  Biso   1.000  C
  H60      1.0000 0.41760  0.32860  0.65730  Biso   1.000  H
  H61      1.0000 0.42920  0.40160  0.57880  Biso   1.000  H
  H62      1.0000 0.41780  0.41070  0.72150  Biso   1.000  H
  O80      1.0000 0.90706  0.47230  0.53600  Biso   1.000  O
  O81      1.0000 0.81998  0.38840  0.39100  Biso   1.000  O
  O82      1.0000 0.24310  0.49400  0.44160  Biso   1.000  O
  O83      1.0000 0.33780  0.24570  0.45550  Biso   1.000  O
  O84      1.0000 0.29730  0.36440  0.64350  Biso   1.000  O
  H63      1.0000 0.30500  0.31920  0.66590  Biso   1.000  H
  O85      1.0000 0.33730  0.35180  0.29630  Biso   1.000  O
  H64      1.0000 0.32580  0.39620  0.27390  Biso   1.000  H
  O86      1.0000 0.35370  0.52090  0.43760  Biso   1.000  O
  H65      1.0000 0.34090  0.50290  0.35820  Biso   1.000  H
  O87      1.0000 0.23592  0.32430  0.35060  Biso   1.000  O
  O88      1.0000 0.92394  0.29350  0.59840  Biso   1.000  O
  H66      1.0000 0.93430  0.32400  0.66810  Biso   1.000  H
  O89      1.0000 0.33130  0.52130  0.66610  Biso   1.000  O
  O90      1.0000 0.34880  0.55080  0.61720  Biso   1.000  O
  Sr7      1.0000 0.33446  0.89901  0.02804  Biso   1.000  Sr
  P25      1.0000 0.47608  0.84635  0.96018  Biso   1.000  P
  O91      1.0000 0.45743  0.87580  0.08030  Biso   1.000  O
  C25      1.0000 0.56170  0.82670  0.01680  Biso   1.000  C
  P26      1.0000 0.60921  0.91393  0.07914  Biso   1.000  P
  O92      1.0000 0.45905  0.89830  0.83480  Biso   1.000  O
  C26      1.0000 0.57850  0.76700  0.13460  Biso   1.000  C
  H67      1.0000 0.57020  0.78810  0.21370  Biso   1.000  H
  H68      1.0000 0.55300  0.72170  0.10260  Biso   1.000  H
  H69      1.0000 0.62300  0.75390  0.16150  Biso   1.000  H
  P27      1.0000 0.19184  0.82308  0.09334  Biso   1.000  P
  O93      1.0000 0.44620  0.76490  0.91310  Biso   1.000  O
  H70      1.0000 0.41150  0.75920  0.92890  Biso   1.000  H
  C27      1.0000 0.16560  0.88850  0.94280  Biso   1.000  C
  P28      1.0000 0.18730  0.98895  0.97960  Biso   1.000  P
  O94      1.0000 0.59940  0.93650  0.21350  Biso   1.000  O
  C28      1.0000 0.09350  0.88170  0.86390  Biso   1.000  C
  H71      1.0000 0.08240  0.82860  0.84270  Biso   1.000  H
  H72      1.0000 0.07080  0.90160  0.92120  Biso   1.000  H
  H73      1.0000 0.08220  0.91070  0.77850  Biso   1.000  H
  O95      1.0000 0.59294  0.97230  0.96400  Biso   1.000  O
  O96      1.0000 0.68002  0.88840  0.10900  Biso   1.000  O
  O97      1.0000 0.25690  0.99400  0.05840  Biso   1.000  O
  O98      1.0000 0.16220  0.74570  0.04450  Biso   1.000  O
  O99      1.0000 0.20270  0.86440  0.85650  Biso   1.000  O
  H74      1.0000 0.19500  0.81920  0.83410  Biso   1.000  H
  O100     1.0000 0.16270  0.85180  0.20370  Biso   1.000  O
  H75      1.0000 0.17420  0.89620  0.22610  Biso   1.000  H
  O101     1.0000 0.14630  0.02090  0.06240  Biso   1.000  O
  H76      1.0000 0.15910  0.00290  0.14180  Biso   1.000  H
  O102     1.0000 0.26408  0.82430  0.14940  Biso   1.000  O
  O103     1.0000 0.57606  0.79350  0.90160  Biso   1.000  O
  H77      1.0000 0.56570  0.82400  0.83190  Biso   1.000  H
  O104     1.0000 0.16870  0.02130  0.83390  Biso   1.000  O
  O105     1.0000 0.15120  0.05080  0.88280  Biso   1.000  O
  Sr8      1.0000 0.83446  0.39901  0.02804  Biso   1.000  Sr
  P29      1.0000 0.97608  0.34635  0.96018  Biso   1.000  P
  O106     1.0000 0.95743  0.37580  0.08030  Biso   1.000  O
  C29      1.0000 0.06170  0.32670  0.01680  Biso   1.000  C
  P30      1.0000 0.10921  0.41393  0.07914  Biso   1.000  P
  O107     1.0000 0.95905  0.39830  0.83480  Biso   1.000  O
  C30      1.0000 0.07850  0.26700  0.13460  Biso   1.000  C
  H78      1.0000 0.07020  0.28810  0.21370  Biso   1.000  H
  H79      1.0000 0.05300  0.22170  0.10260  Biso   1.000  H
  H80      1.0000 0.12300  0.25390  0.16150  Biso   1.000  H
  P31      1.0000 0.69184  0.32308  0.09334  Biso   1.000  P
  O108     1.0000 0.94620  0.26490  0.91310  Biso   1.000  O
  H81      1.0000 0.91150  0.25920  0.92890  Biso   1.000  H
  C31      1.0000 0.66560  0.38850  0.94280  Biso   1.000  C
  P32      1.0000 0.68730  0.48895  0.97960  Biso   1.000  P
  O109     1.0000 0.09940  0.43650  0.21350  Biso   1.000  O
  C32      1.0000 0.59350  0.38170  0.86390  Biso   1.000  C
  H82      1.0000 0.58240  0.32860  0.84270  Biso   1.000  H
  H83      1.0000 0.57080  0.40160  0.92120  Biso   1.000  H
  H84      1.0000 0.58220  0.41070  0.77850  Biso   1.000  H
  O110     1.0000 0.09294  0.47230  0.96400  Biso   1.000  O
  O111     1.0000 0.18002  0.38840  0.10900  Biso   1.000  O
  O112     1.0000 0.75690  0.49400  0.05840  Biso   1.000  O
  O113     1.0000 0.66220  0.24570  0.04450  Biso   1.000  O
  O114     1.0000 0.70270  0.36440  0.85650  Biso   1.000  O
  H85      1.0000 0.69500  0.31920  0.83410  Biso   1.000  H
  O115     1.0000 0.66270  0.35180  0.20370  Biso   1.000  O
  H86      1.0000 0.67420  0.39620  0.22610  Biso   1.000  H
  O116     1.0000 0.64630  0.52090  0.06240  Biso   1.000  O
  H87      1.0000 0.65910  0.50290  0.14180  Biso   1.000  H
  O117     1.0000 0.76408  0.32430  0.14940  Biso   1.000  O
  O118     1.0000 0.07606  0.29350  0.90160  Biso   1.000  O
  H88      1.0000 0.06570  0.32400  0.83190  Biso   1.000  H
  O119     1.0000 0.66870  0.52130  0.83390  Biso   1.000  O
  O120     1.0000 0.65120  0.55080  0.88280  Biso   1.000  O
  Sr9      1.0000 0.50000  0.01304  0.75000  Biso   1.000  Sr
  Sr10     1.0000 0.00000  0.51304  0.75000  Biso   1.000  Sr
  Sr11     1.0000 0.50000  0.98696  0.25000  Biso   1.000  Sr
  Sr12     1.0000 0.00000  0.48696  0.25000  Biso   1.000  Sr
