data_image0
_cell_length_a       22.2858
_cell_length_b       17.371
_cell_length_c       10.1701
_cell_angle_alpha    90
_cell_angle_beta     110.425
_cell_angle_gamma    90

_symmetry_space_group_name_H-M    "P 1"
_symmetry_int_tables_number       1

loop_
  _symmetry_equiv_pos_as_xyz
  'x, y, z'

loop_
  _atom_site_label
  _atom_site_occupancy
  _atom_site_fract_x
  _atom_site_fract_y
  _atom_site_fract_z
  _atom_site_thermal_displace_type
  _atom_site_B_iso_or_equiv
  _atom_site_type_symbol
  Sr1      1.0000 0.33399  0.09999  0.52781  Biso   1.000  Sr
  P1       1.0000 0.47612  0.15303  0.46067  Biso   1.000  P
  O1       1.0000 0.45770  0.12310  0.58090  Biso   1.000  O
  C1       1.0000 0.56170  0.17320  0.51730  Biso   1.000  C
  P2       1.0000 0.60918  0.08554  0.57937  Biso   1.000  P
  O2       1.0000 0.45920  0.10050  0.33510  Biso   1.000  O
  C2       1.0000 0.57880  0.23240  0.63600  Biso   1.000  C
  H1       1.0000 0.57030  0.21110  0.71490  Biso   1.000  H
  H2       1.0000 0.55340  0.27790  0.60430  Biso   1.000  H
  H3       1.0000 0.62330  0.24540  0.66330  Biso   1.000  H
  P3       1.0000 0.19124  0.17668  0.59160  Biso   1.000  P
  O3       1.0000 0.44590  0.23390  0.41250  Biso   1.000  O
  H4       1.0000 0.41120  0.23970  0.42830  Biso   1.000  H
  C3       1.0000 0.16460  0.11010  0.44260  Biso   1.000  C
  P4       1.0000 0.18634  0.00981  0.48340  Biso   1.000  P
  O4       1.0000 0.59940  0.06260  0.71320  Biso   1.000  O
  C4       1.0000 0.09250  0.11670  0.36240  Biso   1.000  C
  H5       1.0000 0.08130  0.16980  0.34110  Biso   1.000  H
  H6       1.0000 0.06950  0.09670  0.41900  Biso   1.000  H
  H7       1.0000 0.08140  0.08780  0.27670  Biso   1.000  H
  O5       1.0000 0.59260  0.02780  0.46290  Biso   1.000  O
  O6       1.0000 0.68030  0.11070  0.61020  Biso   1.000  O
  O7       1.0000 0.25650  0.00500  0.55900  Biso   1.000  O
  O8       1.0000 0.16190  0.25390  0.54110  Biso   1.000  O
  O9       1.0000 0.20160  0.13250  0.35570  Biso   1.000  O
  H8       1.0000 0.19440  0.17770  0.33250  Biso   1.000  H
  O10      1.0000 0.16210  0.14890  0.70290  Biso   1.000  O
  H9       1.0000 0.17340  0.10440  0.72580  Biso   1.000  H
  O11      1.0000 0.14630  0.97980  0.56840  Biso   1.000  O
  H10      1.0000 0.15970  0.99840  0.64740  Biso   1.000  H
  O12      1.0000 0.26350  0.17490  0.64830  Biso   1.000  O
  O13      1.0000 0.57610  0.20670  0.40280  Biso   1.000  O
  H11      1.0000 0.56580  0.17620  0.33310  Biso   1.000  H
  O14      1.0000 0.16870  0.97840  0.33700  Biso   1.000  O
  O15      1.0000 0.14990  0.94920  0.38360  Biso   1.000  O
  Sr2      1.0000 0.83399  0.59999  0.52781  Biso   1.000  Sr
  P5       1.0000 0.97612  0.65303  0.46067  Biso   1.000  P
  O16      1.0000 0.95770  0.62310  0.58090  Biso   1.000  O
  C5       1.0000 0.06170  0.67320  0.51730  Biso   1.000  C
  P6       1.0000 0.10918  0.58554  0.57937  Biso   1.000  P
  O17      1.0000 0.95920  0.60050  0.33510  Biso   1.000  O
  C6       1.0000 0.07880  0.73240  0.63600  Biso   1.000  C
  H12      1.0000 0.07030  0.71110  0.71490  Biso   1.000  H
  H13      1.0000 0.05340  0.77790  0.60430  Biso   1.000  H
  H14      1.0000 0.12330  0.74540  0.66330  Biso   1.000  H
  P7       1.0000 0.69124  0.67668  0.59160  Biso   1.000  P
  O18      1.0000 0.94590  0.73390  0.41250  Biso   1.000  O
  H15      1.0000 0.91120  0.73970  0.42830  Biso   1.000  H
  C7       1.0000 0.66460  0.61010  0.44260  Biso   1.000  C
  P8       1.0000 0.68634  0.50981  0.48340  Biso   1.000  P
  O19      1.0000 0.09940  0.56260  0.71320  Biso   1.000  O
  C8       1.0000 0.59250  0.61670  0.36240  Biso   1.000  C
  H16      1.0000 0.58130  0.66980  0.34110  Biso   1.000  H
  H17      1.0000 0.56950  0.59670  0.41900  Biso   1.000  H
  H18      1.0000 0.58140  0.58780  0.27670  Biso   1.000  H
  O20      1.0000 0.09260  0.52780  0.46290  Biso   1.000  O
  O21      1.0000 0.18030  0.61070  0.61020  Biso   1.000  O
  O22      1.0000 0.75650  0.50500  0.55900  Biso   1.000  O
  O23      1.0000 0.66190  0.75390  0.54110  Biso   1.000  O
  O24      1.0000 0.70160  0.63250  0.35570  Biso   1.000  O
  H19      1.0000 0.69440  0.67770  0.33250  Biso   1.000  H
  O25      1.0000 0.66210  0.64890  0.70290  Biso   1.000  O
  H20      1.0000 0.67340  0.60440  0.72580  Biso   1.000  H
  O26      1.0000 0.64630  0.47980  0.56840  Biso   1.000  O
  H21      1.0000 0.65970  0.49840  0.64740  Biso   1.000  H
  O27      1.0000 0.76350  0.67490  0.64830  Biso   1.000  O
  O28      1.0000 0.07610  0.70670  0.40280  Biso   1.000  O
  H22      1.0000 0.06580  0.67620  0.33310  Biso   1.000  H
  O29      1.0000 0.66870  0.47840  0.33700  Biso   1.000  O
  O30      1.0000 0.64990  0.44920  0.38360  Biso   1.000  O
  Sr3      1.0000 0.66601  0.09999  0.97219  Biso   1.000  Sr
  P9       1.0000 0.52388  0.15303  0.03933  Biso   1.000  P
  O31      1.0000 0.54230  0.12310  0.91910  Biso   1.000  O
  C9       1.0000 0.43830  0.17320  0.98270  Biso   1.000  C
  P10      1.0000 0.39082  0.08554  0.92063  Biso   1.000  P
  O32      1.0000 0.54080  0.10050  0.16490  Biso   1.000  O
  C10      1.0000 0.42120  0.23240  0.86400  Biso   1.000  C
  H23      1.0000 0.42970  0.21110  0.78510  Biso   1.000  H
  H24      1.0000 0.44660  0.27790  0.89570  Biso   1.000  H
  H25      1.0000 0.37670  0.24540  0.83670  Biso   1.000  H
  P11      1.0000 0.80876  0.17668  0.90840  Biso   1.000  P
  O33      1.0000 0.55410  0.23390  0.08750  Biso   1.000  O
  H26      1.0000 0.58880  0.23970  0.07170  Biso   1.000  H
  C11      1.0000 0.83540  0.11010  0.05740  Biso   1.000  C
  P12      1.0000 0.81366  0.00981  0.01660  Biso   1.000  P
  O34      1.0000 0.40060  0.06260  0.78680  Biso   1.000  O
  C12      1.0000 0.90750  0.11670  0.13760  Biso   1.000  C
  H27      1.0000 0.91870  0.16980  0.15890  Biso   1.000  H
  H28      1.0000 0.93050  0.09670  0.08100  Biso   1.000  H
  H29      1.0000 0.91860  0.08780  0.22330  Biso   1.000  H
  O35      1.0000 0.40740  0.02780  0.03710  Biso   1.000  O
  O36      1.0000 0.31970  0.11070  0.88980  Biso   1.000  O
  O37      1.0000 0.74350  0.00500  0.94100  Biso   1.000  O
  O38      1.0000 0.83810  0.25390  0.95890  Biso   1.000  O
  O39      1.0000 0.79840  0.13250  0.14430  Biso   1.000  O
  H30      1.0000 0.80560  0.17770  0.16750  Biso   1.000  H
  O40      1.0000 0.83790  0.14890  0.79710  Biso   1.000  O
  H31      1.0000 0.82660  0.10440  0.77420  Biso   1.000  H
  O41      1.0000 0.85370  0.97980  0.93160  Biso   1.000  O
  H32      1.0000 0.84030  0.99840  0.85260  Biso   1.000  H
  O42      1.0000 0.73650  0.17490  0.85170  Biso   1.000  O
  O43      1.0000 0.42390  0.20670  0.09720  Biso   1.000  O
  H33      1.0000 0.43420  0.17620  0.16690  Biso   1.000  H
  O44      1.0000 0.83130  0.97840  0.16300  Biso   1.000  O
  O45      1.0000 0.85010  0.94920  0.11640  Biso   1.000  O
  Sr4      1.0000 0.16601  0.59999  0.97219  Biso   1.000  Sr
  P13      1.0000 0.02388  0.65303  0.03933  Biso   1.000  P
  O46      1.0000 0.04230  0.62310  0.91910  Biso   1.000  O
  C13      1.0000 0.93830  0.67320  0.98270  Biso   1.000  C
  P14      1.0000 0.89082  0.58554  0.92063  Biso   1.000  P
  O47      1.0000 0.04080  0.60050  0.16490  Biso   1.000  O
  C14      1.0000 0.92120  0.73240  0.86400  Biso   1.000  C
  H34      1.0000 0.92970  0.71110  0.78510  Biso   1.000  H
  H35      1.0000 0.94660  0.77790  0.89570  Biso   1.000  H
  H36      1.0000 0.87670  0.74540  0.83670  Biso   1.000  H
  P15      1.0000 0.30876  0.67668  0.90840  Biso   1.000  P
  O48      1.0000 0.05410  0.73390  0.08750  Biso   1.000  O
  H37      1.0000 0.08880  0.73970  0.07170  Biso   1.000  H
  C15      1.0000 0.33540  0.61010  0.05740  Biso   1.000  C
  P16      1.0000 0.31366  0.50981  0.01660  Biso   1.000  P
  O49      1.0000 0.90060  0.56260  0.78680  Biso   1.000  O
  C16      1.0000 0.40750  0.61670  0.13760  Biso   1.000  C
  H38      1.0000 0.41870  0.66980  0.15890  Biso   1.000  H
  H39      1.0000 0.43050  0.59670  0.08100  Biso   1.000  H
  H40      1.0000 0.41860  0.58780  0.22330  Biso   1.000  H
  O50      1.0000 0.90740  0.52780  0.03710  Biso   1.000  O
  O51      1.0000 0.81970  0.61070  0.88980  Biso   1.000  O
  O52      1.0000 0.24350  0.50500  0.94100  Biso   1.000  O
  O53      1.0000 0.33810  0.75390  0.95890  Biso   1.000  O
  O54      1.0000 0.29840  0.63250  0.14430  Biso   1.000  O
  H41      1.0000 0.30560  0.67770  0.16750  Biso   1.000  H
  O55      1.0000 0.33790  0.64890  0.79710  Biso   1.000  O
  H42      1.0000 0.32660  0.60440  0.77420  Biso   1.000  H
  O56      1.0000 0.35370  0.47980  0.93160  Biso   1.000  O
  H43      1.0000 0.34030  0.49840  0.85260  Biso   1.000  H
  O57      1.0000 0.23650  0.67490  0.85170  Biso   1.000  O
  O58      1.0000 0.92390  0.70670  0.09720  Biso   1.000  O
  H44      1.0000 0.93420  0.67620  0.16690  Biso   1.000  H
  O59      1.0000 0.33130  0.47840  0.16300  Biso   1.000  O
  O60      1.0000 0.35010  0.44920  0.11640  Biso   1.000  O
  Sr5      1.0000 0.66601  0.90001  0.47219  Biso   1.000  Sr
  P17      1.0000 0.52388  0.84697  0.53933  Biso   1.000  P
  O61      1.0000 0.54230  0.87690  0.41910  Biso   1.000  O
  C17      1.0000 0.43830  0.82680  0.48270  Biso   1.000  C
  P18      1.0000 0.39082  0.91446  0.42063  Biso   1.000  P
  O62      1.0000 0.54080  0.89950  0.66490  Biso   1.000  O
  C18      1.0000 0.42120  0.76760  0.36400  Biso   1.000  C
  H45      1.0000 0.42970  0.78890  0.28510  Biso   1.000  H
  H46      1.0000 0.44660  0.72210  0.39570  Biso   1.000  H
  H47      1.0000 0.37670  0.75460  0.33670  Biso   1.000  H
  P19      1.0000 0.80876  0.82332  0.40840  Biso   1.000  P
  O63      1.0000 0.55410  0.76610  0.58750  Biso   1.000  O
  H48      1.0000 0.58880  0.76030  0.57170  Biso   1.000  H
  C19      1.0000 0.83540  0.88990  0.55740  Biso   1.000  C
  P20      1.0000 0.81366  0.99019  0.51660  Biso   1.000  P
  O64      1.0000 0.40060  0.93740  0.28680  Biso   1.000  O
  C20      1.0000 0.90750  0.88330  0.63760  Biso   1.000  C
  H49      1.0000 0.91870  0.83020  0.65890  Biso   1.000  H
  H50      1.0000 0.93050  0.90330  0.58100  Biso   1.000  H
  H51      1.0000 0.91860  0.91220  0.72330  Biso   1.000  H
  O65      1.0000 0.40740  0.97220  0.53710  Biso   1.000  O
  O66      1.0000 0.31970  0.88930  0.38980  Biso   1.000  O
  O67      1.0000 0.74350  0.99500  0.44100  Biso   1.000  O
  O68      1.0000 0.83810  0.74610  0.45890  Biso   1.000  O
  O69      1.0000 0.79840  0.86750  0.64430  Biso   1.000  O
  H52      1.0000 0.80560  0.82230  0.66750  Biso   1.000  H
  O70      1.0000 0.83790  0.85110  0.29710  Biso   1.000  O
  H53      1.0000 0.82660  0.89560  0.27420  Biso   1.000  H
  O71      1.0000 0.85370  0.02020  0.43160  Biso   1.000  O
  H54      1.0000 0.84030  0.00160  0.35260  Biso   1.000  H
  O72      1.0000 0.73650  0.82510  0.35170  Biso   1.000  O
  O73      1.0000 0.42390  0.79330  0.59720  Biso   1.000  O
  H55      1.0000 0.43420  0.82380  0.66690  Biso   1.000  H
  O74      1.0000 0.83130  0.02160  0.66300  Biso   1.000  O
  O75      1.0000 0.85010  0.05080  0.61640  Biso   1.000  O
  Sr6      1.0000 0.16601  0.40001  0.47219  Biso   1.000  Sr
  P21      1.0000 0.02388  0.34697  0.53933  Biso   1.000  P
  O76      1.0000 0.04230  0.37690  0.41910  Biso   1.000  O
  C21      1.0000 0.93830  0.32680  0.48270  Biso   1.000  C
  P22      1.0000 0.89082  0.41446  0.42063  Biso   1.000  P
  O77      1.0000 0.04080  0.39950  0.66490  Biso   1.000  O
  C22      1.0000 0.92120  0.26760  0.36400  Biso   1.000  C
  H56      1.0000 0.92970  0.28890  0.28510  Biso   1.000  H
  H57      1.0000 0.94660  0.22210  0.39570  Biso   1.000  H
  H58      1.0000 0.87670  0.25460  0.33670  Biso   1.000  H
  P23      1.0000 0.30876  0.32332  0.40840  Biso   1.000  P
  O78      1.0000 0.05410  0.26610  0.58750  Biso   1.000  O
  H59      1.0000 0.08880  0.26030  0.57170  Biso   1.000  H
  C23      1.0000 0.33540  0.38990  0.55740  Biso   1.000  C
  P24      1.0000 0.31366  0.49019  0.51660  Biso   1.000  P
  O79      1.0000 0.90060  0.43740  0.28680  Biso   1.000  O
  C24      1.0000 0.40750  0.38330  0.63760  Biso   1.000  C
  H60      1.0000 0.41870  0.33020  0.65890  Biso   1.000  H
  H61      1.0000 0.43050  0.40330  0.58100  Biso   1.000  H
  H62      1.0000 0.41860  0.41220  0.72330  Biso   1.000  H
  O80      1.0000 0.90740  0.47220  0.53710  Biso   1.000  O
  O81      1.0000 0.81970  0.38930  0.38980  Biso   1.000  O
  O82      1.0000 0.24350  0.49500  0.44100  Biso   1.000  O
  O83      1.0000 0.33810  0.24610  0.45890  Biso   1.000  O
  O84      1.0000 0.29840  0.36750  0.64430  Biso   1.000  O
  H63      1.0000 0.30560  0.32230  0.66750  Biso   1.000  H
  O85      1.0000 0.33790  0.35110  0.29710  Biso   1.000  O
  H64      1.0000 0.32660  0.39560  0.27420  Biso   1.000  H
  O86      1.0000 0.35370  0.52020  0.43160  Biso   1.000  O
  H65      1.0000 0.34030  0.50160  0.35260  Biso   1.000  H
  O87      1.0000 0.23650  0.32510  0.35170  Biso   1.000  O
  O88      1.0000 0.92390  0.29330  0.59720  Biso   1.000  O
  H66      1.0000 0.93420  0.32380  0.66690  Biso   1.000  H
  O89      1.0000 0.33130  0.52160  0.66300  Biso   1.000  O
  O90      1.0000 0.35010  0.55080  0.61640  Biso   1.000  O
  Sr7      1.0000 0.33399  0.90001  0.02781  Biso   1.000  Sr
  P25      1.0000 0.47612  0.84697  0.96067  Biso   1.000  P
  O91      1.0000 0.45770  0.87690  0.08090  Biso   1.000  O
  C25      1.0000 0.56170  0.82680  0.01730  Biso   1.000  C
  P26      1.0000 0.60918  0.91446  0.07937  Biso   1.000  P
  O92      1.0000 0.45920  0.89950  0.83510  Biso   1.000  O
  C26      1.0000 0.57880  0.76760  0.13600  Biso   1.000  C
  H67      1.0000 0.57030  0.78890  0.21490  Biso   1.000  H
  H68      1.0000 0.55340  0.72210  0.10430  Biso   1.000  H
  H69      1.0000 0.62330  0.75460  0.16330  Biso   1.000  H
  P27      1.0000 0.19124  0.82332  0.09160  Biso   1.000  P
  O93      1.0000 0.44590  0.76610  0.91250  Biso   1.000  O
  H70      1.0000 0.41120  0.76030  0.92830  Biso   1.000  H
  C27      1.0000 0.16460  0.88990  0.94260  Biso   1.000  C
  P28      1.0000 0.18634  0.99019  0.98340  Biso   1.000  P
  O94      1.0000 0.59940  0.93740  0.21320  Biso   1.000  O
  C28      1.0000 0.09250  0.88330  0.86240  Biso   1.000  C
  H71      1.0000 0.08130  0.83020  0.84110  Biso   1.000  H
  H72      1.0000 0.06950  0.90330  0.91900  Biso   1.000  H
  H73      1.0000 0.08140  0.91220  0.77670  Biso   1.000  H
  O95      1.0000 0.59260  0.97220  0.96290  Biso   1.000  O
  O96      1.0000 0.68030  0.88930  0.11020  Biso   1.000  O
  O97      1.0000 0.25650  0.99500  0.05900  Biso   1.000  O
  O98      1.0000 0.16190  0.74610  0.04110  Biso   1.000  O
  O99      1.0000 0.20160  0.86750  0.85570  Biso   1.000  O
  H74      1.0000 0.19440  0.82230  0.83250  Biso   1.000  H
  O100     1.0000 0.16210  0.85110  0.20290  Biso   1.000  O
  H75      1.0000 0.17340  0.89560  0.22580  Biso   1.000  H
  O101     1.0000 0.14630  0.02020  0.06840  Biso   1.000  O
  H76      1.0000 0.15970  0.00160  0.14740  Biso   1.000  H
  O102     1.0000 0.26350  0.82510  0.14830  Biso   1.000  O
  O103     1.0000 0.57610  0.79330  0.90280  Biso   1.000  O
  H77      1.0000 0.56580  0.82380  0.83310  Biso   1.000  H
  O104     1.0000 0.16870  0.02160  0.83700  Biso   1.000  O
  O105     1.0000 0.14990  0.05080  0.88360  Biso   1.000  O
  Sr8      1.0000 0.83399  0.40001  0.02781  Biso   1.000  Sr
  P29      1.0000 0.97612  0.34697  0.96067  Biso   1.000  P
  O106     1.0000 0.95770  0.37690  0.08090  Biso   1.000  O
  C29      1.0000 0.06170  0.32680  0.01730  Biso   1.000  C
  P30      1.0000 0.10918  0.41446  0.07937  Biso   1.000  P
  O107     1.0000 0.95920  0.39950  0.83510  Biso   1.000  O
  C30      1.0000 0.07880  0.26760  0.13600  Biso   1.000  C
  H78      1.0000 0.07030  0.28890  0.21490  Biso   1.000  H
  H79      1.0000 0.05340  0.22210  0.10430  Biso   1.000  H
  H80      1.0000 0.12330  0.25460  0.16330  Biso   1.000  H
  P31      1.0000 0.69124  0.32332  0.09160  Biso   1.000  P
  O108     1.0000 0.94590  0.26610  0.91250  Biso   1.000  O
  H81      1.0000 0.91120  0.26030  0.92830  Biso   1.000  H
  C31      1.0000 0.66460  0.38990  0.94260  Biso   1.000  C
  P32      1.0000 0.68634  0.49019  0.98340  Biso   1.000  P
  O109     1.0000 0.09940  0.43740  0.21320  Biso   1.000  O
  C32      1.0000 0.59250  0.38330  0.86240  Biso   1.000  C
  H82      1.0000 0.58130  0.33020  0.84110  Biso   1.000  H
  H83      1.0000 0.56950  0.40330  0.91900  Biso   1.000  H
  H84      1.0000 0.58140  0.41220  0.77670  Biso   1.000  H
  O110     1.0000 0.09260  0.47220  0.96290  Biso   1.000  O
  O111     1.0000 0.18030  0.38930  0.11020  Biso   1.000  O
  O112     1.0000 0.75650  0.49500  0.05900  Biso   1.000  O
  O113     1.0000 0.66190  0.24610  0.04110  Biso   1.000  O
  O114     1.0000 0.70160  0.36750  0.85570  Biso   1.000  O
  H85      1.0000 0.69440  0.32230  0.83250  Biso   1.000  H
  O115     1.0000 0.66210  0.35110  0.20290  Biso   1.000  O
  H86      1.0000 0.67340  0.39560  0.22580  Biso   1.000  H
  O116     1.0000 0.64630  0.52020  0.06840  Biso   1.000  O
  H87      1.0000 0.65970  0.50160  0.14740  Biso   1.000  H
  O117     1.0000 0.76350  0.32510  0.14830  Biso   1.000  O
  O118     1.0000 0.07610  0.29330  0.90280  Biso   1.000  O
  H88      1.0000 0.06580  0.32380  0.83310  Biso   1.000  H
  O119     1.0000 0.66870  0.52160  0.83700  Biso   1.000  O
  O120     1.0000 0.64990  0.55080  0.88360  Biso   1.000  O
  Sr9      1.0000 0.50000  0.01286  0.75000  Biso   1.000  Sr
  Sr10     1.0000 0.00000  0.51286  0.75000  Biso   1.000  Sr
  Sr11     1.0000 0.50000  0.98714  0.25000  Biso   1.000  Sr
  Sr12     1.0000 0.00000  0.48714  0.25000  Biso   1.000  Sr
