data_image0
_cell_length_a       10.906
_cell_length_b       10.906
_cell_length_c       22.456
_cell_angle_alpha    90
_cell_angle_beta     90
_cell_angle_gamma    90

_symmetry_space_group_name_H-M    "P 1"
_symmetry_int_tables_number       1

loop_
  _symmetry_equiv_pos_as_xyz
  'x, y, z'

loop_
  _atom_site_label
  _atom_site_occupancy
  _atom_site_fract_x
  _atom_site_fract_y
  _atom_site_fract_z
  _atom_site_thermal_displace_type
  _atom_site_B_iso_or_equiv
  _atom_site_type_symbol
  C1       1.0000 0.58330  0.06520  0.46360  Biso   1.000  C
  C2       1.0000 0.41670  0.93480  0.46360  Biso   1.000  C
  C3       1.0000 0.93480  0.58330  0.46360  Biso   1.000  C
  C4       1.0000 0.06520  0.41670  0.46360  Biso   1.000  C
  C5       1.0000 0.41670  0.06520  0.53640  Biso   1.000  C
  C6       1.0000 0.58330  0.93480  0.53640  Biso   1.000  C
  C7       1.0000 0.06520  0.58330  0.53640  Biso   1.000  C
  C8       1.0000 0.93480  0.41670  0.53640  Biso   1.000  C
  C9       1.0000 0.41670  0.93480  0.53640  Biso   1.000  C
  C10      1.0000 0.58330  0.06520  0.53640  Biso   1.000  C
  C11      1.0000 0.06520  0.41670  0.53640  Biso   1.000  C
  C12      1.0000 0.93480  0.58330  0.53640  Biso   1.000  C
  C13      1.0000 0.58330  0.93480  0.46360  Biso   1.000  C
  C14      1.0000 0.41670  0.06520  0.46360  Biso   1.000  C
  C15      1.0000 0.93480  0.41670  0.46360  Biso   1.000  C
  C16      1.0000 0.06520  0.58330  0.46360  Biso   1.000  C
  Zn1      1.0000 0.50000  0.50000  0.43384  Biso   1.000  Zn
  N1       1.0000 0.50000  0.50000  0.34400  Biso   1.000  N
  N2       1.0000 0.50000  0.50000  0.15480  Biso   1.000  N
  C17      1.0000 0.50000  0.50000  0.22070  Biso   1.000  C
  C18      1.0000 0.50000  0.50000  0.03190  Biso   1.000  C
  Zn2      1.0000 0.50000  0.50000  0.56616  Biso   1.000  Zn
  N3       1.0000 0.50000  0.50000  0.65600  Biso   1.000  N
  N4       1.0000 0.50000  0.50000  0.84520  Biso   1.000  N
  C19      1.0000 0.50000  0.50000  0.77930  Biso   1.000  C
  C20      1.0000 0.50000  0.50000  0.96810  Biso   1.000  C
  O1       1.0000 0.50000  0.31670  0.45060  Biso   1.000  O
  O2       1.0000 0.50000  0.68330  0.45060  Biso   1.000  O
  O3       1.0000 0.68330  0.50000  0.45060  Biso   1.000  O
  O4       1.0000 0.31670  0.50000  0.45060  Biso   1.000  O
  O5       1.0000 0.50000  0.31670  0.54940  Biso   1.000  O
  O6       1.0000 0.50000  0.68330  0.54940  Biso   1.000  O
  O7       1.0000 0.31670  0.50000  0.54940  Biso   1.000  O
  O8       1.0000 0.68330  0.50000  0.54940  Biso   1.000  O
  O9       1.0000 0.30300  0.50000  0.15740  Biso   1.000  O
  C21      1.0000 0.39860  0.50000  0.31220  Biso   1.000  C
  C22      1.0000 0.39500  0.50000  0.25040  Biso   1.000  C
  C23      1.0000 0.39770  0.50000  0.12940  Biso   1.000  C
  C24      1.0000 0.39700  0.50000  0.06220  Biso   1.000  C
  C25      1.0000 0.28800  0.50000  0.03200  Biso   1.000  C
  H1       1.0000 0.32310  0.50000  0.33330  Biso   1.000  H
  H2       1.0000 0.31840  0.50000  0.23030  Biso   1.000  H
  H3       1.0000 0.21210  0.50000  0.05300  Biso   1.000  H
  O10      1.0000 0.69700  0.50000  0.15740  Biso   1.000  O
  C26      1.0000 0.60140  0.50000  0.31220  Biso   1.000  C
  C27      1.0000 0.60500  0.50000  0.25040  Biso   1.000  C
  C28      1.0000 0.60230  0.50000  0.12940  Biso   1.000  C
  C29      1.0000 0.60300  0.50000  0.06220  Biso   1.000  C
  C30      1.0000 0.71200  0.50000  0.03200  Biso   1.000  C
  H4       1.0000 0.67690  0.50000  0.33330  Biso   1.000  H
  H5       1.0000 0.68160  0.50000  0.23030  Biso   1.000  H
  H6       1.0000 0.78790  0.50000  0.05300  Biso   1.000  H
  O11      1.0000 0.50000  0.30300  0.15740  Biso   1.000  O
  C31      1.0000 0.50000  0.39860  0.31220  Biso   1.000  C
  C32      1.0000 0.50000  0.39500  0.25040  Biso   1.000  C
  C33      1.0000 0.50000  0.39770  0.12940  Biso   1.000  C
  C34      1.0000 0.50000  0.39700  0.06220  Biso   1.000  C
  C35      1.0000 0.50000  0.28800  0.03200  Biso   1.000  C
  H7       1.0000 0.50000  0.32310  0.33330  Biso   1.000  H
  H8       1.0000 0.50000  0.31840  0.23030  Biso   1.000  H
  H9       1.0000 0.50000  0.21210  0.05300  Biso   1.000  H
  O12      1.0000 0.50000  0.69700  0.15740  Biso   1.000  O
  C36      1.0000 0.50000  0.60140  0.31220  Biso   1.000  C
  C37      1.0000 0.50000  0.60500  0.25040  Biso   1.000  C
  C38      1.0000 0.50000  0.60230  0.12940  Biso   1.000  C
  C39      1.0000 0.50000  0.60300  0.06220  Biso   1.000  C
  C40      1.0000 0.50000  0.71200  0.03200  Biso   1.000  C
  H10      1.0000 0.50000  0.67690  0.33330  Biso   1.000  H
  H11      1.0000 0.50000  0.68160  0.23030  Biso   1.000  H
  H12      1.0000 0.50000  0.78790  0.05300  Biso   1.000  H
  O13      1.0000 0.69700  0.50000  0.84260  Biso   1.000  O
  C41      1.0000 0.60140  0.50000  0.68780  Biso   1.000  C
  C42      1.0000 0.60500  0.50000  0.74960  Biso   1.000  C
  C43      1.0000 0.60230  0.50000  0.87060  Biso   1.000  C
  C44      1.0000 0.60300  0.50000  0.93780  Biso   1.000  C
  C45      1.0000 0.71200  0.50000  0.96800  Biso   1.000  C
  H13      1.0000 0.67690  0.50000  0.66670  Biso   1.000  H
  H14      1.0000 0.68160  0.50000  0.76970  Biso   1.000  H
  H15      1.0000 0.78790  0.50000  0.94700  Biso   1.000  H
  O14      1.0000 0.30300  0.50000  0.84260  Biso   1.000  O
  C46      1.0000 0.39860  0.50000  0.68780  Biso   1.000  C
  C47      1.0000 0.39500  0.50000  0.74960  Biso   1.000  C
  C48      1.0000 0.39770  0.50000  0.87060  Biso   1.000  C
  C49      1.0000 0.39700  0.50000  0.93780  Biso   1.000  C
  C50      1.0000 0.28800  0.50000  0.96800  Biso   1.000  C
  H16      1.0000 0.32310  0.50000  0.66670  Biso   1.000  H
  H17      1.0000 0.31840  0.50000  0.76970  Biso   1.000  H
  H18      1.0000 0.21210  0.50000  0.94700  Biso   1.000  H
  O15      1.0000 0.50000  0.30300  0.84260  Biso   1.000  O
  C51      1.0000 0.50000  0.39860  0.68780  Biso   1.000  C
  C52      1.0000 0.50000  0.39500  0.74960  Biso   1.000  C
  C53      1.0000 0.50000  0.39770  0.87060  Biso   1.000  C
  C54      1.0000 0.50000  0.39700  0.93780  Biso   1.000  C
  C55      1.0000 0.50000  0.28800  0.96800  Biso   1.000  C
  H19      1.0000 0.50000  0.32310  0.66670  Biso   1.000  H
  H20      1.0000 0.50000  0.31840  0.76970  Biso   1.000  H
  H21      1.0000 0.50000  0.21210  0.94700  Biso   1.000  H
  O16      1.0000 0.50000  0.69700  0.84260  Biso   1.000  O
  C56      1.0000 0.50000  0.60140  0.68780  Biso   1.000  C
  C57      1.0000 0.50000  0.60500  0.74960  Biso   1.000  C
  C58      1.0000 0.50000  0.60230  0.87060  Biso   1.000  C
  C59      1.0000 0.50000  0.60300  0.93780  Biso   1.000  C
  C60      1.0000 0.50000  0.71200  0.96800  Biso   1.000  C
  H22      1.0000 0.50000  0.67690  0.66670  Biso   1.000  H
  H23      1.0000 0.50000  0.68160  0.76970  Biso   1.000  H
  H24      1.0000 0.50000  0.78790  0.94700  Biso   1.000  H
  C61      1.0000 0.50000  0.26640  0.50000  Biso   1.000  C
  C62      1.0000 0.50000  0.12890  0.50000  Biso   1.000  C
  C63      1.0000 0.50000  0.73360  0.50000  Biso   1.000  C
  C64      1.0000 0.50000  0.87110  0.50000  Biso   1.000  C
  C65      1.0000 0.73360  0.50000  0.50000  Biso   1.000  C
  C66      1.0000 0.87110  0.50000  0.50000  Biso   1.000  C
  C67      1.0000 0.26640  0.50000  0.50000  Biso   1.000  C
  C68      1.0000 0.12890  0.50000  0.50000  Biso   1.000  C
