data_image0
_cell_length_a       13.0887
_cell_length_b       14.9813
_cell_length_c       17.1216
_cell_angle_alpha    69.184
_cell_angle_beta     70.767
_cell_angle_gamma    86.494

_symmetry_space_group_name_H-M    "P 1"
_symmetry_int_tables_number       1

loop_
  _symmetry_equiv_pos_as_xyz
  'x, y, z'

loop_
  _atom_site_label
  _atom_site_occupancy
  _atom_site_fract_x
  _atom_site_fract_y
  _atom_site_fract_z
  _atom_site_thermal_displace_type
  _atom_site_B_iso_or_equiv
  _atom_site_type_symbol
  W1       1.0000 0.35073  0.18251  0.23006  Biso   1.000  W
  W2       1.0000 0.12325  0.33003  0.22468  Biso   1.000  W
  W3       1.0000 0.87266  0.22846  0.28804  Biso   1.000  W
  W4       1.0000 0.83475  0.97201  0.34943  Biso   1.000  W
  W5       1.0000 0.31343  0.94364  0.29592  Biso   1.000  W
  W6       1.0000 0.04809  0.83491  0.35260  Biso   1.000  W
  Co1      1.0000 0.10302  0.93325  0.50212  Biso   1.000  Co
  Co2      1.0000 0.06750  0.06370  0.00714  Biso   1.000  Co
  Co3      1.0000 0.83990  0.95700  0.00610  Biso   1.000  Co
  Na1      1.0000 0.14670  0.17930  0.45140  Biso   1.000  Na
  Na2      1.0000 0.42130  0.70390  0.36840  Biso   1.000  Na
  P1       1.0000 0.94720  0.88850  0.18857  Biso   1.000  P
  P2       1.0000 0.41120  0.07100  0.08029  Biso   1.000  P
  P3       1.0000 0.00970  0.33560  0.07514  Biso   1.000  P
  P4       1.0000 0.08484  0.07847  0.31347  Biso   1.000  P
  O1       1.0000 0.89360  0.85000  0.37650  Biso   1.000  O
  O2       1.0000 0.25610  0.27280  0.18650  Biso   1.000  O
  O3       1.0000 0.96570  0.33890  0.25240  Biso   1.000  O
  O4       1.0000 0.05880  0.06100  0.41310  Biso   1.000  O
  O5       1.0000 0.24880  0.93180  0.40840  Biso   1.000  O
  O6       1.0000 0.40450  0.05510  0.25950  Biso   1.000  O
  O7       1.0000 0.86070  0.18390  0.40190  Biso   1.000  O
  O8       1.0000 0.83240  0.98330  0.45000  Biso   1.000  O
  O9       1.0000 0.83860  0.10530  0.28740  Biso   1.000  O
  O10      1.0000 0.88560  0.96660  0.22260  Biso   1.000  O
  O11      1.0000 0.92510  0.25510  0.15090  Biso   1.000  O
  O12      1.0000 0.87260  0.79900  0.22180  Biso   1.000  O
  O13      1.0000 0.04290  0.86490  0.22500  Biso   1.000  O
  O14      1.0000 0.99330  0.93240  0.08810  Biso   1.000  O
  O15      1.0000 0.19640  0.87610  0.29130  Biso   1.000  O
  O16      1.0000 0.11780  0.30090  0.33320  Biso   1.000  O
  O17      1.0000 0.02310  0.00000  0.30430  Biso   1.000  O
  O18      1.0000 0.38430  0.16040  0.10400  Biso   1.000  O
  O19      1.0000 0.95660  0.43310  0.06740  Biso   1.000  O
  O20      1.0000 0.11270  0.33420  0.10130  Biso   1.000  O
  O21      1.0000 0.20700  0.07370  0.26780  Biso   1.000  O
  O22      1.0000 0.40940  0.85910  0.30370  Biso   1.000  O
  O23      1.0000 0.34930  0.98180  0.15780  Biso   1.000  O
  O24      1.0000 0.30210  0.18050  0.33780  Biso   1.000  O
  O25      1.0000 0.52000  0.76180  0.44030  Biso   1.000  O
  O26      1.0000 0.04910  0.17620  0.26530  Biso   1.000  O
  O27      1.0000 0.53680  0.06130  0.06420  Biso   1.000  O
  O28      1.0000 0.23480  0.70220  0.48040  Biso   1.000  O
  O29      1.0000 0.04400  0.84810  0.45390  Biso   1.000  O
  O30      1.0000 0.04040  0.32050  0.98740  Biso   1.000  O
  O31      1.0000 0.38720  0.07810  0.99770  Biso   1.000  O
  O32      1.0000 0.21320  0.99840  0.94520  Biso   1.000  O
  O33      1.0000 0.09540  0.09920  0.11140  Biso   1.000  O
  O34      1.0000 0.72000  0.99300  0.12900  Biso   1.000  O
  O35      1.0000 0.86100  0.92940  0.89960  Biso   1.000  O
  C1       1.0000 0.21320  0.61780  0.55390  Biso   1.000  C
  H1       1.0000 0.25670  0.56840  0.53750  Biso   1.000  H
  H2       1.0000 0.23360  0.62820  0.59970  Biso   1.000  H
  C2       1.0000 0.09550  0.58420  0.58980  Biso   1.000  C
  H3       1.0000 0.08380  0.52700  0.64210  Biso   1.000  H
  H4       1.0000 0.05260  0.63310  0.60780  Biso   1.000  H
  C3       1.0000 0.11280  0.48450  0.49610  Biso   1.000  C
  H5       1.0000 0.18970  0.50270  0.46750  Biso   1.000  H
  H6       1.0000 0.10370  0.42670  0.54750  Biso   1.000  H
  C4       1.0000 0.93390  0.53430  0.56850  Biso   1.000  C
  H7       1.0000 0.92220  0.47720  0.62090  Biso   1.000  H
  H8       1.0000 0.89680  0.58530  0.58670  Biso   1.000  H
  C5       1.0000 0.41810  0.94020  0.50050  Biso   1.000  C
  H9       1.0000 0.36400  0.93430  0.55700  Biso   1.000  H
  H10      1.0000 0.39010  0.90490  0.47330  Biso   1.000  H
  C6       1.0000 0.46460  0.73920  0.53480  Biso   1.000  C
  H11      1.0000 0.47100  0.67210  0.56620  Biso   1.000  H
  H12      1.0000 0.38810  0.74960  0.54510  Biso   1.000  H
  C7       1.0000 0.50860  0.79670  0.56930  Biso   1.000  C
  H13      1.0000 0.46170  0.78780  0.62900  Biso   1.000  H
  H14      1.0000 0.57920  0.77530  0.57210  Biso   1.000  H
  C8       1.0000 0.56010  0.96230  0.55490  Biso   1.000  C
  H15      1.0000 0.62560  0.93700  0.56690  Biso   1.000  H
  H16      1.0000 0.50550  0.95760  0.61090  Biso   1.000  H
  N1       1.0000 0.51990  0.90080  0.51390  Biso   1.000  N
  N2       1.0000 0.05550  0.56250  0.52410  Biso   1.000  N
  W7       1.0000 0.64927  0.81749  0.76994  Biso   1.000  W
  W8       1.0000 0.87675  0.66997  0.77532  Biso   1.000  W
  W9       1.0000 0.12734  0.77154  0.71196  Biso   1.000  W
  W10      1.0000 0.16525  0.02799  0.65057  Biso   1.000  W
  W11      1.0000 0.68657  0.05636  0.70408  Biso   1.000  W
  W12      1.0000 0.95191  0.16509  0.64740  Biso   1.000  W
  Co4      1.0000 0.89698  0.06675  0.49788  Biso   1.000  Co
  Co5      1.0000 0.93250  0.93630  0.99286  Biso   1.000  Co
  Co6      1.0000 0.16010  0.04300  0.99390  Biso   1.000  Co
  Na3      1.0000 0.85330  0.82070  0.54860  Biso   1.000  Na
  Na4      1.0000 0.57870  0.29610  0.63160  Biso   1.000  Na
  P5       1.0000 0.05280  0.11150  0.81143  Biso   1.000  P
  P6       1.0000 0.58880  0.92900  0.91971  Biso   1.000  P
  P7       1.0000 0.99030  0.66440  0.92486  Biso   1.000  P
  P8       1.0000 0.91516  0.92153  0.68653  Biso   1.000  P
  O36      1.0000 0.10640  0.15000  0.62350  Biso   1.000  O
  O37      1.0000 0.74390  0.72720  0.81350  Biso   1.000  O
  O38      1.0000 0.03430  0.66110  0.74760  Biso   1.000  O
  O39      1.0000 0.94120  0.93900  0.58690  Biso   1.000  O
  O40      1.0000 0.75120  0.06820  0.59160  Biso   1.000  O
  O41      1.0000 0.59550  0.94490  0.74050  Biso   1.000  O
  O42      1.0000 0.13930  0.81610  0.59810  Biso   1.000  O
  O43      1.0000 0.16760  0.01670  0.55000  Biso   1.000  O
  O44      1.0000 0.16140  0.89470  0.71260  Biso   1.000  O
  O45      1.0000 0.11440  0.03340  0.77740  Biso   1.000  O
  O46      1.0000 0.07490  0.74490  0.84910  Biso   1.000  O
  O47      1.0000 0.12740  0.20100  0.77820  Biso   1.000  O
  O48      1.0000 0.95710  0.13510  0.77500  Biso   1.000  O
  O49      1.0000 0.00670  0.06760  0.91190  Biso   1.000  O
  O50      1.0000 0.80360  0.12390  0.70870  Biso   1.000  O
  O51      1.0000 0.88220  0.69910  0.66680  Biso   1.000  O
  O52      1.0000 0.97690  0.00000  0.69570  Biso   1.000  O
  O53      1.0000 0.61570  0.83960  0.89600  Biso   1.000  O
  O54      1.0000 0.04340  0.56690  0.93260  Biso   1.000  O
  O55      1.0000 0.88730  0.66580  0.89870  Biso   1.000  O
  O56      1.0000 0.79300  0.92630  0.73220  Biso   1.000  O
  O57      1.0000 0.59060  0.14090  0.69630  Biso   1.000  O
  O58      1.0000 0.65070  0.01820  0.84220  Biso   1.000  O
  O59      1.0000 0.69790  0.81950  0.66220  Biso   1.000  O
  O60      1.0000 0.48000  0.23820  0.55970  Biso   1.000  O
  O61      1.0000 0.95090  0.82380  0.73470  Biso   1.000  O
  O62      1.0000 0.46320  0.93870  0.93580  Biso   1.000  O
  O63      1.0000 0.76520  0.29780  0.51960  Biso   1.000  O
  O64      1.0000 0.95600  0.15190  0.54610  Biso   1.000  O
  O65      1.0000 0.95960  0.67950  0.01260  Biso   1.000  O
  O66      1.0000 0.61280  0.92190  0.00230  Biso   1.000  O
  O67      1.0000 0.78680  0.00160  0.05480  Biso   1.000  O
  O68      1.0000 0.90460  0.90080  0.88860  Biso   1.000  O
  O69      1.0000 0.28000  0.00700  0.87100  Biso   1.000  O
  O70      1.0000 0.13900  0.07060  0.10040  Biso   1.000  O
  C9       1.0000 0.78680  0.38220  0.44610  Biso   1.000  C
  H17      1.0000 0.74330  0.43160  0.46250  Biso   1.000  H
  H18      1.0000 0.76640  0.37180  0.40030  Biso   1.000  H
  C10      1.0000 0.90450  0.41580  0.41020  Biso   1.000  C
  H19      1.0000 0.91620  0.47300  0.35790  Biso   1.000  H
  H20      1.0000 0.94740  0.36690  0.39220  Biso   1.000  H
  C11      1.0000 0.88720  0.51550  0.50390  Biso   1.000  C
  H21      1.0000 0.81030  0.49730  0.53250  Biso   1.000  H
  H22      1.0000 0.89630  0.57330  0.45250  Biso   1.000  H
  C12      1.0000 0.06610  0.46570  0.43150  Biso   1.000  C
  H23      1.0000 0.07780  0.52280  0.37910  Biso   1.000  H
  H24      1.0000 0.10320  0.41470  0.41330  Biso   1.000  H
  C13      1.0000 0.58190  0.05980  0.49950  Biso   1.000  C
  H25      1.0000 0.63600  0.06570  0.44300  Biso   1.000  H
  H26      1.0000 0.60990  0.09510  0.52670  Biso   1.000  H
  C14      1.0000 0.53540  0.26080  0.46520  Biso   1.000  C
  H27      1.0000 0.52900  0.32790  0.43380  Biso   1.000  H
  H28      1.0000 0.61190  0.25040  0.45490  Biso   1.000  H
  C15      1.0000 0.49140  0.20330  0.43070  Biso   1.000  C
  H29      1.0000 0.53830  0.21220  0.37100  Biso   1.000  H
  H30      1.0000 0.42080  0.22470  0.42790  Biso   1.000  H
  C16      1.0000 0.43990  0.03770  0.44510  Biso   1.000  C
  H31      1.0000 0.37440  0.06300  0.43310  Biso   1.000  H
  H32      1.0000 0.49450  0.04240  0.38910  Biso   1.000  H
  N3       1.0000 0.48010  0.09920  0.48610  Biso   1.000  N
  N4       1.0000 0.94450  0.43750  0.47590  Biso   1.000  N
