data_image0
_cell_length_a       23.518
_cell_length_b       13.291
_cell_length_c       22.581
_cell_angle_alpha    90
_cell_angle_beta     106.66
_cell_angle_gamma    90

_symmetry_space_group_name_H-M    "P 1"
_symmetry_int_tables_number       1

loop_
  _symmetry_equiv_pos_as_xyz
  'x, y, z'

loop_
  _atom_site_label
  _atom_site_occupancy
  _atom_site_fract_x
  _atom_site_fract_y
  _atom_site_fract_z
  _atom_site_thermal_displace_type
  _atom_site_B_iso_or_equiv
  _atom_site_type_symbol
  Gd1      1.0000 0.24204  0.60648  0.29352  Biso   1.000  Gd
  N1       1.0000 0.27550  0.43620  0.27660  Biso   1.000  N
  N2       1.0000 0.28100  0.28230  0.23750  Biso   1.000  N
  N3       1.0000 0.34320  0.67240  0.31610  Biso   1.000  N
  N4       1.0000 0.42450  0.74110  0.30060  Biso   1.000  N
  N5       1.0000 0.14480  0.52940  0.25230  Biso   1.000  N
  N6       1.0000 0.06130  0.44530  0.24830  Biso   1.000  N
  N7       1.0000 0.28480  0.53130  0.39780  Biso   1.000  N
  N8       1.0000 0.28440  0.40130  0.46120  Biso   1.000  N
  N9       1.0000 0.24000  0.60670  0.18180  Biso   1.000  N
  N10      1.0000 0.23600  0.65140  0.08470  Biso   1.000  N
  N11      1.0000 0.18450  0.67600  0.36350  Biso   1.000  N
  N12      1.0000 0.12210  0.71110  0.41240  Biso   1.000  N
  H1       1.0000 0.09070  0.70660  0.42600  Biso   1.000  H
  N13      1.0000 0.43200  0.79250  0.14450  Biso   1.000  N
  N14      1.0000 0.34920  0.78470  0.06460  Biso   1.000  N
  C1       1.0000 0.24640  0.35550  0.24930  Biso   1.000  C
  H2       1.0000 0.20440  0.34980  0.23890  Biso   1.000  H
  C2       1.0000 0.33550  0.31920  0.26070  Biso   1.000  C
  H3       1.0000 0.37110  0.28650  0.25990  Biso   1.000  H
  C3       1.0000 0.37930  0.67910  0.28100  Biso   1.000  C
  H4       1.0000 0.37310  0.64160  0.24390  Biso   1.000  H
  C4       1.0000 0.36530  0.74160  0.36130  Biso   1.000  C
  H5       1.0000 0.34920  0.75700  0.39440  Biso   1.000  H
  C5       1.0000 0.41400  0.78490  0.35130  Biso   1.000  C
  H6       1.0000 0.43700  0.83700  0.37560  Biso   1.000  H
  C6       1.0000 0.11920  0.45380  0.27300  Biso   1.000  C
  H7       1.0000 0.14120  0.40850  0.30370  Biso   1.000  H
  C7       1.0000 0.09930  0.57210  0.20960  Biso   1.000  C
  H8       1.0000 0.10230  0.62740  0.18390  Biso   1.000  H
  C8       1.0000 0.04860  0.52390  0.20890  Biso   1.000  C
  H9       1.0000 0.00990  0.54240  0.18440  Biso   1.000  H
  C9       1.0000 0.25490  0.46080  0.41590  Biso   1.000  C
  H10      1.0000 0.21350  0.45260  0.39720  Biso   1.000  H
  C10      1.0000 0.33190  0.41180  0.28610  Biso   1.000  C
  H11      1.0000 0.36480  0.45210  0.30720  Biso   1.000  H
  C11      1.0000 0.33830  0.44400  0.47460  Biso   1.000  C
  H12      1.0000 0.37200  0.42150  0.50620  Biso   1.000  H
  C12      1.0000 0.26420  0.55730  0.09700  Biso   1.000  C
  H13      1.0000 0.27700  0.51810  0.06800  Biso   1.000  H
  C13      1.0000 0.27030  0.53120  0.15680  Biso   1.000  C
  H14      1.0000 0.29070  0.47410  0.17790  Biso   1.000  H
  C14      1.0000 0.20430  0.75520  0.40170  Biso   1.000  C
  H15      1.0000 0.24000  0.79040  0.40400  Biso   1.000  H
  C15      1.0000 0.13230  0.65380  0.36590  Biso   1.000  C
  H16      1.0000 0.10570  0.60690  0.34050  Biso   1.000  H
  C16      1.0000 0.33830  0.52270  0.43760  Biso   1.000  C
  H17      1.0000 0.37120  0.56530  0.43950  Biso   1.000  H
  C17      1.0000 0.49630  0.56320  0.17730  Biso   1.000  C
  N15      1.0000 0.49690  0.60830  0.23460  Biso   1.000  N
  C18      1.0000 0.51150  0.54020  0.28540  Biso   1.000  C
  C19      1.0000 0.52020  0.44710  0.26220  Biso   1.000  C
  N16      1.0000 0.50960  0.46400  0.19520  Biso   1.000  N
  C20      1.0000 0.23150  0.67750  0.14040  Biso   1.000  C
  H18      1.0000 0.22250  0.74450  0.14930  Biso   1.000  H
  C21      1.0000 0.16920  0.77760  0.43490  Biso   1.000  C
  H19      1.0000 0.17430  0.82690  0.46640  Biso   1.000  H
  C22      1.0000 0.38110  0.74650  0.11860  Biso   1.000  C
  H20      1.0000 0.36810  0.69020  0.13710  Biso   1.000  H
  C23      1.0000 0.43300  0.86810  0.10290  Biso   1.000  C
  H21      1.0000 0.46400  0.91570  0.10720  Biso   1.000  H
  C24      1.0000 0.38290  0.86390  0.05540  Biso   1.000  C
  H22      1.0000 0.37270  0.90860  0.02110  Biso   1.000  H
  C25      1.0000 0.22260  0.55150  0.08470  Biso   1.000  C
  H23      1.0000 0.21290  0.50860  0.04950  Biso   1.000  H
  C26      1.0000 0.22560  0.52480  0.14100  Biso   1.000  C
  H24      1.0000 0.21900  0.45830  0.15300  Biso   1.000  H
  Gd2      1.0000 0.74204  0.10648  0.29352  Biso   1.000  Gd
  N17      1.0000 0.77550  0.93620  0.27660  Biso   1.000  N
  N18      1.0000 0.78100  0.78230  0.23750  Biso   1.000  N
  N19      1.0000 0.84320  0.17240  0.31610  Biso   1.000  N
  N20      1.0000 0.92450  0.24110  0.30060  Biso   1.000  N
  N21      1.0000 0.64480  0.02940  0.25230  Biso   1.000  N
  N22      1.0000 0.56130  0.94530  0.24830  Biso   1.000  N
  N23      1.0000 0.78480  0.03130  0.39780  Biso   1.000  N
  N24      1.0000 0.78440  0.90130  0.46120  Biso   1.000  N
  N25      1.0000 0.74000  0.10670  0.18180  Biso   1.000  N
  N26      1.0000 0.73600  0.15140  0.08470  Biso   1.000  N
  N27      1.0000 0.68450  0.17600  0.36350  Biso   1.000  N
  N28      1.0000 0.62210  0.21110  0.41240  Biso   1.000  N
  H25      1.0000 0.59070  0.20660  0.42600  Biso   1.000  H
  N29      1.0000 0.93200  0.29250  0.14450  Biso   1.000  N
  N30      1.0000 0.84920  0.28470  0.06460  Biso   1.000  N
  C27      1.0000 0.74640  0.85550  0.24930  Biso   1.000  C
  H26      1.0000 0.70440  0.84980  0.23890  Biso   1.000  H
  C28      1.0000 0.83550  0.81920  0.26070  Biso   1.000  C
  H27      1.0000 0.87110  0.78650  0.25990  Biso   1.000  H
  C29      1.0000 0.87930  0.17910  0.28100  Biso   1.000  C
  H28      1.0000 0.87310  0.14160  0.24390  Biso   1.000  H
  C30      1.0000 0.86530  0.24160  0.36130  Biso   1.000  C
  H29      1.0000 0.84920  0.25700  0.39440  Biso   1.000  H
  C31      1.0000 0.91400  0.28490  0.35130  Biso   1.000  C
  H30      1.0000 0.93700  0.33700  0.37560  Biso   1.000  H
  C32      1.0000 0.61920  0.95380  0.27300  Biso   1.000  C
  H31      1.0000 0.64120  0.90850  0.30370  Biso   1.000  H
  C33      1.0000 0.59930  0.07210  0.20960  Biso   1.000  C
  H32      1.0000 0.60230  0.12740  0.18390  Biso   1.000  H
  C34      1.0000 0.54860  0.02390  0.20890  Biso   1.000  C
  H33      1.0000 0.50990  0.04240  0.18440  Biso   1.000  H
  C35      1.0000 0.75490  0.96080  0.41590  Biso   1.000  C
  H34      1.0000 0.71350  0.95260  0.39720  Biso   1.000  H
  C36      1.0000 0.83190  0.91180  0.28610  Biso   1.000  C
  H35      1.0000 0.86480  0.95210  0.30720  Biso   1.000  H
  C37      1.0000 0.83830  0.94400  0.47460  Biso   1.000  C
  H36      1.0000 0.87200  0.92150  0.50620  Biso   1.000  H
  C38      1.0000 0.76420  0.05730  0.09700  Biso   1.000  C
  H37      1.0000 0.77700  0.01810  0.06800  Biso   1.000  H
  C39      1.0000 0.77030  0.03120  0.15680  Biso   1.000  C
  H38      1.0000 0.79070  0.97410  0.17790  Biso   1.000  H
  C40      1.0000 0.70430  0.25520  0.40170  Biso   1.000  C
  H39      1.0000 0.74000  0.29040  0.40400  Biso   1.000  H
  C41      1.0000 0.63230  0.15380  0.36590  Biso   1.000  C
  H40      1.0000 0.60570  0.10690  0.34050  Biso   1.000  H
  C42      1.0000 0.83830  0.02270  0.43760  Biso   1.000  C
  H41      1.0000 0.87120  0.06530  0.43950  Biso   1.000  H
  C43      1.0000 0.99630  0.06320  0.17730  Biso   1.000  C
  N31      1.0000 0.99690  0.10830  0.23460  Biso   1.000  N
  C44      1.0000 0.01150  0.04020  0.28540  Biso   1.000  C
  C45      1.0000 0.02020  0.94710  0.26220  Biso   1.000  C
  N32      1.0000 0.00960  0.96400  0.19520  Biso   1.000  N
  C46      1.0000 0.73150  0.17750  0.14040  Biso   1.000  C
  H42      1.0000 0.72250  0.24450  0.14930  Biso   1.000  H
  C47      1.0000 0.66920  0.27760  0.43490  Biso   1.000  C
  H43      1.0000 0.67430  0.32690  0.46640  Biso   1.000  H
  C48      1.0000 0.88110  0.24650  0.11860  Biso   1.000  C
  H44      1.0000 0.86810  0.19020  0.13710  Biso   1.000  H
  C49      1.0000 0.93300  0.36810  0.10290  Biso   1.000  C
  H45      1.0000 0.96400  0.41570  0.10720  Biso   1.000  H
  C50      1.0000 0.88290  0.36390  0.05540  Biso   1.000  C
  H46      1.0000 0.87270  0.40860  0.02110  Biso   1.000  H
  C51      1.0000 0.72260  0.05150  0.08470  Biso   1.000  C
  H47      1.0000 0.71290  0.00860  0.04950  Biso   1.000  H
  C52      1.0000 0.72560  0.02480  0.14100  Biso   1.000  C
  H48      1.0000 0.71900  0.95830  0.15300  Biso   1.000  H
  Gd3      1.0000 0.75796  0.60648  0.20648  Biso   1.000  Gd
  N33      1.0000 0.72450  0.43620  0.22340  Biso   1.000  N
  N34      1.0000 0.71900  0.28230  0.26250  Biso   1.000  N
  N35      1.0000 0.65680  0.67240  0.18390  Biso   1.000  N
  N36      1.0000 0.57550  0.74110  0.19940  Biso   1.000  N
  N37      1.0000 0.85520  0.52940  0.24770  Biso   1.000  N
  N38      1.0000 0.93870  0.44530  0.25170  Biso   1.000  N
  N39      1.0000 0.71520  0.53130  0.10220  Biso   1.000  N
  N40      1.0000 0.71560  0.40130  0.03880  Biso   1.000  N
  N41      1.0000 0.76000  0.60670  0.31820  Biso   1.000  N
  N42      1.0000 0.76400  0.65140  0.41530  Biso   1.000  N
  N43      1.0000 0.81550  0.67600  0.13650  Biso   1.000  N
  N44      1.0000 0.87790  0.71110  0.08760  Biso   1.000  N
  H49      1.0000 0.90930  0.70660  0.07400  Biso   1.000  H
  N45      1.0000 0.56800  0.79250  0.35550  Biso   1.000  N
  N46      1.0000 0.65080  0.78470  0.43540  Biso   1.000  N
  C53      1.0000 0.75360  0.35550  0.25070  Biso   1.000  C
  H50      1.0000 0.79560  0.34980  0.26110  Biso   1.000  H
  C54      1.0000 0.66450  0.31920  0.23930  Biso   1.000  C
  H51      1.0000 0.62890  0.28650  0.24010  Biso   1.000  H
  C55      1.0000 0.62070  0.67910  0.21900  Biso   1.000  C
  H52      1.0000 0.62690  0.64160  0.25610  Biso   1.000  H
  C56      1.0000 0.63470  0.74160  0.13870  Biso   1.000  C
  H53      1.0000 0.65080  0.75700  0.10560  Biso   1.000  H
  C57      1.0000 0.58600  0.78490  0.14870  Biso   1.000  C
  H54      1.0000 0.56300  0.83700  0.12440  Biso   1.000  H
  C58      1.0000 0.88080  0.45380  0.22700  Biso   1.000  C
  H55      1.0000 0.85880  0.40850  0.19630  Biso   1.000  H
  C59      1.0000 0.90070  0.57210  0.29040  Biso   1.000  C
  H56      1.0000 0.89770  0.62740  0.31610  Biso   1.000  H
  C60      1.0000 0.95140  0.52390  0.29110  Biso   1.000  C
  H57      1.0000 0.99010  0.54240  0.31560  Biso   1.000  H
  C61      1.0000 0.74510  0.46080  0.08410  Biso   1.000  C
  H58      1.0000 0.78650  0.45260  0.10280  Biso   1.000  H
  C62      1.0000 0.66810  0.41180  0.21390  Biso   1.000  C
  H59      1.0000 0.63520  0.45210  0.19280  Biso   1.000  H
  C63      1.0000 0.66170  0.44400  0.02540  Biso   1.000  C
  H60      1.0000 0.62800  0.42150  0.99380  Biso   1.000  H
  C64      1.0000 0.73580  0.55730  0.40300  Biso   1.000  C
  H61      1.0000 0.72300  0.51810  0.43200  Biso   1.000  H
  C65      1.0000 0.72970  0.53120  0.34320  Biso   1.000  C
  H62      1.0000 0.70930  0.47410  0.32210  Biso   1.000  H
  C66      1.0000 0.79570  0.75520  0.09830  Biso   1.000  C
  H63      1.0000 0.76000  0.79040  0.09600  Biso   1.000  H
  C67      1.0000 0.86770  0.65380  0.13410  Biso   1.000  C
  H64      1.0000 0.89430  0.60690  0.15950  Biso   1.000  H
  C68      1.0000 0.66170  0.52270  0.06240  Biso   1.000  C
  H65      1.0000 0.62880  0.56530  0.06050  Biso   1.000  H
  C69      1.0000 0.50370  0.56320  0.32270  Biso   1.000  C
  N47      1.0000 0.50310  0.60830  0.26540  Biso   1.000  N
  C70      1.0000 0.48850  0.54020  0.21460  Biso   1.000  C
  C71      1.0000 0.47980  0.44710  0.23780  Biso   1.000  C
  N48      1.0000 0.49040  0.46400  0.30480  Biso   1.000  N
  C72      1.0000 0.76850  0.67750  0.35960  Biso   1.000  C
  H66      1.0000 0.77750  0.74450  0.35070  Biso   1.000  H
  C73      1.0000 0.83080  0.77760  0.06510  Biso   1.000  C
  H67      1.0000 0.82570  0.82690  0.03360  Biso   1.000  H
  C74      1.0000 0.61890  0.74650  0.38140  Biso   1.000  C
  H68      1.0000 0.63190  0.69020  0.36290  Biso   1.000  H
  C75      1.0000 0.56700  0.86810  0.39710  Biso   1.000  C
  H69      1.0000 0.53600  0.91570  0.39280  Biso   1.000  H
  C76      1.0000 0.61710  0.86390  0.44460  Biso   1.000  C
  H70      1.0000 0.62730  0.90860  0.47890  Biso   1.000  H
  C77      1.0000 0.77740  0.55150  0.41530  Biso   1.000  C
  H71      1.0000 0.78710  0.50860  0.45050  Biso   1.000  H
  C78      1.0000 0.77440  0.52480  0.35900  Biso   1.000  C
  H72      1.0000 0.78100  0.45830  0.34700  Biso   1.000  H
  Gd4      1.0000 0.25796  0.10648  0.20648  Biso   1.000  Gd
  N49      1.0000 0.22450  0.93620  0.22340  Biso   1.000  N
  N50      1.0000 0.21900  0.78230  0.26250  Biso   1.000  N
  N51      1.0000 0.15680  0.17240  0.18390  Biso   1.000  N
  N52      1.0000 0.07550  0.24110  0.19940  Biso   1.000  N
  N53      1.0000 0.35520  0.02940  0.24770  Biso   1.000  N
  N54      1.0000 0.43870  0.94530  0.25170  Biso   1.000  N
  N55      1.0000 0.21520  0.03130  0.10220  Biso   1.000  N
  N56      1.0000 0.21560  0.90130  0.03880  Biso   1.000  N
  N57      1.0000 0.26000  0.10670  0.31820  Biso   1.000  N
  N58      1.0000 0.26400  0.15140  0.41530  Biso   1.000  N
  N59      1.0000 0.31550  0.17600  0.13650  Biso   1.000  N
  N60      1.0000 0.37790  0.21110  0.08760  Biso   1.000  N
  H73      1.0000 0.40930  0.20660  0.07400  Biso   1.000  H
  N61      1.0000 0.06800  0.29250  0.35550  Biso   1.000  N
  N62      1.0000 0.15080  0.28470  0.43540  Biso   1.000  N
  C79      1.0000 0.25360  0.85550  0.25070  Biso   1.000  C
  H74      1.0000 0.29560  0.84980  0.26110  Biso   1.000  H
  C80      1.0000 0.16450  0.81920  0.23930  Biso   1.000  C
  H75      1.0000 0.12890  0.78650  0.24010  Biso   1.000  H
  C81      1.0000 0.12070  0.17910  0.21900  Biso   1.000  C
  H76      1.0000 0.12690  0.14160  0.25610  Biso   1.000  H
  C82      1.0000 0.13470  0.24160  0.13870  Biso   1.000  C
  H77      1.0000 0.15080  0.25700  0.10560  Biso   1.000  H
  C83      1.0000 0.08600  0.28490  0.14870  Biso   1.000  C
  H78      1.0000 0.06300  0.33700  0.12440  Biso   1.000  H
  C84      1.0000 0.38080  0.95380  0.22700  Biso   1.000  C
  H79      1.0000 0.35880  0.90850  0.19630  Biso   1.000  H
  C85      1.0000 0.40070  0.07210  0.29040  Biso   1.000  C
  H80      1.0000 0.39770  0.12740  0.31610  Biso   1.000  H
  C86      1.0000 0.45140  0.02390  0.29110  Biso   1.000  C
  H81      1.0000 0.49010  0.04240  0.31560  Biso   1.000  H
  C87      1.0000 0.24510  0.96080  0.08410  Biso   1.000  C
  H82      1.0000 0.28650  0.95260  0.10280  Biso   1.000  H
  C88      1.0000 0.16810  0.91180  0.21390  Biso   1.000  C
  H83      1.0000 0.13520  0.95210  0.19280  Biso   1.000  H
  C89      1.0000 0.16170  0.94400  0.02540  Biso   1.000  C
  H84      1.0000 0.12800  0.92150  0.99380  Biso   1.000  H
  C90      1.0000 0.23580  0.05730  0.40300  Biso   1.000  C
  H85      1.0000 0.22300  0.01810  0.43200  Biso   1.000  H
  C91      1.0000 0.22970  0.03120  0.34320  Biso   1.000  C
  H86      1.0000 0.20930  0.97410  0.32210  Biso   1.000  H
  C92      1.0000 0.29570  0.25520  0.09830  Biso   1.000  C
  H87      1.0000 0.26000  0.29040  0.09600  Biso   1.000  H
  C93      1.0000 0.36770  0.15380  0.13410  Biso   1.000  C
  H88      1.0000 0.39430  0.10690  0.15950  Biso   1.000  H
  C94      1.0000 0.16170  0.02270  0.06240  Biso   1.000  C
  H89      1.0000 0.12880  0.06530  0.06050  Biso   1.000  H
  C95      1.0000 0.00370  0.06320  0.32270  Biso   1.000  C
  N63      1.0000 0.00310  0.10830  0.26540  Biso   1.000  N
  C96      1.0000 0.98850  0.04020  0.21460  Biso   1.000  C
  C97      1.0000 0.97980  0.94710  0.23780  Biso   1.000  C
  N64      1.0000 0.99040  0.96400  0.30480  Biso   1.000  N
  C98      1.0000 0.26850  0.17750  0.35960  Biso   1.000  C
  H90      1.0000 0.27750  0.24450  0.35070  Biso   1.000  H
  C99      1.0000 0.33080  0.27760  0.06510  Biso   1.000  C
  H91      1.0000 0.32570  0.32690  0.03360  Biso   1.000  H
  C100     1.0000 0.11890  0.24650  0.38140  Biso   1.000  C
  H92      1.0000 0.13190  0.19020  0.36290  Biso   1.000  H
  C101     1.0000 0.06700  0.36810  0.39710  Biso   1.000  C
  H93      1.0000 0.03600  0.41570  0.39280  Biso   1.000  H
  C102     1.0000 0.11710  0.36390  0.44460  Biso   1.000  C
  H94      1.0000 0.12730  0.40860  0.47890  Biso   1.000  H
  C103     1.0000 0.27740  0.05150  0.41530  Biso   1.000  C
  H95      1.0000 0.28710  0.00860  0.45050  Biso   1.000  H
  C104     1.0000 0.27440  0.02480  0.35900  Biso   1.000  C
  H96      1.0000 0.28100  0.95830  0.34700  Biso   1.000  H
  Gd5      1.0000 0.75796  0.39352  0.70648  Biso   1.000  Gd
  N65      1.0000 0.72450  0.56380  0.72340  Biso   1.000  N
  N66      1.0000 0.71900  0.71770  0.76250  Biso   1.000  N
  N67      1.0000 0.65680  0.32760  0.68390  Biso   1.000  N
  N68      1.0000 0.57550  0.25890  0.69940  Biso   1.000  N
  N69      1.0000 0.85520  0.47060  0.74770  Biso   1.000  N
  N70      1.0000 0.93870  0.55470  0.75170  Biso   1.000  N
  N71      1.0000 0.71520  0.46870  0.60220  Biso   1.000  N
  N72      1.0000 0.71560  0.59870  0.53880  Biso   1.000  N
  N73      1.0000 0.76000  0.39330  0.81820  Biso   1.000  N
  N74      1.0000 0.76400  0.34860  0.91530  Biso   1.000  N
  N75      1.0000 0.81550  0.32400  0.63650  Biso   1.000  N
  N76      1.0000 0.87790  0.28890  0.58760  Biso   1.000  N
  H97      1.0000 0.90930  0.29340  0.57400  Biso   1.000  H
  N77      1.0000 0.56800  0.20750  0.85550  Biso   1.000  N
  N78      1.0000 0.65080  0.21530  0.93540  Biso   1.000  N
  C105     1.0000 0.75360  0.64450  0.75070  Biso   1.000  C
  H98      1.0000 0.79560  0.65020  0.76110  Biso   1.000  H
  C106     1.0000 0.66450  0.68080  0.73930  Biso   1.000  C
  H99      1.0000 0.62890  0.71350  0.74010  Biso   1.000  H
  C107     1.0000 0.62070  0.32090  0.71900  Biso   1.000  C
  H100     1.0000 0.62690  0.35840  0.75610  Biso   1.000  H
  C108     1.0000 0.63470  0.25840  0.63870  Biso   1.000  C
  H101     1.0000 0.65080  0.24300  0.60560  Biso   1.000  H
  C109     1.0000 0.58600  0.21510  0.64870  Biso   1.000  C
  H102     1.0000 0.56300  0.16300  0.62440  Biso   1.000  H
  C110     1.0000 0.88080  0.54620  0.72700  Biso   1.000  C
  H103     1.0000 0.85880  0.59150  0.69630  Biso   1.000  H
  C111     1.0000 0.90070  0.42790  0.79040  Biso   1.000  C
  H104     1.0000 0.89770  0.37260  0.81610  Biso   1.000  H
  C112     1.0000 0.95140  0.47610  0.79110  Biso   1.000  C
  H105     1.0000 0.99010  0.45760  0.81560  Biso   1.000  H
  C113     1.0000 0.74510  0.53920  0.58410  Biso   1.000  C
  H106     1.0000 0.78650  0.54740  0.60280  Biso   1.000  H
  C114     1.0000 0.66810  0.58820  0.71390  Biso   1.000  C
  H107     1.0000 0.63520  0.54790  0.69280  Biso   1.000  H
  C115     1.0000 0.66170  0.55600  0.52540  Biso   1.000  C
  H108     1.0000 0.62800  0.57850  0.49380  Biso   1.000  H
  C116     1.0000 0.73580  0.44270  0.90300  Biso   1.000  C
  H109     1.0000 0.72300  0.48190  0.93200  Biso   1.000  H
  C117     1.0000 0.72970  0.46880  0.84320  Biso   1.000  C
  H110     1.0000 0.70930  0.52590  0.82210  Biso   1.000  H
  C118     1.0000 0.79570  0.24480  0.59830  Biso   1.000  C
  H111     1.0000 0.76000  0.20960  0.59600  Biso   1.000  H
  C119     1.0000 0.86770  0.34620  0.63410  Biso   1.000  C
  H112     1.0000 0.89430  0.39310  0.65950  Biso   1.000  H
  C120     1.0000 0.66170  0.47730  0.56240  Biso   1.000  C
  H113     1.0000 0.62880  0.43470  0.56050  Biso   1.000  H
  C121     1.0000 0.50370  0.43680  0.82270  Biso   1.000  C
  N79      1.0000 0.50310  0.39170  0.76540  Biso   1.000  N
  C122     1.0000 0.48850  0.45980  0.71460  Biso   1.000  C
  C123     1.0000 0.47980  0.55290  0.73780  Biso   1.000  C
  N80      1.0000 0.49040  0.53600  0.80480  Biso   1.000  N
  C124     1.0000 0.76850  0.32250  0.85960  Biso   1.000  C
  H114     1.0000 0.77750  0.25550  0.85070  Biso   1.000  H
  C125     1.0000 0.83080  0.22240  0.56510  Biso   1.000  C
  H115     1.0000 0.82570  0.17310  0.53360  Biso   1.000  H
  C126     1.0000 0.61890  0.25350  0.88140  Biso   1.000  C
  H116     1.0000 0.63190  0.30980  0.86290  Biso   1.000  H
  C127     1.0000 0.56700  0.13190  0.89710  Biso   1.000  C
  H117     1.0000 0.53600  0.08430  0.89280  Biso   1.000  H
  C128     1.0000 0.61710  0.13610  0.94460  Biso   1.000  C
  H118     1.0000 0.62730  0.09140  0.97890  Biso   1.000  H
  C129     1.0000 0.77740  0.44850  0.91530  Biso   1.000  C
  H119     1.0000 0.78710  0.49140  0.95050  Biso   1.000  H
  C130     1.0000 0.77440  0.47520  0.85900  Biso   1.000  C
  H120     1.0000 0.78100  0.54170  0.84700  Biso   1.000  H
  Gd6      1.0000 0.25796  0.89352  0.70648  Biso   1.000  Gd
  N81      1.0000 0.22450  0.06380  0.72340  Biso   1.000  N
  N82      1.0000 0.21900  0.21770  0.76250  Biso   1.000  N
  N83      1.0000 0.15680  0.82760  0.68390  Biso   1.000  N
  N84      1.0000 0.07550  0.75890  0.69940  Biso   1.000  N
  N85      1.0000 0.35520  0.97060  0.74770  Biso   1.000  N
  N86      1.0000 0.43870  0.05470  0.75170  Biso   1.000  N
  N87      1.0000 0.21520  0.96870  0.60220  Biso   1.000  N
  N88      1.0000 0.21560  0.09870  0.53880  Biso   1.000  N
  N89      1.0000 0.26000  0.89330  0.81820  Biso   1.000  N
  N90      1.0000 0.26400  0.84860  0.91530  Biso   1.000  N
  N91      1.0000 0.31550  0.82400  0.63650  Biso   1.000  N
  N92      1.0000 0.37790  0.78890  0.58760  Biso   1.000  N
  H121     1.0000 0.40930  0.79340  0.57400  Biso   1.000  H
  N93      1.0000 0.06800  0.70750  0.85550  Biso   1.000  N
  N94      1.0000 0.15080  0.71530  0.93540  Biso   1.000  N
  C131     1.0000 0.25360  0.14450  0.75070  Biso   1.000  C
  H122     1.0000 0.29560  0.15020  0.76110  Biso   1.000  H
  C132     1.0000 0.16450  0.18080  0.73930  Biso   1.000  C
  H123     1.0000 0.12890  0.21350  0.74010  Biso   1.000  H
  C133     1.0000 0.12070  0.82090  0.71900  Biso   1.000  C
  H124     1.0000 0.12690  0.85840  0.75610  Biso   1.000  H
  C134     1.0000 0.13470  0.75840  0.63870  Biso   1.000  C
  H125     1.0000 0.15080  0.74300  0.60560  Biso   1.000  H
  C135     1.0000 0.08600  0.71510  0.64870  Biso   1.000  C
  H126     1.0000 0.06300  0.66300  0.62440  Biso   1.000  H
  C136     1.0000 0.38080  0.04620  0.72700  Biso   1.000  C
  H127     1.0000 0.35880  0.09150  0.69630  Biso   1.000  H
  C137     1.0000 0.40070  0.92790  0.79040  Biso   1.000  C
  H128     1.0000 0.39770  0.87260  0.81610  Biso   1.000  H
  C138     1.0000 0.45140  0.97610  0.79110  Biso   1.000  C
  H129     1.0000 0.49010  0.95760  0.81560  Biso   1.000  H
  C139     1.0000 0.24510  0.03920  0.58410  Biso   1.000  C
  H130     1.0000 0.28650  0.04740  0.60280  Biso   1.000  H
  C140     1.0000 0.16810  0.08820  0.71390  Biso   1.000  C
  H131     1.0000 0.13520  0.04790  0.69280  Biso   1.000  H
  C141     1.0000 0.16170  0.05600  0.52540  Biso   1.000  C
  H132     1.0000 0.12800  0.07850  0.49380  Biso   1.000  H
  C142     1.0000 0.23580  0.94270  0.90300  Biso   1.000  C
  H133     1.0000 0.22300  0.98190  0.93200  Biso   1.000  H
  C143     1.0000 0.22970  0.96880  0.84320  Biso   1.000  C
  H134     1.0000 0.20930  0.02590  0.82210  Biso   1.000  H
  C144     1.0000 0.29570  0.74480  0.59830  Biso   1.000  C
  H135     1.0000 0.26000  0.70960  0.59600  Biso   1.000  H
  C145     1.0000 0.36770  0.84620  0.63410  Biso   1.000  C
  H136     1.0000 0.39430  0.89310  0.65950  Biso   1.000  H
  C146     1.0000 0.16170  0.97730  0.56240  Biso   1.000  C
  H137     1.0000 0.12880  0.93470  0.56050  Biso   1.000  H
  C147     1.0000 0.00370  0.93680  0.82270  Biso   1.000  C
  N95      1.0000 0.00310  0.89170  0.76540  Biso   1.000  N
  C148     1.0000 0.98850  0.95980  0.71460  Biso   1.000  C
  C149     1.0000 0.97980  0.05290  0.73780  Biso   1.000  C
  N96      1.0000 0.99040  0.03600  0.80480  Biso   1.000  N
  C150     1.0000 0.26850  0.82250  0.85960  Biso   1.000  C
  H138     1.0000 0.27750  0.75550  0.85070  Biso   1.000  H
  C151     1.0000 0.33080  0.72240  0.56510  Biso   1.000  C
  H139     1.0000 0.32570  0.67310  0.53360  Biso   1.000  H
  C152     1.0000 0.11890  0.75350  0.88140  Biso   1.000  C
  H140     1.0000 0.13190  0.80980  0.86290  Biso   1.000  H
  C153     1.0000 0.06700  0.63190  0.89710  Biso   1.000  C
  H141     1.0000 0.03600  0.58430  0.89280  Biso   1.000  H
  C154     1.0000 0.11710  0.63610  0.94460  Biso   1.000  C
  H142     1.0000 0.12730  0.59140  0.97890  Biso   1.000  H
  C155     1.0000 0.27740  0.94850  0.91530  Biso   1.000  C
  H143     1.0000 0.28710  0.99140  0.95050  Biso   1.000  H
  C156     1.0000 0.27440  0.97520  0.85900  Biso   1.000  C
  H144     1.0000 0.28100  0.04170  0.84700  Biso   1.000  H
  Gd7      1.0000 0.24204  0.39352  0.79352  Biso   1.000  Gd
  N97      1.0000 0.27550  0.56380  0.77660  Biso   1.000  N
  N98      1.0000 0.28100  0.71770  0.73750  Biso   1.000  N
  N99      1.0000 0.34320  0.32760  0.81610  Biso   1.000  N
  N100     1.0000 0.42450  0.25890  0.80060  Biso   1.000  N
  N101     1.0000 0.14480  0.47060  0.75230  Biso   1.000  N
  N102     1.0000 0.06130  0.55470  0.74830  Biso   1.000  N
  N103     1.0000 0.28480  0.46870  0.89780  Biso   1.000  N
  N104     1.0000 0.28440  0.59870  0.96120  Biso   1.000  N
  N105     1.0000 0.24000  0.39330  0.68180  Biso   1.000  N
  N106     1.0000 0.23600  0.34860  0.58470  Biso   1.000  N
  N107     1.0000 0.18450  0.32400  0.86350  Biso   1.000  N
  N108     1.0000 0.12210  0.28890  0.91240  Biso   1.000  N
  H145     1.0000 0.09070  0.29340  0.92600  Biso   1.000  H
  N109     1.0000 0.43200  0.20750  0.64450  Biso   1.000  N
  N110     1.0000 0.34920  0.21530  0.56460  Biso   1.000  N
  C157     1.0000 0.24640  0.64450  0.74930  Biso   1.000  C
  H146     1.0000 0.20440  0.65020  0.73890  Biso   1.000  H
  C158     1.0000 0.33550  0.68080  0.76070  Biso   1.000  C
  H147     1.0000 0.37110  0.71350  0.75990  Biso   1.000  H
  C159     1.0000 0.37930  0.32090  0.78100  Biso   1.000  C
  H148     1.0000 0.37310  0.35840  0.74390  Biso   1.000  H
  C160     1.0000 0.36530  0.25840  0.86130  Biso   1.000  C
  H149     1.0000 0.34920  0.24300  0.89440  Biso   1.000  H
  C161     1.0000 0.41400  0.21510  0.85130  Biso   1.000  C
  H150     1.0000 0.43700  0.16300  0.87560  Biso   1.000  H
  C162     1.0000 0.11920  0.54620  0.77300  Biso   1.000  C
  H151     1.0000 0.14120  0.59150  0.80370  Biso   1.000  H
  C163     1.0000 0.09930  0.42790  0.70960  Biso   1.000  C
  H152     1.0000 0.10230  0.37260  0.68390  Biso   1.000  H
  C164     1.0000 0.04860  0.47610  0.70890  Biso   1.000  C
  H153     1.0000 0.00990  0.45760  0.68440  Biso   1.000  H
  C165     1.0000 0.25490  0.53920  0.91590  Biso   1.000  C
  H154     1.0000 0.21350  0.54740  0.89720  Biso   1.000  H
  C166     1.0000 0.33190  0.58820  0.78610  Biso   1.000  C
  H155     1.0000 0.36480  0.54790  0.80720  Biso   1.000  H
  C167     1.0000 0.33830  0.55600  0.97460  Biso   1.000  C
  H156     1.0000 0.37200  0.57850  0.00620  Biso   1.000  H
  C168     1.0000 0.26420  0.44270  0.59700  Biso   1.000  C
  H157     1.0000 0.27700  0.48190  0.56800  Biso   1.000  H
  C169     1.0000 0.27030  0.46880  0.65680  Biso   1.000  C
  H158     1.0000 0.29070  0.52590  0.67790  Biso   1.000  H
  C170     1.0000 0.20430  0.24480  0.90170  Biso   1.000  C
  H159     1.0000 0.24000  0.20960  0.90400  Biso   1.000  H
  C171     1.0000 0.13230  0.34620  0.86590  Biso   1.000  C
  H160     1.0000 0.10570  0.39310  0.84050  Biso   1.000  H
  C172     1.0000 0.33830  0.47730  0.93760  Biso   1.000  C
  H161     1.0000 0.37120  0.43470  0.93950  Biso   1.000  H
  C173     1.0000 0.49630  0.43680  0.67730  Biso   1.000  C
  N111     1.0000 0.49690  0.39170  0.73460  Biso   1.000  N
  C174     1.0000 0.51150  0.45980  0.78540  Biso   1.000  C
  C175     1.0000 0.52020  0.55290  0.76220  Biso   1.000  C
  N112     1.0000 0.50960  0.53600  0.69520  Biso   1.000  N
  C176     1.0000 0.23150  0.32250  0.64040  Biso   1.000  C
  H162     1.0000 0.22250  0.25550  0.64930  Biso   1.000  H
  C177     1.0000 0.16920  0.22240  0.93490  Biso   1.000  C
  H163     1.0000 0.17430  0.17310  0.96640  Biso   1.000  H
  C178     1.0000 0.38110  0.25350  0.61860  Biso   1.000  C
  H164     1.0000 0.36810  0.30980  0.63710  Biso   1.000  H
  C179     1.0000 0.43300  0.13190  0.60290  Biso   1.000  C
  H165     1.0000 0.46400  0.08430  0.60720  Biso   1.000  H
  C180     1.0000 0.38290  0.13610  0.55540  Biso   1.000  C
  H166     1.0000 0.37270  0.09140  0.52110  Biso   1.000  H
  C181     1.0000 0.22260  0.44850  0.58470  Biso   1.000  C
  H167     1.0000 0.21290  0.49140  0.54950  Biso   1.000  H
  C182     1.0000 0.22560  0.47520  0.64100  Biso   1.000  C
  H168     1.0000 0.21900  0.54170  0.65300  Biso   1.000  H
  Gd8      1.0000 0.74204  0.89352  0.79352  Biso   1.000  Gd
  N113     1.0000 0.77550  0.06380  0.77660  Biso   1.000  N
  N114     1.0000 0.78100  0.21770  0.73750  Biso   1.000  N
  N115     1.0000 0.84320  0.82760  0.81610  Biso   1.000  N
  N116     1.0000 0.92450  0.75890  0.80060  Biso   1.000  N
  N117     1.0000 0.64480  0.97060  0.75230  Biso   1.000  N
  N118     1.0000 0.56130  0.05470  0.74830  Biso   1.000  N
  N119     1.0000 0.78480  0.96870  0.89780  Biso   1.000  N
  N120     1.0000 0.78440  0.09870  0.96120  Biso   1.000  N
  N121     1.0000 0.74000  0.89330  0.68180  Biso   1.000  N
  N122     1.0000 0.73600  0.84860  0.58470  Biso   1.000  N
  N123     1.0000 0.68450  0.82400  0.86350  Biso   1.000  N
  N124     1.0000 0.62210  0.78890  0.91240  Biso   1.000  N
  H169     1.0000 0.59070  0.79340  0.92600  Biso   1.000  H
  N125     1.0000 0.93200  0.70750  0.64450  Biso   1.000  N
  N126     1.0000 0.84920  0.71530  0.56460  Biso   1.000  N
  C183     1.0000 0.74640  0.14450  0.74930  Biso   1.000  C
  H170     1.0000 0.70440  0.15020  0.73890  Biso   1.000  H
  C184     1.0000 0.83550  0.18080  0.76070  Biso   1.000  C
  H171     1.0000 0.87110  0.21350  0.75990  Biso   1.000  H
  C185     1.0000 0.87930  0.82090  0.78100  Biso   1.000  C
  H172     1.0000 0.87310  0.85840  0.74390  Biso   1.000  H
  C186     1.0000 0.86530  0.75840  0.86130  Biso   1.000  C
  H173     1.0000 0.84920  0.74300  0.89440  Biso   1.000  H
  C187     1.0000 0.91400  0.71510  0.85130  Biso   1.000  C
  H174     1.0000 0.93700  0.66300  0.87560  Biso   1.000  H
  C188     1.0000 0.61920  0.04620  0.77300  Biso   1.000  C
  H175     1.0000 0.64120  0.09150  0.80370  Biso   1.000  H
  C189     1.0000 0.59930  0.92790  0.70960  Biso   1.000  C
  H176     1.0000 0.60230  0.87260  0.68390  Biso   1.000  H
  C190     1.0000 0.54860  0.97610  0.70890  Biso   1.000  C
  H177     1.0000 0.50990  0.95760  0.68440  Biso   1.000  H
  C191     1.0000 0.75490  0.03920  0.91590  Biso   1.000  C
  H178     1.0000 0.71350  0.04740  0.89720  Biso   1.000  H
  C192     1.0000 0.83190  0.08820  0.78610  Biso   1.000  C
  H179     1.0000 0.86480  0.04790  0.80720  Biso   1.000  H
  C193     1.0000 0.83830  0.05600  0.97460  Biso   1.000  C
  H180     1.0000 0.87200  0.07850  0.00620  Biso   1.000  H
  C194     1.0000 0.76420  0.94270  0.59700  Biso   1.000  C
  H181     1.0000 0.77700  0.98190  0.56800  Biso   1.000  H
  C195     1.0000 0.77030  0.96880  0.65680  Biso   1.000  C
  H182     1.0000 0.79070  0.02590  0.67790  Biso   1.000  H
  C196     1.0000 0.70430  0.74480  0.90170  Biso   1.000  C
  H183     1.0000 0.74000  0.70960  0.90400  Biso   1.000  H
  C197     1.0000 0.63230  0.84620  0.86590  Biso   1.000  C
  H184     1.0000 0.60570  0.89310  0.84050  Biso   1.000  H
  C198     1.0000 0.83830  0.97730  0.93760  Biso   1.000  C
  H185     1.0000 0.87120  0.93470  0.93950  Biso   1.000  H
  C199     1.0000 0.99630  0.93680  0.67730  Biso   1.000  C
  N127     1.0000 0.99690  0.89170  0.73460  Biso   1.000  N
  C200     1.0000 0.01150  0.95980  0.78540  Biso   1.000  C
  C201     1.0000 0.02020  0.05290  0.76220  Biso   1.000  C
  N128     1.0000 0.00960  0.03600  0.69520  Biso   1.000  N
  C202     1.0000 0.73150  0.82250  0.64040  Biso   1.000  C
  H186     1.0000 0.72250  0.75550  0.64930  Biso   1.000  H
  C203     1.0000 0.66920  0.72240  0.93490  Biso   1.000  C
  H187     1.0000 0.67430  0.67310  0.96640  Biso   1.000  H
  C204     1.0000 0.88110  0.75350  0.61860  Biso   1.000  C
  H188     1.0000 0.86810  0.80980  0.63710  Biso   1.000  H
  C205     1.0000 0.93300  0.63190  0.60290  Biso   1.000  C
  H189     1.0000 0.96400  0.58430  0.60720  Biso   1.000  H
  C206     1.0000 0.88290  0.63610  0.55540  Biso   1.000  C
  H190     1.0000 0.87270  0.59140  0.52110  Biso   1.000  H
  C207     1.0000 0.72260  0.94850  0.58470  Biso   1.000  C
  H191     1.0000 0.71290  0.99140  0.54950  Biso   1.000  H
  C208     1.0000 0.72560  0.97520  0.64100  Biso   1.000  C
  H192     1.0000 0.71900  0.04170  0.65300  Biso   1.000  H
  Gd9      1.0000 0.50000  0.79527  0.25000  Biso   1.000  Gd
  Gd10     1.0000 0.00000  0.29527  0.25000  Biso   1.000  Gd
  Gd11     1.0000 0.50000  0.20473  0.75000  Biso   1.000  Gd
  Gd12     1.0000 0.00000  0.70473  0.75000  Biso   1.000  Gd
  Gd13     1.0000 0.25000  0.75000  0.00000  Biso   1.000  Gd
  Gd14     1.0000 0.75000  0.75000  0.50000  Biso   1.000  Gd
  Gd15     1.0000 0.75000  0.25000  0.00000  Biso   1.000  Gd
  Gd16     1.0000 0.25000  0.25000  0.50000  Biso   1.000  Gd
