data_image0
_cell_length_a       18.606
_cell_length_b       18.606
_cell_length_c       38.653
_cell_angle_alpha    90
_cell_angle_beta     90
_cell_angle_gamma    120

_symmetry_space_group_name_H-M    "P 1"
_symmetry_int_tables_number       1

loop_
  _symmetry_equiv_pos_as_xyz
  'x, y, z'

loop_
  _atom_site_label
  _atom_site_occupancy
  _atom_site_fract_x
  _atom_site_fract_y
  _atom_site_fract_z
  _atom_site_thermal_displace_type
  _atom_site_B_iso_or_equiv
  _atom_site_type_symbol
  C1       1.0000 0.72720  0.82070  0.32230  Biso   1.000  C
  H1       1.0000 0.76920  0.81090  0.31510  Biso   1.000  H
  C2       1.0000 0.62930  0.77100  0.30940  Biso   1.000  C
  C3       1.0000 0.78670  0.02720  0.19367  Biso   1.000  C
  C4       1.0000 0.73570  0.93190  0.24462  Biso   1.000  C
  H2       1.0000 0.72490  0.96990  0.25560  Biso   1.000  H
  C5       1.0000 0.76640  0.94740  0.21088  Biso   1.000  C
  N1       1.0000 0.57480  0.69520  0.28760  Biso   1.000  N
  H3       1.0000 0.58180  0.69650  0.26560  Biso   1.000  H
  H4       1.0000 0.53680  0.65070  0.29730  Biso   1.000  H
  O1       1.0000 0.81459  0.03764  0.16351  Biso   1.000  O
  O2       1.0000 0.77538  0.07788  0.21085  Biso   1.000  O
  C6       1.0000 0.39387  0.15403  0.65563  Biso   1.000  C
  H5       1.0000 0.43587  0.14423  0.64843  Biso   1.000  H
  C7       1.0000 0.29597  0.10433  0.64273  Biso   1.000  C
  C8       1.0000 0.45337  0.36053  0.52700  Biso   1.000  C
  C9       1.0000 0.40237  0.26523  0.57795  Biso   1.000  C
  H6       1.0000 0.39157  0.30323  0.58893  Biso   1.000  H
  C10      1.0000 0.43307  0.28073  0.54421  Biso   1.000  C
  N2       1.0000 0.24147  0.02853  0.62093  Biso   1.000  N
  H7       1.0000 0.24847  0.02983  0.59893  Biso   1.000  H
  H8       1.0000 0.20347  0.98403  0.63063  Biso   1.000  H
  O3       1.0000 0.48126  0.37097  0.49684  Biso   1.000  O
  O4       1.0000 0.44205  0.41121  0.54418  Biso   1.000  O
  C11      1.0000 0.06053  0.48737  0.98897  Biso   1.000  C
  H9       1.0000 0.10253  0.47757  0.98177  Biso   1.000  H
  C12      1.0000 0.96263  0.43767  0.97607  Biso   1.000  C
  C13      1.0000 0.12003  0.69387  0.86034  Biso   1.000  C
  C14      1.0000 0.06903  0.59857  0.91129  Biso   1.000  C
  H10      1.0000 0.05823  0.63657  0.92227  Biso   1.000  H
  C15      1.0000 0.09973  0.61407  0.87755  Biso   1.000  C
  N3       1.0000 0.90813  0.36187  0.95427  Biso   1.000  N
  H11      1.0000 0.91513  0.36317  0.93227  Biso   1.000  H
  H12      1.0000 0.87013  0.31737  0.96397  Biso   1.000  H
  O5       1.0000 0.14792  0.70431  0.83018  Biso   1.000  O
  O6       1.0000 0.10871  0.74455  0.87752  Biso   1.000  O
  C16      1.0000 0.17930  0.90650  0.32230  Biso   1.000  C
  H13      1.0000 0.18910  0.95830  0.31510  Biso   1.000  H
  C17      1.0000 0.22900  0.85830  0.30940  Biso   1.000  C
  C18      1.0000 0.97280  0.75950  0.19367  Biso   1.000  C
  C19      1.0000 0.06810  0.80380  0.24462  Biso   1.000  C
  H14      1.0000 0.03010  0.75500  0.25560  Biso   1.000  H
  C20      1.0000 0.05260  0.81900  0.21088  Biso   1.000  C
  N4       1.0000 0.30480  0.87960  0.28760  Biso   1.000  N
  H15      1.0000 0.30350  0.88530  0.26560  Biso   1.000  H
  H16      1.0000 0.34930  0.88610  0.29730  Biso   1.000  H
  O7       1.0000 0.96236  0.77695  0.16351  Biso   1.000  O
  O8       1.0000 0.92212  0.69750  0.21085  Biso   1.000  O
  C21      1.0000 0.84597  0.23983  0.65563  Biso   1.000  C
  H17      1.0000 0.85577  0.29163  0.64843  Biso   1.000  H
  C22      1.0000 0.89567  0.19163  0.64273  Biso   1.000  C
  C23      1.0000 0.63947  0.09283  0.52700  Biso   1.000  C
  C24      1.0000 0.73477  0.13713  0.57795  Biso   1.000  C
  H18      1.0000 0.69677  0.08833  0.58893  Biso   1.000  H
  C25      1.0000 0.71927  0.15233  0.54421  Biso   1.000  C
  N5       1.0000 0.97147  0.21293  0.62093  Biso   1.000  N
  H19      1.0000 0.97017  0.21863  0.59893  Biso   1.000  H
  H20      1.0000 0.01597  0.21943  0.63063  Biso   1.000  H
  O9       1.0000 0.62903  0.11028  0.49684  Biso   1.000  O
  O10      1.0000 0.58879  0.03083  0.54418  Biso   1.000  O
  C26      1.0000 0.51263  0.57317  0.98897  Biso   1.000  C
  H21      1.0000 0.52243  0.62497  0.98177  Biso   1.000  H
  C27      1.0000 0.56233  0.52497  0.97607  Biso   1.000  C
  C28      1.0000 0.30613  0.42617  0.86034  Biso   1.000  C
  C29      1.0000 0.40143  0.47047  0.91129  Biso   1.000  C
  H22      1.0000 0.36343  0.42167  0.92227  Biso   1.000  H
  C30      1.0000 0.38593  0.48567  0.87755  Biso   1.000  C
  N6       1.0000 0.63813  0.54627  0.95427  Biso   1.000  N
  H23      1.0000 0.63683  0.55197  0.93227  Biso   1.000  H
  H24      1.0000 0.68263  0.55277  0.96397  Biso   1.000  H
  O11      1.0000 0.29569  0.44362  0.83018  Biso   1.000  O
  O12      1.0000 0.25545  0.36417  0.87752  Biso   1.000  O
  C31      1.0000 0.09350  0.27280  0.32230  Biso   1.000  C
  H25      1.0000 0.04170  0.23080  0.31510  Biso   1.000  H
  C32      1.0000 0.14170  0.37070  0.30940  Biso   1.000  C
  C33      1.0000 0.24050  0.21330  0.19367  Biso   1.000  C
  C34      1.0000 0.19620  0.26430  0.24462  Biso   1.000  C
  H26      1.0000 0.24500  0.27510  0.25560  Biso   1.000  H
  C35      1.0000 0.18100  0.23360  0.21088  Biso   1.000  C
  N7       1.0000 0.12040  0.42520  0.28760  Biso   1.000  N
  H27      1.0000 0.11470  0.41820  0.26560  Biso   1.000  H
  H28      1.0000 0.11390  0.46320  0.29730  Biso   1.000  H
  O13      1.0000 0.22305  0.18541  0.16351  Biso   1.000  O
  O14      1.0000 0.30250  0.22462  0.21085  Biso   1.000  O
  C36      1.0000 0.76017  0.60613  0.65563  Biso   1.000  C
  H29      1.0000 0.70837  0.56413  0.64843  Biso   1.000  H
  C37      1.0000 0.80837  0.70403  0.64273  Biso   1.000  C
  C38      1.0000 0.90717  0.54663  0.52700  Biso   1.000  C
  C39      1.0000 0.86287  0.59763  0.57795  Biso   1.000  C
  H30      1.0000 0.91167  0.60843  0.58893  Biso   1.000  H
  C40      1.0000 0.84767  0.56693  0.54421  Biso   1.000  C
  N8       1.0000 0.78707  0.75853  0.62093  Biso   1.000  N
  H31      1.0000 0.78137  0.75153  0.59893  Biso   1.000  H
  H32      1.0000 0.78057  0.79653  0.63063  Biso   1.000  H
  O15      1.0000 0.88972  0.51874  0.49684  Biso   1.000  O
  O16      1.0000 0.96917  0.55795  0.54418  Biso   1.000  O
  C41      1.0000 0.42683  0.93947  0.98897  Biso   1.000  C
  H33      1.0000 0.37503  0.89747  0.98177  Biso   1.000  H
  C42      1.0000 0.47503  0.03737  0.97607  Biso   1.000  C
  C43      1.0000 0.57383  0.87997  0.86034  Biso   1.000  C
  C44      1.0000 0.52953  0.93097  0.91129  Biso   1.000  C
  H34      1.0000 0.57833  0.94177  0.92227  Biso   1.000  H
  C45      1.0000 0.51433  0.90027  0.87755  Biso   1.000  C
  N9       1.0000 0.45373  0.09187  0.95427  Biso   1.000  N
  H35      1.0000 0.44803  0.08487  0.93227  Biso   1.000  H
  H36      1.0000 0.44723  0.12987  0.96397  Biso   1.000  H
  O17      1.0000 0.55638  0.85208  0.83018  Biso   1.000  O
  O18      1.0000 0.63583  0.89129  0.87752  Biso   1.000  O
  C46      1.0000 0.82070  0.72720  0.67770  Biso   1.000  C
  H37      1.0000 0.81090  0.76920  0.68490  Biso   1.000  H
  C47      1.0000 0.77100  0.62930  0.69060  Biso   1.000  C
  C48      1.0000 0.02720  0.78670  0.80633  Biso   1.000  C
  C49      1.0000 0.93190  0.73570  0.75538  Biso   1.000  C
  H38      1.0000 0.96990  0.72490  0.74440  Biso   1.000  H
  C50      1.0000 0.94740  0.76640  0.78912  Biso   1.000  C
  N10      1.0000 0.69520  0.57480  0.71240  Biso   1.000  N
  H39      1.0000 0.69650  0.58180  0.73440  Biso   1.000  H
  H40      1.0000 0.65070  0.53680  0.70270  Biso   1.000  H
  O19      1.0000 0.03764  0.81459  0.83649  Biso   1.000  O
  O20      1.0000 0.07788  0.77538  0.78915  Biso   1.000  O
  C51      1.0000 0.48737  0.06053  0.01103  Biso   1.000  C
  H41      1.0000 0.47757  0.10253  0.01823  Biso   1.000  H
  C52      1.0000 0.43767  0.96263  0.02393  Biso   1.000  C
  C53      1.0000 0.69387  0.12003  0.13966  Biso   1.000  C
  C54      1.0000 0.59857  0.06903  0.08871  Biso   1.000  C
  H42      1.0000 0.63657  0.05823  0.07773  Biso   1.000  H
  C55      1.0000 0.61407  0.09973  0.12245  Biso   1.000  C
  N11      1.0000 0.36187  0.90813  0.04573  Biso   1.000  N
  H43      1.0000 0.36317  0.91513  0.06773  Biso   1.000  H
  H44      1.0000 0.31737  0.87013  0.03603  Biso   1.000  H
  O21      1.0000 0.70431  0.14792  0.16982  Biso   1.000  O
  O22      1.0000 0.74455  0.10871  0.12248  Biso   1.000  O
  C56      1.0000 0.15403  0.39387  0.34437  Biso   1.000  C
  H45      1.0000 0.14423  0.43587  0.35157  Biso   1.000  H
  C57      1.0000 0.10433  0.29597  0.35727  Biso   1.000  C
  C58      1.0000 0.36053  0.45337  0.47300  Biso   1.000  C
  C59      1.0000 0.26523  0.40237  0.42205  Biso   1.000  C
  H46      1.0000 0.30323  0.39157  0.41107  Biso   1.000  H
  C60      1.0000 0.28073  0.43307  0.45579  Biso   1.000  C
  N12      1.0000 0.02853  0.24147  0.37907  Biso   1.000  N
  H47      1.0000 0.02983  0.24847  0.40107  Biso   1.000  H
  H48      1.0000 0.98403  0.20347  0.36937  Biso   1.000  H
  O23      1.0000 0.37097  0.48126  0.50316  Biso   1.000  O
  O24      1.0000 0.41121  0.44205  0.45582  Biso   1.000  O
  C61      1.0000 0.90650  0.17930  0.67770  Biso   1.000  C
  H49      1.0000 0.95830  0.18910  0.68490  Biso   1.000  H
  C62      1.0000 0.85830  0.22900  0.69060  Biso   1.000  C
  C63      1.0000 0.75950  0.97280  0.80633  Biso   1.000  C
  C64      1.0000 0.80380  0.06810  0.75538  Biso   1.000  C
  H50      1.0000 0.75500  0.03010  0.74440  Biso   1.000  H
  C65      1.0000 0.81900  0.05260  0.78912  Biso   1.000  C
  N13      1.0000 0.87960  0.30480  0.71240  Biso   1.000  N
  H51      1.0000 0.88530  0.30350  0.73440  Biso   1.000  H
  H52      1.0000 0.88610  0.34930  0.70270  Biso   1.000  H
  O25      1.0000 0.77695  0.96236  0.83649  Biso   1.000  O
  O26      1.0000 0.69750  0.92212  0.78915  Biso   1.000  O
  C66      1.0000 0.57317  0.51263  0.01103  Biso   1.000  C
  H53      1.0000 0.62497  0.52243  0.01823  Biso   1.000  H
  C67      1.0000 0.52497  0.56233  0.02393  Biso   1.000  C
  C68      1.0000 0.42617  0.30613  0.13966  Biso   1.000  C
  C69      1.0000 0.47047  0.40143  0.08871  Biso   1.000  C
  H54      1.0000 0.42167  0.36343  0.07773  Biso   1.000  H
  C70      1.0000 0.48567  0.38593  0.12245  Biso   1.000  C
  N14      1.0000 0.54627  0.63813  0.04573  Biso   1.000  N
  H55      1.0000 0.55197  0.63683  0.06773  Biso   1.000  H
  H56      1.0000 0.55277  0.68263  0.03603  Biso   1.000  H
  O27      1.0000 0.44362  0.29569  0.16982  Biso   1.000  O
  O28      1.0000 0.36417  0.25545  0.12248  Biso   1.000  O
  C71      1.0000 0.23983  0.84597  0.34437  Biso   1.000  C
  H57      1.0000 0.29163  0.85577  0.35157  Biso   1.000  H
  C72      1.0000 0.19163  0.89567  0.35727  Biso   1.000  C
  C73      1.0000 0.09283  0.63947  0.47300  Biso   1.000  C
  C74      1.0000 0.13713  0.73477  0.42205  Biso   1.000  C
  H58      1.0000 0.08833  0.69677  0.41107  Biso   1.000  H
  C75      1.0000 0.15233  0.71927  0.45579  Biso   1.000  C
  N15      1.0000 0.21293  0.97147  0.37907  Biso   1.000  N
  H59      1.0000 0.21863  0.97017  0.40107  Biso   1.000  H
  H60      1.0000 0.21943  0.01597  0.36937  Biso   1.000  H
  O29      1.0000 0.11028  0.62903  0.50316  Biso   1.000  O
  O30      1.0000 0.03083  0.58879  0.45582  Biso   1.000  O
  C76      1.0000 0.27280  0.09350  0.67770  Biso   1.000  C
  H61      1.0000 0.23080  0.04170  0.68490  Biso   1.000  H
  C77      1.0000 0.37070  0.14170  0.69060  Biso   1.000  C
  C78      1.0000 0.21330  0.24050  0.80633  Biso   1.000  C
  C79      1.0000 0.26430  0.19620  0.75538  Biso   1.000  C
  H62      1.0000 0.27510  0.24500  0.74440  Biso   1.000  H
  C80      1.0000 0.23360  0.18100  0.78912  Biso   1.000  C
  N16      1.0000 0.42520  0.12040  0.71240  Biso   1.000  N
  H63      1.0000 0.41820  0.11470  0.73440  Biso   1.000  H
  H64      1.0000 0.46320  0.11390  0.70270  Biso   1.000  H
  O31      1.0000 0.18541  0.22305  0.83649  Biso   1.000  O
  O32      1.0000 0.22462  0.30250  0.78915  Biso   1.000  O
  C81      1.0000 0.93947  0.42683  0.01103  Biso   1.000  C
  H65      1.0000 0.89747  0.37503  0.01823  Biso   1.000  H
  C82      1.0000 0.03737  0.47503  0.02393  Biso   1.000  C
  C83      1.0000 0.87997  0.57383  0.13966  Biso   1.000  C
  C84      1.0000 0.93097  0.52953  0.08871  Biso   1.000  C
  H66      1.0000 0.94177  0.57833  0.07773  Biso   1.000  H
  C85      1.0000 0.90027  0.51433  0.12245  Biso   1.000  C
  N17      1.0000 0.09187  0.45373  0.04573  Biso   1.000  N
  H67      1.0000 0.08487  0.44803  0.06773  Biso   1.000  H
  H68      1.0000 0.12987  0.44723  0.03603  Biso   1.000  H
  O33      1.0000 0.85208  0.55638  0.16982  Biso   1.000  O
  O34      1.0000 0.89129  0.63583  0.12248  Biso   1.000  O
  C86      1.0000 0.60613  0.76017  0.34437  Biso   1.000  C
  H69      1.0000 0.56413  0.70837  0.35157  Biso   1.000  H
  C87      1.0000 0.70403  0.80837  0.35727  Biso   1.000  C
  C88      1.0000 0.54663  0.90717  0.47300  Biso   1.000  C
  C89      1.0000 0.59763  0.86287  0.42205  Biso   1.000  C
  H70      1.0000 0.60843  0.91167  0.41107  Biso   1.000  H
  C90      1.0000 0.56693  0.84767  0.45579  Biso   1.000  C
  N18      1.0000 0.75853  0.78707  0.37907  Biso   1.000  N
  H71      1.0000 0.75153  0.78137  0.40107  Biso   1.000  H
  H72      1.0000 0.79653  0.78057  0.36937  Biso   1.000  H
  O35      1.0000 0.51874  0.88972  0.50316  Biso   1.000  O
  O36      1.0000 0.55795  0.96917  0.45582  Biso   1.000  O
  C91      1.0000 0.27280  0.17930  0.67770  Biso   1.000  C
  H73      1.0000 0.23080  0.18910  0.68490  Biso   1.000  H
  C92      1.0000 0.37070  0.22900  0.69060  Biso   1.000  C
  C93      1.0000 0.21330  0.97280  0.80633  Biso   1.000  C
  C94      1.0000 0.26430  0.06810  0.75538  Biso   1.000  C
  H74      1.0000 0.27510  0.03010  0.74440  Biso   1.000  H
  C95      1.0000 0.23360  0.05260  0.78912  Biso   1.000  C
  N19      1.0000 0.42520  0.30480  0.71240  Biso   1.000  N
  H75      1.0000 0.41820  0.30350  0.73440  Biso   1.000  H
  H76      1.0000 0.46320  0.34930  0.70270  Biso   1.000  H
  O37      1.0000 0.18541  0.96236  0.83649  Biso   1.000  O
  O38      1.0000 0.22462  0.92212  0.78915  Biso   1.000  O
  C96      1.0000 0.93947  0.51263  0.01103  Biso   1.000  C
  H77      1.0000 0.89747  0.52243  0.01823  Biso   1.000  H
  C97      1.0000 0.03737  0.56233  0.02393  Biso   1.000  C
  C98      1.0000 0.87997  0.30613  0.13966  Biso   1.000  C
  C99      1.0000 0.93097  0.40143  0.08871  Biso   1.000  C
  H78      1.0000 0.94177  0.36343  0.07773  Biso   1.000  H
  C100     1.0000 0.90027  0.38593  0.12245  Biso   1.000  C
  N20      1.0000 0.09187  0.63813  0.04573  Biso   1.000  N
  H79      1.0000 0.08487  0.63683  0.06773  Biso   1.000  H
  H80      1.0000 0.12987  0.68263  0.03603  Biso   1.000  H
  O39      1.0000 0.85208  0.29569  0.16982  Biso   1.000  O
  O40      1.0000 0.89129  0.25545  0.12248  Biso   1.000  O
  C101     1.0000 0.60613  0.84597  0.34437  Biso   1.000  C
  H81      1.0000 0.56413  0.85577  0.35157  Biso   1.000  H
  C102     1.0000 0.70403  0.89567  0.35727  Biso   1.000  C
  C103     1.0000 0.54663  0.63947  0.47300  Biso   1.000  C
  C104     1.0000 0.59763  0.73477  0.42205  Biso   1.000  C
  H82      1.0000 0.60843  0.69677  0.41107  Biso   1.000  H
  C105     1.0000 0.56693  0.71927  0.45579  Biso   1.000  C
  N21      1.0000 0.75853  0.97147  0.37907  Biso   1.000  N
  H83      1.0000 0.75153  0.97017  0.40107  Biso   1.000  H
  H84      1.0000 0.79653  0.01597  0.36937  Biso   1.000  H
  O41      1.0000 0.51874  0.62903  0.50316  Biso   1.000  O
  O42      1.0000 0.55795  0.58879  0.45582  Biso   1.000  O
  C106     1.0000 0.82070  0.09350  0.67770  Biso   1.000  C
  H85      1.0000 0.81090  0.04170  0.68490  Biso   1.000  H
  C107     1.0000 0.77100  0.14170  0.69060  Biso   1.000  C
  C108     1.0000 0.02720  0.24050  0.80633  Biso   1.000  C
  C109     1.0000 0.93190  0.19620  0.75538  Biso   1.000  C
  H86      1.0000 0.96990  0.24500  0.74440  Biso   1.000  H
  C110     1.0000 0.94740  0.18100  0.78912  Biso   1.000  C
  N22      1.0000 0.69520  0.12040  0.71240  Biso   1.000  N
  H87      1.0000 0.69650  0.11470  0.73440  Biso   1.000  H
  H88      1.0000 0.65070  0.11390  0.70270  Biso   1.000  H
  O43      1.0000 0.03764  0.22305  0.83649  Biso   1.000  O
  O44      1.0000 0.07788  0.30250  0.78915  Biso   1.000  O
  C111     1.0000 0.48737  0.42683  0.01103  Biso   1.000  C
  H89      1.0000 0.47757  0.37503  0.01823  Biso   1.000  H
  C112     1.0000 0.43767  0.47503  0.02393  Biso   1.000  C
  C113     1.0000 0.69387  0.57383  0.13966  Biso   1.000  C
  C114     1.0000 0.59857  0.52953  0.08871  Biso   1.000  C
  H90      1.0000 0.63657  0.57833  0.07773  Biso   1.000  H
  C115     1.0000 0.61407  0.51433  0.12245  Biso   1.000  C
  N23      1.0000 0.36187  0.45373  0.04573  Biso   1.000  N
  H91      1.0000 0.36317  0.44803  0.06773  Biso   1.000  H
  H92      1.0000 0.31737  0.44723  0.03603  Biso   1.000  H
  O45      1.0000 0.70431  0.55638  0.16982  Biso   1.000  O
  O46      1.0000 0.74455  0.63583  0.12248  Biso   1.000  O
  C116     1.0000 0.15403  0.76017  0.34437  Biso   1.000  C
  H93      1.0000 0.14423  0.70837  0.35157  Biso   1.000  H
  C117     1.0000 0.10433  0.80837  0.35727  Biso   1.000  C
  C118     1.0000 0.36053  0.90717  0.47300  Biso   1.000  C
  C119     1.0000 0.26523  0.86287  0.42205  Biso   1.000  C
  H94      1.0000 0.30323  0.91167  0.41107  Biso   1.000  H
  C120     1.0000 0.28073  0.84767  0.45579  Biso   1.000  C
  N24      1.0000 0.02853  0.78707  0.37907  Biso   1.000  N
  H95      1.0000 0.02983  0.78137  0.40107  Biso   1.000  H
  H96      1.0000 0.98403  0.78057  0.36937  Biso   1.000  H
  O47      1.0000 0.37097  0.88972  0.50316  Biso   1.000  O
  O48      1.0000 0.41121  0.96917  0.45582  Biso   1.000  O
  C121     1.0000 0.90650  0.72720  0.67770  Biso   1.000  C
  H97      1.0000 0.95830  0.76920  0.68490  Biso   1.000  H
  C122     1.0000 0.85830  0.62930  0.69060  Biso   1.000  C
  C123     1.0000 0.75950  0.78670  0.80633  Biso   1.000  C
  C124     1.0000 0.80380  0.73570  0.75538  Biso   1.000  C
  H98      1.0000 0.75500  0.72490  0.74440  Biso   1.000  H
  C125     1.0000 0.81900  0.76640  0.78912  Biso   1.000  C
  N25      1.0000 0.87960  0.57480  0.71240  Biso   1.000  N
  H99      1.0000 0.88530  0.58180  0.73440  Biso   1.000  H
  H100     1.0000 0.88610  0.53680  0.70270  Biso   1.000  H
  O49      1.0000 0.77695  0.81459  0.83649  Biso   1.000  O
  O50      1.0000 0.69750  0.77538  0.78915  Biso   1.000  O
  C126     1.0000 0.57317  0.06053  0.01103  Biso   1.000  C
  H101     1.0000 0.62497  0.10253  0.01823  Biso   1.000  H
  C127     1.0000 0.52497  0.96263  0.02393  Biso   1.000  C
  C128     1.0000 0.42617  0.12003  0.13966  Biso   1.000  C
  C129     1.0000 0.47047  0.06903  0.08871  Biso   1.000  C
  H102     1.0000 0.42167  0.05823  0.07773  Biso   1.000  H
  C130     1.0000 0.48567  0.09973  0.12245  Biso   1.000  C
  N26      1.0000 0.54627  0.90813  0.04573  Biso   1.000  N
  H103     1.0000 0.55197  0.91513  0.06773  Biso   1.000  H
  H104     1.0000 0.55277  0.87013  0.03603  Biso   1.000  H
  O51      1.0000 0.44362  0.14792  0.16982  Biso   1.000  O
  O52      1.0000 0.36417  0.10871  0.12248  Biso   1.000  O
  C131     1.0000 0.23983  0.39387  0.34437  Biso   1.000  C
  H105     1.0000 0.29163  0.43587  0.35157  Biso   1.000  H
  C132     1.0000 0.19163  0.29597  0.35727  Biso   1.000  C
  C133     1.0000 0.09283  0.45337  0.47300  Biso   1.000  C
  C134     1.0000 0.13713  0.40237  0.42205  Biso   1.000  C
  H106     1.0000 0.08833  0.39157  0.41107  Biso   1.000  H
  C135     1.0000 0.15233  0.43307  0.45579  Biso   1.000  C
  N27      1.0000 0.21293  0.24147  0.37907  Biso   1.000  N
  H107     1.0000 0.21863  0.24847  0.40107  Biso   1.000  H
  H108     1.0000 0.21943  0.20347  0.36937  Biso   1.000  H
  O53      1.0000 0.11028  0.48126  0.50316  Biso   1.000  O
  O54      1.0000 0.03083  0.44205  0.45582  Biso   1.000  O
  C136     1.0000 0.17930  0.27280  0.32230  Biso   1.000  C
  H109     1.0000 0.18910  0.23080  0.31510  Biso   1.000  H
  C137     1.0000 0.22900  0.37070  0.30940  Biso   1.000  C
  C138     1.0000 0.97280  0.21330  0.19367  Biso   1.000  C
  C139     1.0000 0.06810  0.26430  0.24462  Biso   1.000  C
  H110     1.0000 0.03010  0.27510  0.25560  Biso   1.000  H
  C140     1.0000 0.05260  0.23360  0.21088  Biso   1.000  C
  N28      1.0000 0.30480  0.42520  0.28760  Biso   1.000  N
  H111     1.0000 0.30350  0.41820  0.26560  Biso   1.000  H
  H112     1.0000 0.34930  0.46320  0.29730  Biso   1.000  H
  O55      1.0000 0.96236  0.18541  0.16351  Biso   1.000  O
  O56      1.0000 0.92212  0.22462  0.21085  Biso   1.000  O
  C141     1.0000 0.84597  0.60613  0.65563  Biso   1.000  C
  H113     1.0000 0.85577  0.56413  0.64843  Biso   1.000  H
  C142     1.0000 0.89567  0.70403  0.64273  Biso   1.000  C
  C143     1.0000 0.63947  0.54663  0.52700  Biso   1.000  C
  C144     1.0000 0.73477  0.59763  0.57795  Biso   1.000  C
  H114     1.0000 0.69677  0.60843  0.58893  Biso   1.000  H
  C145     1.0000 0.71927  0.56693  0.54421  Biso   1.000  C
  N29      1.0000 0.97147  0.75853  0.62093  Biso   1.000  N
  H115     1.0000 0.97017  0.75153  0.59893  Biso   1.000  H
  H116     1.0000 0.01597  0.79653  0.63063  Biso   1.000  H
  O57      1.0000 0.62903  0.51874  0.49684  Biso   1.000  O
  O58      1.0000 0.58879  0.55795  0.54418  Biso   1.000  O
  C146     1.0000 0.51263  0.93947  0.98897  Biso   1.000  C
  H117     1.0000 0.52243  0.89747  0.98177  Biso   1.000  H
  C147     1.0000 0.56233  0.03737  0.97607  Biso   1.000  C
  C148     1.0000 0.30613  0.87997  0.86034  Biso   1.000  C
  C149     1.0000 0.40143  0.93097  0.91129  Biso   1.000  C
  H118     1.0000 0.36343  0.94177  0.92227  Biso   1.000  H
  C150     1.0000 0.38593  0.90027  0.87755  Biso   1.000  C
  N30      1.0000 0.63813  0.09187  0.95427  Biso   1.000  N
  H119     1.0000 0.63683  0.08487  0.93227  Biso   1.000  H
  H120     1.0000 0.68263  0.12987  0.96397  Biso   1.000  H
  O59      1.0000 0.29569  0.85208  0.83018  Biso   1.000  O
  O60      1.0000 0.25545  0.89129  0.87752  Biso   1.000  O
  C151     1.0000 0.09350  0.82070  0.32230  Biso   1.000  C
  H121     1.0000 0.04170  0.81090  0.31510  Biso   1.000  H
  C152     1.0000 0.14170  0.77100  0.30940  Biso   1.000  C
  C153     1.0000 0.24050  0.02720  0.19367  Biso   1.000  C
  C154     1.0000 0.19620  0.93190  0.24462  Biso   1.000  C
  H122     1.0000 0.24500  0.96990  0.25560  Biso   1.000  H
  C155     1.0000 0.18100  0.94740  0.21088  Biso   1.000  C
  N31      1.0000 0.12040  0.69520  0.28760  Biso   1.000  N
  H123     1.0000 0.11470  0.69650  0.26560  Biso   1.000  H
  H124     1.0000 0.11390  0.65070  0.29730  Biso   1.000  H
  O61      1.0000 0.22305  0.03764  0.16351  Biso   1.000  O
  O62      1.0000 0.30250  0.07788  0.21085  Biso   1.000  O
  C156     1.0000 0.76017  0.15403  0.65563  Biso   1.000  C
  H125     1.0000 0.70837  0.14423  0.64843  Biso   1.000  H
  C157     1.0000 0.80837  0.10433  0.64273  Biso   1.000  C
  C158     1.0000 0.90717  0.36053  0.52700  Biso   1.000  C
  C159     1.0000 0.86287  0.26523  0.57795  Biso   1.000  C
  H126     1.0000 0.91167  0.30323  0.58893  Biso   1.000  H
  C160     1.0000 0.84767  0.28073  0.54421  Biso   1.000  C
  N32      1.0000 0.78707  0.02853  0.62093  Biso   1.000  N
  H127     1.0000 0.78137  0.02983  0.59893  Biso   1.000  H
  H128     1.0000 0.78057  0.98403  0.63063  Biso   1.000  H
  O63      1.0000 0.88972  0.37097  0.49684  Biso   1.000  O
  O64      1.0000 0.96917  0.41121  0.54418  Biso   1.000  O
  C161     1.0000 0.42683  0.48737  0.98897  Biso   1.000  C
  H129     1.0000 0.37503  0.47757  0.98177  Biso   1.000  H
  C162     1.0000 0.47503  0.43767  0.97607  Biso   1.000  C
  C163     1.0000 0.57383  0.69387  0.86034  Biso   1.000  C
  C164     1.0000 0.52953  0.59857  0.91129  Biso   1.000  C
  H130     1.0000 0.57833  0.63657  0.92227  Biso   1.000  H
  C165     1.0000 0.51433  0.61407  0.87755  Biso   1.000  C
  N33      1.0000 0.45373  0.36187  0.95427  Biso   1.000  N
  H131     1.0000 0.44803  0.36317  0.93227  Biso   1.000  H
  H132     1.0000 0.44723  0.31737  0.96397  Biso   1.000  H
  O65      1.0000 0.55638  0.70431  0.83018  Biso   1.000  O
  O66      1.0000 0.63583  0.74455  0.87752  Biso   1.000  O
  C166     1.0000 0.72720  0.90650  0.32230  Biso   1.000  C
  H133     1.0000 0.76920  0.95830  0.31510  Biso   1.000  H
  C167     1.0000 0.62930  0.85830  0.30940  Biso   1.000  C
  C168     1.0000 0.78670  0.75950  0.19367  Biso   1.000  C
  C169     1.0000 0.73570  0.80380  0.24462  Biso   1.000  C
  H134     1.0000 0.72490  0.75500  0.25560  Biso   1.000  H
  C170     1.0000 0.76640  0.81900  0.21088  Biso   1.000  C
  N34      1.0000 0.57480  0.87960  0.28760  Biso   1.000  N
  H135     1.0000 0.58180  0.88530  0.26560  Biso   1.000  H
  H136     1.0000 0.53680  0.88610  0.29730  Biso   1.000  H
  O67      1.0000 0.81459  0.77695  0.16351  Biso   1.000  O
  O68      1.0000 0.77538  0.69750  0.21085  Biso   1.000  O
  C171     1.0000 0.39387  0.23983  0.65563  Biso   1.000  C
  H137     1.0000 0.43587  0.29163  0.64843  Biso   1.000  H
  C172     1.0000 0.29597  0.19163  0.64273  Biso   1.000  C
  C173     1.0000 0.45337  0.09283  0.52700  Biso   1.000  C
  C174     1.0000 0.40237  0.13713  0.57795  Biso   1.000  C
  H138     1.0000 0.39157  0.08833  0.58893  Biso   1.000  H
  C175     1.0000 0.43307  0.15233  0.54421  Biso   1.000  C
  N35      1.0000 0.24147  0.21293  0.62093  Biso   1.000  N
  H139     1.0000 0.24847  0.21863  0.59893  Biso   1.000  H
  H140     1.0000 0.20347  0.21943  0.63063  Biso   1.000  H
  O69      1.0000 0.48126  0.11028  0.49684  Biso   1.000  O
  O70      1.0000 0.44205  0.03083  0.54418  Biso   1.000  O
  C176     1.0000 0.06053  0.57317  0.98897  Biso   1.000  C
  H141     1.0000 0.10253  0.62497  0.98177  Biso   1.000  H
  C177     1.0000 0.96263  0.52497  0.97607  Biso   1.000  C
  C178     1.0000 0.12003  0.42617  0.86034  Biso   1.000  C
  C179     1.0000 0.06903  0.47047  0.91129  Biso   1.000  C
  H142     1.0000 0.05823  0.42167  0.92227  Biso   1.000  H
  C180     1.0000 0.09973  0.48567  0.87755  Biso   1.000  C
  N36      1.0000 0.90813  0.54627  0.95427  Biso   1.000  N
  H143     1.0000 0.91513  0.55197  0.93227  Biso   1.000  H
  H144     1.0000 0.87013  0.55277  0.96397  Biso   1.000  H
  O71      1.0000 0.14792  0.44362  0.83018  Biso   1.000  O
  O72      1.0000 0.10871  0.36417  0.87752  Biso   1.000  O
  C181     1.0000 0.72090  0.86045  0.26201  Biso   1.000  C
  C182     1.0000 0.78000  0.89000  0.19440  Biso   1.000  C
  H145     1.0000 0.79870  0.89935  0.17160  Biso   1.000  H
  C183     1.0000 0.69170  0.84585  0.29874  Biso   1.000  C
  C184     1.0000 0.38757  0.19378  0.59534  Biso   1.000  C
  C185     1.0000 0.44667  0.22333  0.52773  Biso   1.000  C
  H146     1.0000 0.46537  0.23268  0.50493  Biso   1.000  H
  C186     1.0000 0.35837  0.17918  0.63207  Biso   1.000  C
  C187     1.0000 0.05423  0.52712  0.92868  Biso   1.000  C
  C188     1.0000 0.11333  0.55667  0.86107  Biso   1.000  C
  H147     1.0000 0.13203  0.56602  0.83827  Biso   1.000  H
  C189     1.0000 0.02503  0.51252  0.96541  Biso   1.000  C
  C190     1.0000 0.13955  0.86045  0.26201  Biso   1.000  C
  C191     1.0000 0.11000  0.89000  0.19440  Biso   1.000  C
  H148     1.0000 0.10065  0.89935  0.17160  Biso   1.000  H
  C192     1.0000 0.15415  0.84585  0.29874  Biso   1.000  C
  C193     1.0000 0.80622  0.19378  0.59534  Biso   1.000  C
  C194     1.0000 0.77667  0.22333  0.52773  Biso   1.000  C
  H149     1.0000 0.76732  0.23268  0.50493  Biso   1.000  H
  C195     1.0000 0.82082  0.17918  0.63207  Biso   1.000  C
  C196     1.0000 0.47288  0.52712  0.92868  Biso   1.000  C
  C197     1.0000 0.44333  0.55667  0.86107  Biso   1.000  C
  H150     1.0000 0.43398  0.56602  0.83827  Biso   1.000  H
  C198     1.0000 0.48748  0.51252  0.96541  Biso   1.000  C
  C199     1.0000 0.13955  0.27910  0.26201  Biso   1.000  C
  C200     1.0000 0.11000  0.22000  0.19440  Biso   1.000  C
  H151     1.0000 0.10065  0.20130  0.17160  Biso   1.000  H
  C201     1.0000 0.15415  0.30830  0.29874  Biso   1.000  C
  C202     1.0000 0.80622  0.61243  0.59534  Biso   1.000  C
  C203     1.0000 0.77667  0.55333  0.52773  Biso   1.000  C
  H152     1.0000 0.76732  0.53463  0.50493  Biso   1.000  H
  C204     1.0000 0.82082  0.64163  0.63207  Biso   1.000  C
  C205     1.0000 0.47288  0.94577  0.92868  Biso   1.000  C
  C206     1.0000 0.44333  0.88667  0.86107  Biso   1.000  C
  H153     1.0000 0.43398  0.86797  0.83827  Biso   1.000  H
  C207     1.0000 0.48748  0.97497  0.96541  Biso   1.000  C
  C208     1.0000 0.86045  0.72090  0.73799  Biso   1.000  C
  C209     1.0000 0.89000  0.78000  0.80560  Biso   1.000  C
  H154     1.0000 0.89935  0.79870  0.82840  Biso   1.000  H
  C210     1.0000 0.84585  0.69170  0.70126  Biso   1.000  C
  C211     1.0000 0.52712  0.05423  0.07132  Biso   1.000  C
  C212     1.0000 0.55667  0.11333  0.13893  Biso   1.000  C
  H155     1.0000 0.56602  0.13203  0.16173  Biso   1.000  H
  C213     1.0000 0.51252  0.02503  0.03459  Biso   1.000  C
  C214     1.0000 0.19378  0.38757  0.40466  Biso   1.000  C
  C215     1.0000 0.22333  0.44667  0.47227  Biso   1.000  C
  H156     1.0000 0.23268  0.46537  0.49507  Biso   1.000  H
  C216     1.0000 0.17918  0.35837  0.36793  Biso   1.000  C
  C217     1.0000 0.86045  0.13955  0.73799  Biso   1.000  C
  C218     1.0000 0.89000  0.11000  0.80560  Biso   1.000  C
  H157     1.0000 0.89935  0.10065  0.82840  Biso   1.000  H
  C219     1.0000 0.84585  0.15415  0.70126  Biso   1.000  C
  C220     1.0000 0.52712  0.47288  0.07132  Biso   1.000  C
  C221     1.0000 0.55667  0.44333  0.13893  Biso   1.000  C
  H158     1.0000 0.56602  0.43398  0.16173  Biso   1.000  H
  C222     1.0000 0.51252  0.48748  0.03459  Biso   1.000  C
  C223     1.0000 0.19378  0.80622  0.40466  Biso   1.000  C
  C224     1.0000 0.22333  0.77667  0.47227  Biso   1.000  C
  H159     1.0000 0.23268  0.76732  0.49507  Biso   1.000  H
  C225     1.0000 0.17918  0.82082  0.36793  Biso   1.000  C
  C226     1.0000 0.27910  0.13955  0.73799  Biso   1.000  C
  C227     1.0000 0.22000  0.11000  0.80560  Biso   1.000  C
  H160     1.0000 0.20130  0.10065  0.82840  Biso   1.000  H
  C228     1.0000 0.30830  0.15415  0.70126  Biso   1.000  C
  C229     1.0000 0.94577  0.47288  0.07132  Biso   1.000  C
  C230     1.0000 0.88667  0.44333  0.13893  Biso   1.000  C
  H161     1.0000 0.86797  0.43398  0.16173  Biso   1.000  H
  C231     1.0000 0.97497  0.48748  0.03459  Biso   1.000  C
  C232     1.0000 0.61243  0.80622  0.40466  Biso   1.000  C
  C233     1.0000 0.55333  0.77667  0.47227  Biso   1.000  C
  H162     1.0000 0.53463  0.76732  0.49507  Biso   1.000  H
  C234     1.0000 0.64163  0.82082  0.36793  Biso   1.000  C
  Cu1      1.0000 0.85667  0.14333  0.13883  Biso   1.000  Cu
  Cu2      1.0000 0.52333  0.47667  0.47217  Biso   1.000  Cu
  Cu3      1.0000 0.19000  0.81000  0.80550  Biso   1.000  Cu
  Cu4      1.0000 0.85667  0.71333  0.13883  Biso   1.000  Cu
  Cu5      1.0000 0.52333  0.04667  0.47217  Biso   1.000  Cu
  Cu6      1.0000 0.19000  0.38000  0.80550  Biso   1.000  Cu
  Cu7      1.0000 0.28667  0.14333  0.13883  Biso   1.000  Cu
  Cu8      1.0000 0.95333  0.47667  0.47217  Biso   1.000  Cu
  Cu9      1.0000 0.62000  0.81000  0.80550  Biso   1.000  Cu
  Cu10     1.0000 0.14333  0.85667  0.86117  Biso   1.000  Cu
  Cu11     1.0000 0.81000  0.19000  0.19450  Biso   1.000  Cu
  Cu12     1.0000 0.47667  0.52333  0.52783  Biso   1.000  Cu
  Cu13     1.0000 0.71333  0.85667  0.86117  Biso   1.000  Cu
  Cu14     1.0000 0.38000  0.19000  0.19450  Biso   1.000  Cu
  Cu15     1.0000 0.04667  0.52333  0.52783  Biso   1.000  Cu
  Cu16     1.0000 0.14333  0.28667  0.86117  Biso   1.000  Cu
  Cu17     1.0000 0.81000  0.62000  0.19450  Biso   1.000  Cu
  Cu18     1.0000 0.47667  0.95333  0.52783  Biso   1.000  Cu
