data_image0
_cell_length_a       18.869
_cell_length_b       18.869
_cell_length_c       38.069
_cell_angle_alpha    90
_cell_angle_beta     90
_cell_angle_gamma    120

_symmetry_space_group_name_H-M    "P 1"
_symmetry_int_tables_number       1

loop_
  _symmetry_equiv_pos_as_xyz
  'x, y, z'

loop_
  _atom_site_label
  _atom_site_occupancy
  _atom_site_fract_x
  _atom_site_fract_y
  _atom_site_fract_z
  _atom_site_thermal_displace_type
  _atom_site_B_iso_or_equiv
  _atom_site_type_symbol
  C1       1.0000 0.09522  0.64015  0.97404  Biso   1.000  C
  C2       1.0000 0.15345  0.71971  0.95716  Biso   1.000  C
  C3       1.0000 0.13842  0.73535  0.92297  Biso   1.000  C
  H1       1.0000 0.09060  0.69740  0.91170  Biso   1.000  H
  C4       1.0000 0.23770  0.84240  0.84347  Biso   1.000  C
  H2       1.0000 0.28770  0.84840  0.85040  Biso   1.000  H
  C5       1.0000 0.10620  0.81180  0.85842  Biso   1.000  C
  O1       1.0000 0.11246  0.62992  0.00510  Biso   1.000  O
  O2       1.0000 0.03473  0.59172  0.95688  Biso   1.000  O
  N1       1.0000 0.03850  0.80140  0.88320  Biso   1.000  N
  H3       1.0000 0.04530  0.80170  0.90560  Biso   1.000  H
  H4       1.0000 0.99340  0.79530  0.87490  Biso   1.000  H
  C6       1.0000 0.76189  0.97348  0.30737  Biso   1.000  C
  C7       1.0000 0.82012  0.05304  0.29049  Biso   1.000  C
  C8       1.0000 0.80509  0.06868  0.25630  Biso   1.000  C
  H5       1.0000 0.75727  0.03073  0.24503  Biso   1.000  H
  C9       1.0000 0.90437  0.17573  0.17680  Biso   1.000  C
  H6       1.0000 0.95437  0.18173  0.18373  Biso   1.000  H
  C10      1.0000 0.77287  0.14513  0.19175  Biso   1.000  C
  O3       1.0000 0.77913  0.96325  0.33843  Biso   1.000  O
  O4       1.0000 0.70140  0.92505  0.29021  Biso   1.000  O
  N2       1.0000 0.70517  0.13473  0.21653  Biso   1.000  N
  H7       1.0000 0.71197  0.13503  0.23893  Biso   1.000  H
  H8       1.0000 0.66007  0.12863  0.20823  Biso   1.000  H
  C11      1.0000 0.42855  0.30682  0.64071  Biso   1.000  C
  C12      1.0000 0.48678  0.38638  0.62383  Biso   1.000  C
  C13      1.0000 0.47175  0.40202  0.58964  Biso   1.000  C
  H9       1.0000 0.42393  0.36407  0.57837  Biso   1.000  H
  C14      1.0000 0.57103  0.50907  0.51014  Biso   1.000  C
  H10      1.0000 0.62103  0.51507  0.51707  Biso   1.000  H
  C15      1.0000 0.43953  0.47847  0.52509  Biso   1.000  C
  O5       1.0000 0.44579  0.29659  0.67177  Biso   1.000  O
  O6       1.0000 0.36806  0.25839  0.62355  Biso   1.000  O
  N3       1.0000 0.37183  0.46807  0.54987  Biso   1.000  N
  H11      1.0000 0.37863  0.46837  0.57227  Biso   1.000  H
  H12      1.0000 0.32673  0.46197  0.54157  Biso   1.000  H
  C16      1.0000 0.35985  0.45507  0.97404  Biso   1.000  C
  C17      1.0000 0.28029  0.43374  0.95716  Biso   1.000  C
  C18      1.0000 0.26465  0.40307  0.92297  Biso   1.000  C
  H13      1.0000 0.30260  0.39320  0.91170  Biso   1.000  H
  C19      1.0000 0.15760  0.39530  0.84347  Biso   1.000  C
  H14      1.0000 0.15160  0.43930  0.85040  Biso   1.000  H
  C20      1.0000 0.18820  0.29440  0.85842  Biso   1.000  C
  O7       1.0000 0.37008  0.48254  0.00510  Biso   1.000  O
  O8       1.0000 0.40828  0.44301  0.95688  Biso   1.000  O
  N4       1.0000 0.19860  0.23710  0.88320  Biso   1.000  N
  H15      1.0000 0.19830  0.24360  0.90560  Biso   1.000  H
  H16      1.0000 0.20470  0.19810  0.87490  Biso   1.000  H
  C21      1.0000 0.02652  0.78840  0.30737  Biso   1.000  C
  C22      1.0000 0.94696  0.76707  0.29049  Biso   1.000  C
  C23      1.0000 0.93132  0.73640  0.25630  Biso   1.000  C
  H17      1.0000 0.96927  0.72653  0.24503  Biso   1.000  H
  C24      1.0000 0.82427  0.72863  0.17680  Biso   1.000  C
  H18      1.0000 0.81827  0.77263  0.18373  Biso   1.000  H
  C25      1.0000 0.85487  0.62773  0.19175  Biso   1.000  C
  O9       1.0000 0.03675  0.81587  0.33843  Biso   1.000  O
  O10      1.0000 0.07495  0.77634  0.29021  Biso   1.000  O
  N5       1.0000 0.86527  0.57043  0.21653  Biso   1.000  N
  H19      1.0000 0.86497  0.57693  0.23893  Biso   1.000  H
  H20      1.0000 0.87137  0.53143  0.20823  Biso   1.000  H
  C26      1.0000 0.69318  0.12174  0.64071  Biso   1.000  C
  C27      1.0000 0.61362  0.10041  0.62383  Biso   1.000  C
  C28      1.0000 0.59798  0.06974  0.58964  Biso   1.000  C
  H21      1.0000 0.63593  0.05987  0.57837  Biso   1.000  H
  C29      1.0000 0.49093  0.06197  0.51014  Biso   1.000  C
  H22      1.0000 0.48493  0.10597  0.51707  Biso   1.000  H
  C30      1.0000 0.52153  0.96107  0.52509  Biso   1.000  C
  O11      1.0000 0.70341  0.14921  0.67177  Biso   1.000  O
  O12      1.0000 0.74161  0.10968  0.62355  Biso   1.000  O
  N6       1.0000 0.53193  0.90377  0.54987  Biso   1.000  N
  H23      1.0000 0.53163  0.91027  0.57227  Biso   1.000  H
  H24      1.0000 0.53803  0.86477  0.54157  Biso   1.000  H
  C31      1.0000 0.54493  0.90478  0.97404  Biso   1.000  C
  C32      1.0000 0.56626  0.84655  0.95716  Biso   1.000  C
  C33      1.0000 0.59693  0.86158  0.92297  Biso   1.000  C
  H25      1.0000 0.60680  0.90940  0.91170  Biso   1.000  H
  C34      1.0000 0.60470  0.76230  0.84347  Biso   1.000  C
  H26      1.0000 0.56070  0.71230  0.85040  Biso   1.000  H
  C35      1.0000 0.70560  0.89380  0.85842  Biso   1.000  C
  O13      1.0000 0.51746  0.88754  0.00510  Biso   1.000  O
  O14      1.0000 0.55699  0.96527  0.95688  Biso   1.000  O
  N7       1.0000 0.76290  0.96150  0.88320  Biso   1.000  N
  H27      1.0000 0.75640  0.95470  0.90560  Biso   1.000  H
  H28      1.0000 0.80190  0.00660  0.87490  Biso   1.000  H
  C36      1.0000 0.21160  0.23811  0.30737  Biso   1.000  C
  C37      1.0000 0.23293  0.17988  0.29049  Biso   1.000  C
  C38      1.0000 0.26360  0.19491  0.25630  Biso   1.000  C
  H29      1.0000 0.27347  0.24273  0.24503  Biso   1.000  H
  C39      1.0000 0.27137  0.09563  0.17680  Biso   1.000  C
  H30      1.0000 0.22737  0.04563  0.18373  Biso   1.000  H
  C40      1.0000 0.37227  0.22713  0.19175  Biso   1.000  C
  O15      1.0000 0.18413  0.22087  0.33843  Biso   1.000  O
  O16      1.0000 0.22366  0.29860  0.29021  Biso   1.000  O
  N8       1.0000 0.42957  0.29483  0.21653  Biso   1.000  N
  H31      1.0000 0.42307  0.28803  0.23893  Biso   1.000  H
  H32      1.0000 0.46857  0.33993  0.20823  Biso   1.000  H
  C41      1.0000 0.87826  0.57145  0.64071  Biso   1.000  C
  C42      1.0000 0.89959  0.51322  0.62383  Biso   1.000  C
  C43      1.0000 0.93026  0.52825  0.58964  Biso   1.000  C
  H33      1.0000 0.94013  0.57607  0.57837  Biso   1.000  H
  C44      1.0000 0.93803  0.42897  0.51014  Biso   1.000  C
  H34      1.0000 0.89403  0.37897  0.51707  Biso   1.000  H
  C45      1.0000 0.03893  0.56047  0.52509  Biso   1.000  C
  O17      1.0000 0.85079  0.55421  0.67177  Biso   1.000  O
  O18      1.0000 0.89032  0.63194  0.62355  Biso   1.000  O
  N9       1.0000 0.09623  0.62817  0.54987  Biso   1.000  N
  H35      1.0000 0.08973  0.62137  0.57227  Biso   1.000  H
  H36      1.0000 0.13523  0.67327  0.54157  Biso   1.000  H
  C46      1.0000 0.64015  0.09522  0.02596  Biso   1.000  C
  C47      1.0000 0.71971  0.15345  0.04284  Biso   1.000  C
  C48      1.0000 0.73535  0.13842  0.07703  Biso   1.000  C
  H37      1.0000 0.69740  0.09060  0.08830  Biso   1.000  H
  C49      1.0000 0.84240  0.23770  0.15653  Biso   1.000  C
  H38      1.0000 0.84840  0.28770  0.14960  Biso   1.000  H
  C50      1.0000 0.81180  0.10620  0.14158  Biso   1.000  C
  O19      1.0000 0.62992  0.11246  0.99490  Biso   1.000  O
  O20      1.0000 0.59172  0.03473  0.04312  Biso   1.000  O
  N10      1.0000 0.80140  0.03850  0.11680  Biso   1.000  N
  H39      1.0000 0.80170  0.04530  0.09440  Biso   1.000  H
  H40      1.0000 0.79530  0.99340  0.12510  Biso   1.000  H
  C51      1.0000 0.30682  0.42855  0.35929  Biso   1.000  C
  C52      1.0000 0.38638  0.48678  0.37617  Biso   1.000  C
  C53      1.0000 0.40202  0.47175  0.41036  Biso   1.000  C
  H41      1.0000 0.36407  0.42393  0.42163  Biso   1.000  H
  C54      1.0000 0.50907  0.57103  0.48986  Biso   1.000  C
  H42      1.0000 0.51507  0.62103  0.48293  Biso   1.000  H
  C55      1.0000 0.47847  0.43953  0.47491  Biso   1.000  C
  O21      1.0000 0.29659  0.44579  0.32823  Biso   1.000  O
  O22      1.0000 0.25839  0.36806  0.37645  Biso   1.000  O
  N11      1.0000 0.46807  0.37183  0.45013  Biso   1.000  N
  H43      1.0000 0.46837  0.37863  0.42773  Biso   1.000  H
  H44      1.0000 0.46197  0.32673  0.45843  Biso   1.000  H
  C56      1.0000 0.97348  0.76189  0.69263  Biso   1.000  C
  C57      1.0000 0.05304  0.82012  0.70951  Biso   1.000  C
  C58      1.0000 0.06868  0.80509  0.74370  Biso   1.000  C
  H45      1.0000 0.03073  0.75727  0.75497  Biso   1.000  H
  C59      1.0000 0.17573  0.90437  0.82320  Biso   1.000  C
  H46      1.0000 0.18173  0.95437  0.81627  Biso   1.000  H
  C60      1.0000 0.14513  0.77287  0.80825  Biso   1.000  C
  O23      1.0000 0.96325  0.77913  0.66157  Biso   1.000  O
  O24      1.0000 0.92505  0.70140  0.70979  Biso   1.000  O
  N12      1.0000 0.13473  0.70517  0.78347  Biso   1.000  N
  H47      1.0000 0.13503  0.71197  0.76107  Biso   1.000  H
  H48      1.0000 0.12863  0.66007  0.79177  Biso   1.000  H
  C61      1.0000 0.45507  0.35985  0.02596  Biso   1.000  C
  C62      1.0000 0.43374  0.28029  0.04284  Biso   1.000  C
  C63      1.0000 0.40307  0.26465  0.07703  Biso   1.000  C
  H49      1.0000 0.39320  0.30260  0.08830  Biso   1.000  H
  C64      1.0000 0.39530  0.15760  0.15653  Biso   1.000  C
  H50      1.0000 0.43930  0.15160  0.14960  Biso   1.000  H
  C65      1.0000 0.29440  0.18820  0.14158  Biso   1.000  C
  O25      1.0000 0.48254  0.37008  0.99490  Biso   1.000  O
  O26      1.0000 0.44301  0.40828  0.04312  Biso   1.000  O
  N13      1.0000 0.23710  0.19860  0.11680  Biso   1.000  N
  H51      1.0000 0.24360  0.19830  0.09440  Biso   1.000  H
  H52      1.0000 0.19810  0.20470  0.12510  Biso   1.000  H
  C66      1.0000 0.12174  0.69318  0.35929  Biso   1.000  C
  C67      1.0000 0.10041  0.61362  0.37617  Biso   1.000  C
  C68      1.0000 0.06974  0.59798  0.41036  Biso   1.000  C
  H53      1.0000 0.05987  0.63593  0.42163  Biso   1.000  H
  C69      1.0000 0.06197  0.49093  0.48986  Biso   1.000  C
  H54      1.0000 0.10597  0.48493  0.48293  Biso   1.000  H
  C70      1.0000 0.96107  0.52153  0.47491  Biso   1.000  C
  O27      1.0000 0.14921  0.70341  0.32823  Biso   1.000  O
  O28      1.0000 0.10968  0.74161  0.37645  Biso   1.000  O
  N14      1.0000 0.90377  0.53193  0.45013  Biso   1.000  N
  H55      1.0000 0.91027  0.53163  0.42773  Biso   1.000  H
  H56      1.0000 0.86477  0.53803  0.45843  Biso   1.000  H
  C71      1.0000 0.78840  0.02652  0.69263  Biso   1.000  C
  C72      1.0000 0.76707  0.94696  0.70951  Biso   1.000  C
  C73      1.0000 0.73640  0.93132  0.74370  Biso   1.000  C
  H57      1.0000 0.72653  0.96927  0.75497  Biso   1.000  H
  C74      1.0000 0.72863  0.82427  0.82320  Biso   1.000  C
  H58      1.0000 0.77263  0.81827  0.81627  Biso   1.000  H
  C75      1.0000 0.62773  0.85487  0.80825  Biso   1.000  C
  O29      1.0000 0.81587  0.03675  0.66157  Biso   1.000  O
  O30      1.0000 0.77634  0.07495  0.70979  Biso   1.000  O
  N15      1.0000 0.57043  0.86527  0.78347  Biso   1.000  N
  H59      1.0000 0.57693  0.86497  0.76107  Biso   1.000  H
  H60      1.0000 0.53143  0.87137  0.79177  Biso   1.000  H
  C76      1.0000 0.90478  0.54493  0.02596  Biso   1.000  C
  C77      1.0000 0.84655  0.56626  0.04284  Biso   1.000  C
  C78      1.0000 0.86158  0.59693  0.07703  Biso   1.000  C
  H61      1.0000 0.90940  0.60680  0.08830  Biso   1.000  H
  C79      1.0000 0.76230  0.60470  0.15653  Biso   1.000  C
  H62      1.0000 0.71230  0.56070  0.14960  Biso   1.000  H
  C80      1.0000 0.89380  0.70560  0.14158  Biso   1.000  C
  O31      1.0000 0.88754  0.51746  0.99490  Biso   1.000  O
  O32      1.0000 0.96527  0.55699  0.04312  Biso   1.000  O
  N16      1.0000 0.96150  0.76290  0.11680  Biso   1.000  N
  H63      1.0000 0.95470  0.75640  0.09440  Biso   1.000  H
  H64      1.0000 0.00660  0.80190  0.12510  Biso   1.000  H
  C81      1.0000 0.57145  0.87826  0.35929  Biso   1.000  C
  C82      1.0000 0.51322  0.89959  0.37617  Biso   1.000  C
  C83      1.0000 0.52825  0.93026  0.41036  Biso   1.000  C
  H65      1.0000 0.57607  0.94013  0.42163  Biso   1.000  H
  C84      1.0000 0.42897  0.93803  0.48986  Biso   1.000  C
  H66      1.0000 0.37897  0.89403  0.48293  Biso   1.000  H
  C85      1.0000 0.56047  0.03893  0.47491  Biso   1.000  C
  O33      1.0000 0.55421  0.85079  0.32823  Biso   1.000  O
  O34      1.0000 0.63194  0.89032  0.37645  Biso   1.000  O
  N17      1.0000 0.62817  0.09623  0.45013  Biso   1.000  N
  H67      1.0000 0.62137  0.08973  0.42773  Biso   1.000  H
  H68      1.0000 0.67327  0.13523  0.45843  Biso   1.000  H
  C86      1.0000 0.23811  0.21160  0.69263  Biso   1.000  C
  C87      1.0000 0.17988  0.23293  0.70951  Biso   1.000  C
  C88      1.0000 0.19491  0.26360  0.74370  Biso   1.000  C
  H69      1.0000 0.24273  0.27347  0.75497  Biso   1.000  H
  C89      1.0000 0.09563  0.27137  0.82320  Biso   1.000  C
  H70      1.0000 0.04563  0.22737  0.81627  Biso   1.000  H
  C90      1.0000 0.22713  0.37227  0.80825  Biso   1.000  C
  O35      1.0000 0.22087  0.18413  0.66157  Biso   1.000  O
  O36      1.0000 0.29860  0.22366  0.70979  Biso   1.000  O
  N18      1.0000 0.29483  0.42957  0.78347  Biso   1.000  N
  H71      1.0000 0.28803  0.42307  0.76107  Biso   1.000  H
  H72      1.0000 0.33993  0.46857  0.79177  Biso   1.000  H
  C91      1.0000 0.90478  0.35985  0.02596  Biso   1.000  C
  C92      1.0000 0.84655  0.28029  0.04284  Biso   1.000  C
  C93      1.0000 0.86158  0.26465  0.07703  Biso   1.000  C
  H73      1.0000 0.90940  0.30260  0.08830  Biso   1.000  H
  C94      1.0000 0.76230  0.15760  0.15653  Biso   1.000  C
  H74      1.0000 0.71230  0.15160  0.14960  Biso   1.000  H
  C95      1.0000 0.89380  0.18820  0.14158  Biso   1.000  C
  O37      1.0000 0.88754  0.37008  0.99490  Biso   1.000  O
  O38      1.0000 0.96527  0.40828  0.04312  Biso   1.000  O
  N19      1.0000 0.96150  0.19860  0.11680  Biso   1.000  N
  H75      1.0000 0.95470  0.19830  0.09440  Biso   1.000  H
  H76      1.0000 0.00660  0.20470  0.12510  Biso   1.000  H
  C96      1.0000 0.57145  0.69318  0.35929  Biso   1.000  C
  C97      1.0000 0.51322  0.61362  0.37617  Biso   1.000  C
  C98      1.0000 0.52825  0.59798  0.41036  Biso   1.000  C
  H77      1.0000 0.57607  0.63593  0.42163  Biso   1.000  H
  C99      1.0000 0.42897  0.49093  0.48986  Biso   1.000  C
  H78      1.0000 0.37897  0.48493  0.48293  Biso   1.000  H
  C100     1.0000 0.56047  0.52153  0.47491  Biso   1.000  C
  O39      1.0000 0.55421  0.70341  0.32823  Biso   1.000  O
  O40      1.0000 0.63194  0.74161  0.37645  Biso   1.000  O
  N20      1.0000 0.62817  0.53193  0.45013  Biso   1.000  N
  H79      1.0000 0.62137  0.53163  0.42773  Biso   1.000  H
  H80      1.0000 0.67327  0.53803  0.45843  Biso   1.000  H
  C101     1.0000 0.23811  0.02652  0.69263  Biso   1.000  C
  C102     1.0000 0.17988  0.94696  0.70951  Biso   1.000  C
  C103     1.0000 0.19491  0.93132  0.74370  Biso   1.000  C
  H81      1.0000 0.24273  0.96927  0.75497  Biso   1.000  H
  C104     1.0000 0.09563  0.82427  0.82320  Biso   1.000  C
  H82      1.0000 0.04563  0.81827  0.81627  Biso   1.000  H
  C105     1.0000 0.22713  0.85487  0.80825  Biso   1.000  C
  O41      1.0000 0.22087  0.03675  0.66157  Biso   1.000  O
  O42      1.0000 0.29860  0.07495  0.70979  Biso   1.000  O
  N21      1.0000 0.29483  0.86527  0.78347  Biso   1.000  N
  H83      1.0000 0.28803  0.86497  0.76107  Biso   1.000  H
  H84      1.0000 0.33993  0.87137  0.79177  Biso   1.000  H
  C106     1.0000 0.64015  0.54493  0.02596  Biso   1.000  C
  C107     1.0000 0.71971  0.56626  0.04284  Biso   1.000  C
  C108     1.0000 0.73535  0.59693  0.07703  Biso   1.000  C
  H85      1.0000 0.69740  0.60680  0.08830  Biso   1.000  H
  C109     1.0000 0.84240  0.60470  0.15653  Biso   1.000  C
  H86      1.0000 0.84840  0.56070  0.14960  Biso   1.000  H
  C110     1.0000 0.81180  0.70560  0.14158  Biso   1.000  C
  O43      1.0000 0.62992  0.51746  0.99490  Biso   1.000  O
  O44      1.0000 0.59172  0.55699  0.04312  Biso   1.000  O
  N22      1.0000 0.80140  0.76290  0.11680  Biso   1.000  N
  H87      1.0000 0.80170  0.75640  0.09440  Biso   1.000  H
  H88      1.0000 0.79530  0.80190  0.12510  Biso   1.000  H
  C111     1.0000 0.30682  0.87826  0.35929  Biso   1.000  C
  C112     1.0000 0.38638  0.89959  0.37617  Biso   1.000  C
  C113     1.0000 0.40202  0.93026  0.41036  Biso   1.000  C
  H89      1.0000 0.36407  0.94013  0.42163  Biso   1.000  H
  C114     1.0000 0.50907  0.93803  0.48986  Biso   1.000  C
  H90      1.0000 0.51507  0.89403  0.48293  Biso   1.000  H
  C115     1.0000 0.47847  0.03893  0.47491  Biso   1.000  C
  O45      1.0000 0.29659  0.85079  0.32823  Biso   1.000  O
  O46      1.0000 0.25839  0.89032  0.37645  Biso   1.000  O
  N23      1.0000 0.46807  0.09623  0.45013  Biso   1.000  N
  H91      1.0000 0.46837  0.08973  0.42773  Biso   1.000  H
  H92      1.0000 0.46197  0.13523  0.45843  Biso   1.000  H
  C116     1.0000 0.97348  0.21160  0.69263  Biso   1.000  C
  C117     1.0000 0.05304  0.23293  0.70951  Biso   1.000  C
  C118     1.0000 0.06868  0.26360  0.74370  Biso   1.000  C
  H93      1.0000 0.03073  0.27347  0.75497  Biso   1.000  H
  C119     1.0000 0.17573  0.27137  0.82320  Biso   1.000  C
  H94      1.0000 0.18173  0.22737  0.81627  Biso   1.000  H
  C120     1.0000 0.14513  0.37227  0.80825  Biso   1.000  C
  O47      1.0000 0.96325  0.18413  0.66157  Biso   1.000  O
  O48      1.0000 0.92505  0.22366  0.70979  Biso   1.000  O
  N24      1.0000 0.13473  0.42957  0.78347  Biso   1.000  N
  H95      1.0000 0.13503  0.42307  0.76107  Biso   1.000  H
  H96      1.0000 0.12863  0.46857  0.79177  Biso   1.000  H
  C121     1.0000 0.45507  0.09522  0.02596  Biso   1.000  C
  C122     1.0000 0.43374  0.15345  0.04284  Biso   1.000  C
  C123     1.0000 0.40307  0.13842  0.07703  Biso   1.000  C
  H97      1.0000 0.39320  0.09060  0.08830  Biso   1.000  H
  C124     1.0000 0.39530  0.23770  0.15653  Biso   1.000  C
  H98      1.0000 0.43930  0.28770  0.14960  Biso   1.000  H
  C125     1.0000 0.29440  0.10620  0.14158  Biso   1.000  C
  O49      1.0000 0.48254  0.11246  0.99490  Biso   1.000  O
  O50      1.0000 0.44301  0.03473  0.04312  Biso   1.000  O
  N25      1.0000 0.23710  0.03850  0.11680  Biso   1.000  N
  H99      1.0000 0.24360  0.04530  0.09440  Biso   1.000  H
  H100     1.0000 0.19810  0.99340  0.12510  Biso   1.000  H
  C126     1.0000 0.12174  0.42855  0.35929  Biso   1.000  C
  C127     1.0000 0.10041  0.48678  0.37617  Biso   1.000  C
  C128     1.0000 0.06974  0.47175  0.41036  Biso   1.000  C
  H101     1.0000 0.05987  0.42393  0.42163  Biso   1.000  H
  C129     1.0000 0.06197  0.57103  0.48986  Biso   1.000  C
  H102     1.0000 0.10597  0.62103  0.48293  Biso   1.000  H
  C130     1.0000 0.96107  0.43953  0.47491  Biso   1.000  C
  O51      1.0000 0.14921  0.44579  0.32823  Biso   1.000  O
  O52      1.0000 0.10968  0.36806  0.37645  Biso   1.000  O
  N26      1.0000 0.90377  0.37183  0.45013  Biso   1.000  N
  H103     1.0000 0.91027  0.37863  0.42773  Biso   1.000  H
  H104     1.0000 0.86477  0.32673  0.45843  Biso   1.000  H
  C131     1.0000 0.78840  0.76189  0.69263  Biso   1.000  C
  C132     1.0000 0.76707  0.82012  0.70951  Biso   1.000  C
  C133     1.0000 0.73640  0.80509  0.74370  Biso   1.000  C
  H105     1.0000 0.72653  0.75727  0.75497  Biso   1.000  H
  C134     1.0000 0.72863  0.90437  0.82320  Biso   1.000  C
  H106     1.0000 0.77263  0.95437  0.81627  Biso   1.000  H
  C135     1.0000 0.62773  0.77287  0.80825  Biso   1.000  C
  O53      1.0000 0.81587  0.77913  0.66157  Biso   1.000  O
  O54      1.0000 0.77634  0.70140  0.70979  Biso   1.000  O
  N27      1.0000 0.57043  0.70517  0.78347  Biso   1.000  N
  H107     1.0000 0.57693  0.71197  0.76107  Biso   1.000  H
  H108     1.0000 0.53143  0.66007  0.79177  Biso   1.000  H
  C136     1.0000 0.35985  0.90478  0.97404  Biso   1.000  C
  C137     1.0000 0.28029  0.84655  0.95716  Biso   1.000  C
  C138     1.0000 0.26465  0.86158  0.92297  Biso   1.000  C
  H109     1.0000 0.30260  0.90940  0.91170  Biso   1.000  H
  C139     1.0000 0.15760  0.76230  0.84347  Biso   1.000  C
  H110     1.0000 0.15160  0.71230  0.85040  Biso   1.000  H
  C140     1.0000 0.18820  0.89380  0.85842  Biso   1.000  C
  O55      1.0000 0.37008  0.88754  0.00510  Biso   1.000  O
  O56      1.0000 0.40828  0.96527  0.95688  Biso   1.000  O
  N28      1.0000 0.19860  0.96150  0.88320  Biso   1.000  N
  H111     1.0000 0.19830  0.95470  0.90560  Biso   1.000  H
  H112     1.0000 0.20470  0.00660  0.87490  Biso   1.000  H
  C141     1.0000 0.02652  0.23811  0.30737  Biso   1.000  C
  C142     1.0000 0.94696  0.17988  0.29049  Biso   1.000  C
  C143     1.0000 0.93132  0.19491  0.25630  Biso   1.000  C
  H113     1.0000 0.96927  0.24273  0.24503  Biso   1.000  H
  C144     1.0000 0.82427  0.09563  0.17680  Biso   1.000  C
  H114     1.0000 0.81827  0.04563  0.18373  Biso   1.000  H
  C145     1.0000 0.85487  0.22713  0.19175  Biso   1.000  C
  O57      1.0000 0.03675  0.22087  0.33843  Biso   1.000  O
  O58      1.0000 0.07495  0.29860  0.29021  Biso   1.000  O
  N29      1.0000 0.86527  0.29483  0.21653  Biso   1.000  N
  H115     1.0000 0.86497  0.28803  0.23893  Biso   1.000  H
  H116     1.0000 0.87137  0.33993  0.20823  Biso   1.000  H
  C146     1.0000 0.69318  0.57145  0.64071  Biso   1.000  C
  C147     1.0000 0.61362  0.51322  0.62383  Biso   1.000  C
  C148     1.0000 0.59798  0.52825  0.58964  Biso   1.000  C
  H117     1.0000 0.63593  0.57607  0.57837  Biso   1.000  H
  C149     1.0000 0.49093  0.42897  0.51014  Biso   1.000  C
  H118     1.0000 0.48493  0.37897  0.51707  Biso   1.000  H
  C150     1.0000 0.52153  0.56047  0.52509  Biso   1.000  C
  O59      1.0000 0.70341  0.55421  0.67177  Biso   1.000  O
  O60      1.0000 0.74161  0.63194  0.62355  Biso   1.000  O
  N30      1.0000 0.53193  0.62817  0.54987  Biso   1.000  N
  H119     1.0000 0.53163  0.62137  0.57227  Biso   1.000  H
  H120     1.0000 0.53803  0.67327  0.54157  Biso   1.000  H
  C151     1.0000 0.54493  0.64015  0.97404  Biso   1.000  C
  C152     1.0000 0.56626  0.71971  0.95716  Biso   1.000  C
  C153     1.0000 0.59693  0.73535  0.92297  Biso   1.000  C
  H121     1.0000 0.60680  0.69740  0.91170  Biso   1.000  H
  C154     1.0000 0.60470  0.84240  0.84347  Biso   1.000  C
  H122     1.0000 0.56070  0.84840  0.85040  Biso   1.000  H
  C155     1.0000 0.70560  0.81180  0.85842  Biso   1.000  C
  O61      1.0000 0.51746  0.62992  0.00510  Biso   1.000  O
  O62      1.0000 0.55699  0.59172  0.95688  Biso   1.000  O
  N31      1.0000 0.76290  0.80140  0.88320  Biso   1.000  N
  H123     1.0000 0.75640  0.80170  0.90560  Biso   1.000  H
  H124     1.0000 0.80190  0.79530  0.87490  Biso   1.000  H
  C156     1.0000 0.21160  0.97348  0.30737  Biso   1.000  C
  C157     1.0000 0.23293  0.05304  0.29049  Biso   1.000  C
  C158     1.0000 0.26360  0.06868  0.25630  Biso   1.000  C
  H125     1.0000 0.27347  0.03073  0.24503  Biso   1.000  H
  C159     1.0000 0.27137  0.17573  0.17680  Biso   1.000  C
  H126     1.0000 0.22737  0.18173  0.18373  Biso   1.000  H
  C160     1.0000 0.37227  0.14513  0.19175  Biso   1.000  C
  O63      1.0000 0.18413  0.96325  0.33843  Biso   1.000  O
  O64      1.0000 0.22366  0.92505  0.29021  Biso   1.000  O
  N32      1.0000 0.42957  0.13473  0.21653  Biso   1.000  N
  H127     1.0000 0.42307  0.13503  0.23893  Biso   1.000  H
  H128     1.0000 0.46857  0.12863  0.20823  Biso   1.000  H
  C161     1.0000 0.87826  0.30682  0.64071  Biso   1.000  C
  C162     1.0000 0.89959  0.38638  0.62383  Biso   1.000  C
  C163     1.0000 0.93026  0.40202  0.58964  Biso   1.000  C
  H129     1.0000 0.94013  0.36407  0.57837  Biso   1.000  H
  C164     1.0000 0.93803  0.50907  0.51014  Biso   1.000  C
  H130     1.0000 0.89403  0.51507  0.51707  Biso   1.000  H
  C165     1.0000 0.03893  0.47847  0.52509  Biso   1.000  C
  O65      1.0000 0.85079  0.29659  0.67177  Biso   1.000  O
  O66      1.0000 0.89032  0.25839  0.62355  Biso   1.000  O
  N33      1.0000 0.09623  0.46807  0.54987  Biso   1.000  N
  H131     1.0000 0.08973  0.46837  0.57227  Biso   1.000  H
  H132     1.0000 0.13523  0.46197  0.54157  Biso   1.000  H
  C166     1.0000 0.09522  0.45507  0.97404  Biso   1.000  C
  C167     1.0000 0.15345  0.43374  0.95716  Biso   1.000  C
  C168     1.0000 0.13842  0.40307  0.92297  Biso   1.000  C
  H133     1.0000 0.09060  0.39320  0.91170  Biso   1.000  H
  C169     1.0000 0.23770  0.39530  0.84347  Biso   1.000  C
  H134     1.0000 0.28770  0.43930  0.85040  Biso   1.000  H
  C170     1.0000 0.10620  0.29440  0.85842  Biso   1.000  C
  O67      1.0000 0.11246  0.48254  0.00510  Biso   1.000  O
  O68      1.0000 0.03473  0.44301  0.95688  Biso   1.000  O
  N34      1.0000 0.03850  0.23710  0.88320  Biso   1.000  N
  H135     1.0000 0.04530  0.24360  0.90560  Biso   1.000  H
  H136     1.0000 0.99340  0.19810  0.87490  Biso   1.000  H
  C171     1.0000 0.76189  0.78840  0.30737  Biso   1.000  C
  C172     1.0000 0.82012  0.76707  0.29049  Biso   1.000  C
  C173     1.0000 0.80509  0.73640  0.25630  Biso   1.000  C
  H137     1.0000 0.75727  0.72653  0.24503  Biso   1.000  H
  C174     1.0000 0.90437  0.72863  0.17680  Biso   1.000  C
  H138     1.0000 0.95437  0.77263  0.18373  Biso   1.000  H
  C175     1.0000 0.77287  0.62773  0.19175  Biso   1.000  C
  O69      1.0000 0.77913  0.81587  0.33843  Biso   1.000  O
  O70      1.0000 0.70140  0.77634  0.29021  Biso   1.000  O
  N35      1.0000 0.70517  0.57043  0.21653  Biso   1.000  N
  H139     1.0000 0.71197  0.57693  0.23893  Biso   1.000  H
  H140     1.0000 0.66007  0.53143  0.20823  Biso   1.000  H
  C176     1.0000 0.42855  0.12174  0.64071  Biso   1.000  C
  C177     1.0000 0.48678  0.10041  0.62383  Biso   1.000  C
  C178     1.0000 0.47175  0.06974  0.58964  Biso   1.000  C
  H141     1.0000 0.42393  0.05987  0.57837  Biso   1.000  H
  C179     1.0000 0.57103  0.06197  0.51014  Biso   1.000  C
  H142     1.0000 0.62103  0.10597  0.51707  Biso   1.000  H
  C180     1.0000 0.43953  0.96107  0.52509  Biso   1.000  C
  O71      1.0000 0.44579  0.14921  0.67177  Biso   1.000  O
  O72      1.0000 0.36806  0.10968  0.62355  Biso   1.000  O
  N36      1.0000 0.37183  0.90377  0.54987  Biso   1.000  N
  H143     1.0000 0.37863  0.91027  0.57227  Biso   1.000  H
  H144     1.0000 0.32673  0.86477  0.54157  Biso   1.000  H
  C181     1.0000 0.19348  0.80652  0.90544  Biso   1.000  C
  C182     1.0000 0.17826  0.82174  0.86840  Biso   1.000  C
  C183     1.0000 0.22399  0.77601  0.97434  Biso   1.000  C
  H145     1.0000 0.23350  0.76650  0.99740  Biso   1.000  H
  C184     1.0000 0.86015  0.13985  0.23877  Biso   1.000  C
  C185     1.0000 0.84493  0.15507  0.20173  Biso   1.000  C
  C186     1.0000 0.89066  0.10934  0.30767  Biso   1.000  C
  H146     1.0000 0.90017  0.09983  0.33073  Biso   1.000  H
  C187     1.0000 0.52681  0.47319  0.57211  Biso   1.000  C
  C188     1.0000 0.51159  0.48841  0.53507  Biso   1.000  C
  C189     1.0000 0.55732  0.44268  0.64101  Biso   1.000  C
  H147     1.0000 0.56683  0.43317  0.66407  Biso   1.000  H
  C190     1.0000 0.19348  0.38696  0.90544  Biso   1.000  C
  C191     1.0000 0.17826  0.35652  0.86840  Biso   1.000  C
  C192     1.0000 0.22399  0.44798  0.97434  Biso   1.000  C
  H148     1.0000 0.23350  0.46700  0.99740  Biso   1.000  H
  C193     1.0000 0.86015  0.72029  0.23877  Biso   1.000  C
  C194     1.0000 0.84493  0.68985  0.20173  Biso   1.000  C
  C195     1.0000 0.89066  0.78131  0.30767  Biso   1.000  C
  H149     1.0000 0.90017  0.80033  0.33073  Biso   1.000  H
  C196     1.0000 0.52681  0.05363  0.57211  Biso   1.000  C
  C197     1.0000 0.51159  0.02319  0.53507  Biso   1.000  C
  C198     1.0000 0.55732  0.11465  0.64101  Biso   1.000  C
  H150     1.0000 0.56683  0.13367  0.66407  Biso   1.000  H
  C199     1.0000 0.61304  0.80652  0.90544  Biso   1.000  C
  C200     1.0000 0.64348  0.82174  0.86840  Biso   1.000  C
  C201     1.0000 0.55202  0.77601  0.97434  Biso   1.000  C
  H151     1.0000 0.53300  0.76650  0.99740  Biso   1.000  H
  C202     1.0000 0.27971  0.13985  0.23877  Biso   1.000  C
  C203     1.0000 0.31015  0.15507  0.20173  Biso   1.000  C
  C204     1.0000 0.21869  0.10934  0.30767  Biso   1.000  C
  H152     1.0000 0.19967  0.09983  0.33073  Biso   1.000  H
  C205     1.0000 0.94637  0.47319  0.57211  Biso   1.000  C
  C206     1.0000 0.97681  0.48841  0.53507  Biso   1.000  C
  C207     1.0000 0.88535  0.44268  0.64101  Biso   1.000  C
  H153     1.0000 0.86633  0.43317  0.66407  Biso   1.000  H
  C208     1.0000 0.80652  0.19348  0.09456  Biso   1.000  C
  C209     1.0000 0.82174  0.17826  0.13160  Biso   1.000  C
  C210     1.0000 0.77601  0.22399  0.02566  Biso   1.000  C
  H154     1.0000 0.76650  0.23350  0.00260  Biso   1.000  H
  C211     1.0000 0.47319  0.52681  0.42789  Biso   1.000  C
  C212     1.0000 0.48841  0.51159  0.46493  Biso   1.000  C
  C213     1.0000 0.44268  0.55732  0.35899  Biso   1.000  C
  H155     1.0000 0.43317  0.56683  0.33593  Biso   1.000  H
  C214     1.0000 0.13985  0.86015  0.76123  Biso   1.000  C
  C215     1.0000 0.15507  0.84493  0.79827  Biso   1.000  C
  C216     1.0000 0.10934  0.89066  0.69233  Biso   1.000  C
  H156     1.0000 0.09983  0.90017  0.66927  Biso   1.000  H
  C217     1.0000 0.38696  0.19348  0.09456  Biso   1.000  C
  C218     1.0000 0.35652  0.17826  0.13160  Biso   1.000  C
  C219     1.0000 0.44798  0.22399  0.02566  Biso   1.000  C
  H157     1.0000 0.46700  0.23350  0.00260  Biso   1.000  H
  C220     1.0000 0.05363  0.52681  0.42789  Biso   1.000  C
  C221     1.0000 0.02319  0.51159  0.46493  Biso   1.000  C
  C222     1.0000 0.11465  0.55732  0.35899  Biso   1.000  C
  H158     1.0000 0.13367  0.56683  0.33593  Biso   1.000  H
  C223     1.0000 0.72029  0.86015  0.76123  Biso   1.000  C
  C224     1.0000 0.68985  0.84493  0.79827  Biso   1.000  C
  C225     1.0000 0.78131  0.89066  0.69233  Biso   1.000  C
  H159     1.0000 0.80033  0.90017  0.66927  Biso   1.000  H
  C226     1.0000 0.80652  0.61304  0.09456  Biso   1.000  C
  C227     1.0000 0.82174  0.64348  0.13160  Biso   1.000  C
  C228     1.0000 0.77601  0.55202  0.02566  Biso   1.000  C
  H160     1.0000 0.76650  0.53300  0.00260  Biso   1.000  H
  C229     1.0000 0.47319  0.94637  0.42789  Biso   1.000  C
  C230     1.0000 0.48841  0.97681  0.46493  Biso   1.000  C
  C231     1.0000 0.44268  0.88535  0.35899  Biso   1.000  C
  H161     1.0000 0.43317  0.86633  0.33593  Biso   1.000  H
  C232     1.0000 0.13985  0.27971  0.76123  Biso   1.000  C
  C233     1.0000 0.15507  0.31015  0.79827  Biso   1.000  C
  C234     1.0000 0.10934  0.21869  0.69233  Biso   1.000  C
  H162     1.0000 0.09983  0.19967  0.66927  Biso   1.000  H
  Zn1      1.0000 0.05117  0.52558  0.03275  Biso   1.000  Zn
  Zn2      1.0000 0.71784  0.85892  0.36608  Biso   1.000  Zn
  Zn3      1.0000 0.38450  0.19225  0.69941  Biso   1.000  Zn
  Zn4      1.0000 0.47441  0.52558  0.03275  Biso   1.000  Zn
  Zn5      1.0000 0.14108  0.85892  0.36608  Biso   1.000  Zn
  Zn6      1.0000 0.80775  0.19225  0.69941  Biso   1.000  Zn
  Zn7      1.0000 0.47441  0.94883  0.03275  Biso   1.000  Zn
  Zn8      1.0000 0.14108  0.28216  0.36608  Biso   1.000  Zn
  Zn9      1.0000 0.80775  0.61550  0.69941  Biso   1.000  Zn
  Zn10     1.0000 0.52558  0.05117  0.96725  Biso   1.000  Zn
  Zn11     1.0000 0.19225  0.38450  0.30059  Biso   1.000  Zn
  Zn12     1.0000 0.85892  0.71784  0.63392  Biso   1.000  Zn
  Zn13     1.0000 0.52558  0.47441  0.96725  Biso   1.000  Zn
  Zn14     1.0000 0.19225  0.80775  0.30059  Biso   1.000  Zn
  Zn15     1.0000 0.85892  0.14108  0.63392  Biso   1.000  Zn
  Zn16     1.0000 0.94883  0.47441  0.96725  Biso   1.000  Zn
  Zn17     1.0000 0.61550  0.80775  0.30059  Biso   1.000  Zn
  Zn18     1.0000 0.28216  0.14108  0.63392  Biso   1.000  Zn
