data_image0
_cell_length_a       19.7524
_cell_length_b       19.7524
_cell_length_c       15.346
_cell_angle_alpha    90
_cell_angle_beta     90
_cell_angle_gamma    120

_symmetry_space_group_name_H-M    "P 1"
_symmetry_int_tables_number       1

loop_
  _symmetry_equiv_pos_as_xyz
  'x, y, z'

loop_
  _atom_site_label
  _atom_site_occupancy
  _atom_site_fract_x
  _atom_site_fract_y
  _atom_site_fract_z
  _atom_site_thermal_displace_type
  _atom_site_B_iso_or_equiv
  _atom_site_type_symbol
  C1       1.0000 0.14530  0.60780  0.91340  Biso   1.000  C
  C2       1.0000 0.06950  0.55090  0.95980  Biso   1.000  C
  C3       1.0000 0.02950  0.58150  0.00710  Biso   1.000  C
  C4       1.0000 0.04160  0.47160  0.95360  Biso   1.000  C
  C5       1.0000 0.15360  0.42890  0.97740  Biso   1.000  C
  H1       1.0000 0.11880  0.39110  0.02080  Biso   1.000  H
  H2       1.0000 0.18740  0.41080  0.95250  Biso   1.000  H
  H3       1.0000 0.18570  0.47980  0.00520  Biso   1.000  H
  C6       1.0000 0.12380  0.70390  0.10990  Biso   1.000  C
  H4       1.0000 0.16310  0.68780  0.10340  Biso   1.000  H
  H5       1.0000 0.14980  0.76000  0.12230  Biso   1.000  H
  H6       1.0000 0.08850  0.67480  0.15810  Biso   1.000  H
  C7       1.0000 0.81460  0.49530  0.41450  Biso   1.000  C
  O1       1.0000 0.09500  0.63970  0.65970  Biso   1.000  O
  H7       1.0000 0.05800  0.64600  0.67600  Biso   1.000  H
  H8       1.0000 0.07500  0.59600  0.63400  Biso   1.000  H
  O2       1.0000 0.05100  0.71490  0.72760  Biso   1.000  O
  C8       1.0000 0.86820  0.54270  0.48560  Biso   1.000  C
  C9       1.0000 0.92610  0.62000  0.47280  Biso   1.000  C
  C10      1.0000 0.98110  0.65960  0.53770  Biso   1.000  C
  C11      1.0000 0.97820  0.62200  0.61530  Biso   1.000  C
  C12      1.0000 0.92020  0.54470  0.62810  Biso   1.000  C
  C13      1.0000 0.86520  0.50500  0.56320  Biso   1.000  C
  C14      1.0000 0.04710  0.66170  0.67680  Biso   1.000  C
  C15      1.0000 0.99680  0.66370  0.31270  Biso   1.000  C
  H9       1.0000 0.04260  0.67820  0.34940  Biso   1.000  H
  H10      1.0000 0.01170  0.70000  0.26340  Biso   1.000  H
  H11      1.0000 0.97640  0.61040  0.29080  Biso   1.000  H
  C16      1.0000 0.01560  0.81280  0.55650  Biso   1.000  C
  H12      1.0000 0.98950  0.82170  0.50720  Biso   1.000  H
  H13      1.0000 0.05620  0.86310  0.57970  Biso   1.000  H
  H14      1.0000 0.97720  0.78390  0.60220  Biso   1.000  H
  C17      1.0000 0.92410  0.55380  0.81080  Biso   1.000  C
  H15      1.0000 0.91500  0.52530  0.86580  Biso   1.000  H
  H16      1.0000 0.88570  0.57110  0.80460  Biso   1.000  H
  H17      1.0000 0.97690  0.59940  0.81080  Biso   1.000  H
  C18      1.0000 0.84770  0.35920  0.55940  Biso   1.000  C
  H18      1.0000 0.87260  0.37190  0.50180  Biso   1.000  H
  H19      1.0000 0.81410  0.30240  0.56460  Biso   1.000  H
  H20      1.0000 0.88810  0.37800  0.60460  Biso   1.000  H
  S1       1.0000 0.92320  0.66850  0.37530  Biso   1.000  S
  S2       1.0000 0.05930  0.75727  0.52070  Biso   1.000  S
  S3       1.0000 0.91460  0.49330  0.72540  Biso   1.000  S
  S4       1.0000 0.79000  0.40540  0.57230  Biso   1.000  S
  O3       1.0000 0.94160  0.74970  0.75020  Biso   1.000  O
  H21      1.0000 0.97890  0.79050  0.77130  Biso   1.000  H
  O4       1.0000 0.03300  0.69800  0.74300  Biso   1.000  O
  C19      1.0000 0.86420  0.54830  0.49390  Biso   1.000  C
  C20      1.0000 0.91690  0.62670  0.47800  Biso   1.000  C
  C21      1.0000 0.95110  0.67820  0.54730  Biso   1.000  C
  C22      1.0000 0.93260  0.65110  0.63250  Biso   1.000  C
  C23      1.0000 0.87990  0.57270  0.64840  Biso   1.000  C
  C24      1.0000 0.84560  0.52130  0.57910  Biso   1.000  C
  C25      1.0000 0.96920  0.70900  0.70970  Biso   1.000  C
  C26      1.0000 0.99430  0.61900  0.32600  Biso   1.000  C
  H22      1.0000 0.04930  0.65970  0.33240  Biso   1.000  H
  H23      1.0000 0.98290  0.60480  0.26440  Biso   1.000  H
  H24      1.0000 0.98410  0.57310  0.36000  Biso   1.000  H
  C27      1.0000 0.09880  0.77480  0.48520  Biso   1.000  C
  H25      1.0000 0.08420  0.71960  0.48040  Biso   1.000  H
  H26      1.0000 0.14460  0.80200  0.52310  Biso   1.000  H
  H27      1.0000 0.11140  0.79880  0.42720  Biso   1.000  H
  C28      1.0000 0.91600  0.50600  0.77600  Biso   1.000  C
  H28      1.0000 0.88510  0.44880  0.77310  Biso   1.000  H
  H29      1.0000 0.94070  0.52150  0.83390  Biso   1.000  H
  H30      1.0000 0.95640  0.52560  0.73120  Biso   1.000  H
  C29      1.0000 0.83100  0.37100  0.59100  Biso   1.000  C
  H31      1.0000 0.82150  0.33810  0.64280  Biso   1.000  H
  H32      1.0000 0.88640  0.40920  0.58650  Biso   1.000  H
  H33      1.0000 0.81400  0.33750  0.53890  Biso   1.000  H
  S5       1.0000 0.93510  0.65480  0.36340  Biso   1.000  S
  S6       1.0000 0.02060  0.78170  0.52950  Biso   1.000  S
  S7       1.0000 0.85550  0.54480  0.76090  Biso   1.000  S
  S8       1.0000 0.77630  0.41950  0.59970  Biso   1.000  S
  Eu1      1.0000 0.21750  0.66067  0.71111  Biso   1.000  Eu
  O5       1.0000 0.13780  0.62170  0.83650  Biso   1.000  O
  O6       1.0000 0.20720  0.63270  0.95670  Biso   1.000  O
  O7       1.0000 0.75270  0.49670  0.40320  Biso   1.000  O
  O8       1.0000 0.83840  0.45790  0.37050  Biso   1.000  O
  O9       1.0000 0.41730  0.67420  0.79950  Biso   1.000  O
  H34      1.0000 0.46630  0.67720  0.82180  Biso   1.000  H
  S9       1.0000 0.09589  0.43790  0.89213  Biso   1.000  S
  S10      1.0000 0.06904  0.68372  0.01185  Biso   1.000  S
  C30      1.0000 0.39220  0.53750  0.91340  Biso   1.000  C
  C31      1.0000 0.44910  0.51860  0.95980  Biso   1.000  C
  C32      1.0000 0.41850  0.44800  0.00710  Biso   1.000  C
  C33      1.0000 0.52840  0.57000  0.95360  Biso   1.000  C
  C34      1.0000 0.57110  0.72470  0.97740  Biso   1.000  C
  H35      1.0000 0.60890  0.72770  0.02080  Biso   1.000  H
  H36      1.0000 0.58920  0.77660  0.95250  Biso   1.000  H
  H37      1.0000 0.52020  0.70590  0.00520  Biso   1.000  H
  C35      1.0000 0.29610  0.41990  0.10990  Biso   1.000  C
  H38      1.0000 0.31220  0.47530  0.10340  Biso   1.000  H
  H39      1.0000 0.24000  0.38980  0.12230  Biso   1.000  H
  H40      1.0000 0.32520  0.41370  0.15810  Biso   1.000  H
  C36      1.0000 0.50470  0.31930  0.41450  Biso   1.000  C
  O10      1.0000 0.36030  0.45530  0.65970  Biso   1.000  O
  H41      1.0000 0.35400  0.41200  0.67600  Biso   1.000  H
  H42      1.0000 0.40400  0.47900  0.63400  Biso   1.000  H
  O11      1.0000 0.28510  0.33610  0.72760  Biso   1.000  O
  C37      1.0000 0.45730  0.32550  0.48560  Biso   1.000  C
  C38      1.0000 0.38000  0.30610  0.47280  Biso   1.000  C
  C39      1.0000 0.34040  0.32150  0.53770  Biso   1.000  C
  C40      1.0000 0.37800  0.35620  0.61530  Biso   1.000  C
  C41      1.0000 0.45530  0.37550  0.62810  Biso   1.000  C
  C42      1.0000 0.49500  0.36020  0.56320  Biso   1.000  C
  C43      1.0000 0.33830  0.38540  0.67680  Biso   1.000  C
  C44      1.0000 0.33630  0.33310  0.31270  Biso   1.000  C
  H43      1.0000 0.32180  0.36440  0.34940  Biso   1.000  H
  H44      1.0000 0.30000  0.31170  0.26340  Biso   1.000  H
  H45      1.0000 0.38960  0.36600  0.29080  Biso   1.000  H
  C45      1.0000 0.18720  0.20280  0.55650  Biso   1.000  C
  H46      1.0000 0.17830  0.16780  0.50720  Biso   1.000  H
  H47      1.0000 0.13690  0.19310  0.57970  Biso   1.000  H
  H48      1.0000 0.21610  0.19330  0.60220  Biso   1.000  H
  C46      1.0000 0.44620  0.37030  0.81080  Biso   1.000  C
  H49      1.0000 0.47470  0.38970  0.86580  Biso   1.000  H
  H50      1.0000 0.42890  0.31460  0.80460  Biso   1.000  H
  H51      1.0000 0.40060  0.37750  0.81080  Biso   1.000  H
  C47      1.0000 0.64080  0.48850  0.55940  Biso   1.000  C
  H52      1.0000 0.62810  0.50070  0.50180  Biso   1.000  H
  H53      1.0000 0.69760  0.51170  0.56460  Biso   1.000  H
  H54      1.0000 0.62200  0.51010  0.60460  Biso   1.000  H
  S11      1.0000 0.33150  0.25470  0.37530  Biso   1.000  S
  S12      1.0000 0.24273  0.30203  0.52070  Biso   1.000  S
  S13      1.0000 0.50670  0.42130  0.72540  Biso   1.000  S
  S14      1.0000 0.59460  0.38460  0.57230  Biso   1.000  S
  O12      1.0000 0.25030  0.19190  0.75020  Biso   1.000  O
  H55      1.0000 0.20950  0.18840  0.77130  Biso   1.000  H
  O13      1.0000 0.30200  0.33500  0.74300  Biso   1.000  O
  C48      1.0000 0.45170  0.31590  0.49390  Biso   1.000  C
  C49      1.0000 0.37330  0.29020  0.47800  Biso   1.000  C
  C50      1.0000 0.32180  0.27290  0.54730  Biso   1.000  C
  C51      1.0000 0.34890  0.28150  0.63250  Biso   1.000  C
  C52      1.0000 0.42730  0.30720  0.64840  Biso   1.000  C
  C53      1.0000 0.47870  0.32430  0.57910  Biso   1.000  C
  C54      1.0000 0.29100  0.26020  0.70970  Biso   1.000  C
  C55      1.0000 0.38100  0.37530  0.32600  Biso   1.000  C
  H56      1.0000 0.34030  0.38960  0.33240  Biso   1.000  H
  H57      1.0000 0.39520  0.37810  0.26440  Biso   1.000  H
  H58      1.0000 0.42690  0.41100  0.36000  Biso   1.000  H
  C56      1.0000 0.22520  0.32400  0.48520  Biso   1.000  C
  H59      1.0000 0.28040  0.36460  0.48040  Biso   1.000  H
  H60      1.0000 0.19800  0.34260  0.52310  Biso   1.000  H
  H61      1.0000 0.20120  0.31260  0.42720  Biso   1.000  H
  C57      1.0000 0.49400  0.41000  0.77600  Biso   1.000  C
  H62      1.0000 0.55120  0.43630  0.77310  Biso   1.000  H
  H63      1.0000 0.47850  0.41920  0.83390  Biso   1.000  H
  H64      1.0000 0.47440  0.43080  0.73120  Biso   1.000  H
  C58      1.0000 0.62900  0.46000  0.59100  Biso   1.000  C
  H65      1.0000 0.66190  0.48340  0.64280  Biso   1.000  H
  H66      1.0000 0.59080  0.47720  0.58650  Biso   1.000  H
  H67      1.0000 0.66250  0.47650  0.53890  Biso   1.000  H
  S15      1.0000 0.34520  0.28030  0.36340  Biso   1.000  S
  S16      1.0000 0.21830  0.23890  0.52950  Biso   1.000  S
  S17      1.0000 0.45520  0.31070  0.76090  Biso   1.000  S
  S18      1.0000 0.58050  0.35680  0.59970  Biso   1.000  S
  Eu2      1.0000 0.33933  0.55683  0.71111  Biso   1.000  Eu
  O14      1.0000 0.37830  0.51610  0.83650  Biso   1.000  O
  O15      1.0000 0.36730  0.57450  0.95670  Biso   1.000  O
  O16      1.0000 0.50330  0.25600  0.40320  Biso   1.000  O
  O17      1.0000 0.54210  0.38050  0.37050  Biso   1.000  O
  O18      1.0000 0.32580  0.74310  0.79950  Biso   1.000  O
  H68      1.0000 0.32280  0.78910  0.82180  Biso   1.000  H
  S19      1.0000 0.56210  0.65799  0.89213  Biso   1.000  S
  S20      1.0000 0.31628  0.38532  0.01185  Biso   1.000  S
  C59      1.0000 0.46250  0.85470  0.91340  Biso   1.000  C
  C60      1.0000 0.48140  0.93050  0.95980  Biso   1.000  C
  C61      1.0000 0.55200  0.97050  0.00710  Biso   1.000  C
  C62      1.0000 0.43000  0.95840  0.95360  Biso   1.000  C
  C63      1.0000 0.27530  0.84640  0.97740  Biso   1.000  C
  H69      1.0000 0.27230  0.88120  0.02080  Biso   1.000  H
  H70      1.0000 0.22340  0.81260  0.95250  Biso   1.000  H
  H71      1.0000 0.29410  0.81430  0.00520  Biso   1.000  H
  C64      1.0000 0.58010  0.87620  0.10990  Biso   1.000  C
  H72      1.0000 0.52470  0.83690  0.10340  Biso   1.000  H
  H73      1.0000 0.61020  0.85020  0.12230  Biso   1.000  H
  H74      1.0000 0.58630  0.91150  0.15810  Biso   1.000  H
  C65      1.0000 0.68070  0.18540  0.41450  Biso   1.000  C
  O19      1.0000 0.54470  0.90500  0.65970  Biso   1.000  O
  H75      1.0000 0.58800  0.94200  0.67600  Biso   1.000  H
  H76      1.0000 0.52100  0.92500  0.63400  Biso   1.000  H
  O20      1.0000 0.66390  0.94900  0.72760  Biso   1.000  O
  C66      1.0000 0.67450  0.13180  0.48560  Biso   1.000  C
  C67      1.0000 0.69390  0.07390  0.47280  Biso   1.000  C
  C68      1.0000 0.67850  0.01890  0.53770  Biso   1.000  C
  C69      1.0000 0.64380  0.02180  0.61530  Biso   1.000  C
  C70      1.0000 0.62450  0.07980  0.62810  Biso   1.000  C
  C71      1.0000 0.63980  0.13480  0.56320  Biso   1.000  C
  C72      1.0000 0.61460  0.95290  0.67680  Biso   1.000  C
  C73      1.0000 0.66690  0.00320  0.31270  Biso   1.000  C
  H77      1.0000 0.63560  0.95740  0.34940  Biso   1.000  H
  H78      1.0000 0.68830  0.98830  0.26340  Biso   1.000  H
  H79      1.0000 0.63400  0.02360  0.29080  Biso   1.000  H
  C74      1.0000 0.79720  0.98440  0.55650  Biso   1.000  C
  H80      1.0000 0.83220  0.01050  0.50720  Biso   1.000  H
  H81      1.0000 0.80690  0.94380  0.57970  Biso   1.000  H
  H82      1.0000 0.80670  0.02280  0.60220  Biso   1.000  H
  C75      1.0000 0.62970  0.07590  0.81080  Biso   1.000  C
  H83      1.0000 0.61030  0.08500  0.86580  Biso   1.000  H
  H84      1.0000 0.68540  0.11430  0.80460  Biso   1.000  H
  H85      1.0000 0.62250  0.02310  0.81080  Biso   1.000  H
  C76      1.0000 0.51150  0.15230  0.55940  Biso   1.000  C
  H86      1.0000 0.49930  0.12740  0.50180  Biso   1.000  H
  H87      1.0000 0.48830  0.18590  0.56460  Biso   1.000  H
  H88      1.0000 0.48990  0.11190  0.60460  Biso   1.000  H
  S21      1.0000 0.74530  0.07680  0.37530  Biso   1.000  S
  S22      1.0000 0.69797  0.94070  0.52070  Biso   1.000  S
  S23      1.0000 0.57870  0.08540  0.72540  Biso   1.000  S
  S24      1.0000 0.61540  0.21000  0.57230  Biso   1.000  S
  O21      1.0000 0.80810  0.05840  0.75020  Biso   1.000  O
  H89      1.0000 0.81160  0.02110  0.77130  Biso   1.000  H
  O22      1.0000 0.66500  0.96700  0.74300  Biso   1.000  O
  C77      1.0000 0.68410  0.13580  0.49390  Biso   1.000  C
  C78      1.0000 0.70980  0.08310  0.47800  Biso   1.000  C
  C79      1.0000 0.72710  0.04890  0.54730  Biso   1.000  C
  C80      1.0000 0.71850  0.06740  0.63250  Biso   1.000  C
  C81      1.0000 0.69280  0.12010  0.64840  Biso   1.000  C
  C82      1.0000 0.67570  0.15440  0.57910  Biso   1.000  C
  C83      1.0000 0.73980  0.03080  0.70970  Biso   1.000  C
  C84      1.0000 0.62470  0.00570  0.32600  Biso   1.000  C
  H90      1.0000 0.61040  0.95070  0.33240  Biso   1.000  H
  H91      1.0000 0.62190  0.01710  0.26440  Biso   1.000  H
  H92      1.0000 0.58900  0.01590  0.36000  Biso   1.000  H
  C85      1.0000 0.67600  0.90120  0.48520  Biso   1.000  C
  H93      1.0000 0.63540  0.91580  0.48040  Biso   1.000  H
  H94      1.0000 0.65740  0.85540  0.52310  Biso   1.000  H
  H95      1.0000 0.68740  0.88860  0.42720  Biso   1.000  H
  C86      1.0000 0.59000  0.08400  0.77600  Biso   1.000  C
  H96      1.0000 0.56370  0.11490  0.77310  Biso   1.000  H
  H97      1.0000 0.58080  0.05930  0.83390  Biso   1.000  H
  H98      1.0000 0.56920  0.04360  0.73120  Biso   1.000  H
  C87      1.0000 0.54000  0.16900  0.59100  Biso   1.000  C
  H99      1.0000 0.51660  0.17850  0.64280  Biso   1.000  H
  H100     1.0000 0.52280  0.11360  0.58650  Biso   1.000  H
  H101     1.0000 0.52350  0.18600  0.53890  Biso   1.000  H
  S25      1.0000 0.71970  0.06490  0.36340  Biso   1.000  S
  S26      1.0000 0.76110  0.97940  0.52950  Biso   1.000  S
  S27      1.0000 0.68930  0.14450  0.76090  Biso   1.000  S
  S28      1.0000 0.64320  0.22370  0.59970  Biso   1.000  S
  Eu3      1.0000 0.44317  0.78250  0.71111  Biso   1.000  Eu
  O23      1.0000 0.48390  0.86220  0.83650  Biso   1.000  O
  O24      1.0000 0.42550  0.79280  0.95670  Biso   1.000  O
  O25      1.0000 0.74400  0.24730  0.40320  Biso   1.000  O
  O26      1.0000 0.61950  0.16160  0.37050  Biso   1.000  O
  O27      1.0000 0.25690  0.58270  0.79950  Biso   1.000  O
  H102     1.0000 0.21090  0.53370  0.82180  Biso   1.000  H
  S29      1.0000 0.34201  0.90411  0.89213  Biso   1.000  S
  S30      1.0000 0.61468  0.93096  0.01185  Biso   1.000  S
  C88      1.0000 0.85470  0.39220  0.08660  Biso   1.000  C
  C89      1.0000 0.93050  0.44910  0.04020  Biso   1.000  C
  C90      1.0000 0.97050  0.41850  0.99290  Biso   1.000  C
  C91      1.0000 0.95840  0.52840  0.04640  Biso   1.000  C
  C92      1.0000 0.84640  0.57110  0.02260  Biso   1.000  C
  H103     1.0000 0.88120  0.60890  0.97920  Biso   1.000  H
  H104     1.0000 0.81260  0.58920  0.04750  Biso   1.000  H
  H105     1.0000 0.81430  0.52020  0.99480  Biso   1.000  H
  C93      1.0000 0.87620  0.29610  0.89010  Biso   1.000  C
  H106     1.0000 0.83690  0.31220  0.89660  Biso   1.000  H
  H107     1.0000 0.85020  0.24000  0.87770  Biso   1.000  H
  H108     1.0000 0.91150  0.32520  0.84190  Biso   1.000  H
  C94      1.0000 0.18540  0.50470  0.58550  Biso   1.000  C
  O28      1.0000 0.90500  0.36030  0.34030  Biso   1.000  O
  H109     1.0000 0.94200  0.35400  0.32400  Biso   1.000  H
  H110     1.0000 0.92500  0.40400  0.36600  Biso   1.000  H
  O29      1.0000 0.94900  0.28510  0.27240  Biso   1.000  O
  C95      1.0000 0.13180  0.45730  0.51440  Biso   1.000  C
  C96      1.0000 0.07390  0.38000  0.52720  Biso   1.000  C
  C97      1.0000 0.01890  0.34040  0.46230  Biso   1.000  C
  C98      1.0000 0.02180  0.37800  0.38470  Biso   1.000  C
  C99      1.0000 0.07980  0.45530  0.37190  Biso   1.000  C
  C100     1.0000 0.13480  0.49500  0.43680  Biso   1.000  C
  C101     1.0000 0.95290  0.33830  0.32320  Biso   1.000  C
  C102     1.0000 0.00320  0.33630  0.68730  Biso   1.000  C
  H111     1.0000 0.95740  0.32180  0.65060  Biso   1.000  H
  H112     1.0000 0.98830  0.30000  0.73660  Biso   1.000  H
  H113     1.0000 0.02360  0.38960  0.70920  Biso   1.000  H
  C103     1.0000 0.98440  0.18720  0.44350  Biso   1.000  C
  H114     1.0000 0.01050  0.17830  0.49280  Biso   1.000  H
  H115     1.0000 0.94380  0.13690  0.42030  Biso   1.000  H
  H116     1.0000 0.02280  0.21610  0.39780  Biso   1.000  H
  C104     1.0000 0.07590  0.44620  0.18920  Biso   1.000  C
  H117     1.0000 0.08500  0.47470  0.13420  Biso   1.000  H
  H118     1.0000 0.11430  0.42890  0.19540  Biso   1.000  H
  H119     1.0000 0.02310  0.40060  0.18920  Biso   1.000  H
  C105     1.0000 0.15230  0.64080  0.44060  Biso   1.000  C
  H120     1.0000 0.12740  0.62810  0.49820  Biso   1.000  H
  H121     1.0000 0.18590  0.69760  0.43540  Biso   1.000  H
  H122     1.0000 0.11190  0.62200  0.39540  Biso   1.000  H
  S31      1.0000 0.07680  0.33150  0.62470  Biso   1.000  S
  S32      1.0000 0.94070  0.24273  0.47930  Biso   1.000  S
  S33      1.0000 0.08540  0.50670  0.27460  Biso   1.000  S
  S34      1.0000 0.21000  0.59460  0.42770  Biso   1.000  S
  O30      1.0000 0.05840  0.25030  0.24980  Biso   1.000  O
  H123     1.0000 0.02110  0.20950  0.22870  Biso   1.000  H
  O31      1.0000 0.96700  0.30200  0.25700  Biso   1.000  O
  C106     1.0000 0.13580  0.45170  0.50610  Biso   1.000  C
  C107     1.0000 0.08310  0.37330  0.52200  Biso   1.000  C
  C108     1.0000 0.04890  0.32180  0.45270  Biso   1.000  C
  C109     1.0000 0.06740  0.34890  0.36750  Biso   1.000  C
  C110     1.0000 0.12010  0.42730  0.35160  Biso   1.000  C
  C111     1.0000 0.15440  0.47870  0.42090  Biso   1.000  C
  C112     1.0000 0.03080  0.29100  0.29030  Biso   1.000  C
  C113     1.0000 0.00570  0.38100  0.67400  Biso   1.000  C
  H124     1.0000 0.95070  0.34030  0.66760  Biso   1.000  H
  H125     1.0000 0.01710  0.39520  0.73560  Biso   1.000  H
  H126     1.0000 0.01590  0.42690  0.64000  Biso   1.000  H
  C114     1.0000 0.90120  0.22520  0.51480  Biso   1.000  C
  H127     1.0000 0.91580  0.28040  0.51960  Biso   1.000  H
  H128     1.0000 0.85540  0.19800  0.47690  Biso   1.000  H
  H129     1.0000 0.88860  0.20120  0.57280  Biso   1.000  H
  C115     1.0000 0.08400  0.49400  0.22400  Biso   1.000  C
  H130     1.0000 0.11490  0.55120  0.22690  Biso   1.000  H
  H131     1.0000 0.05930  0.47850  0.16610  Biso   1.000  H
  H132     1.0000 0.04360  0.47440  0.26880  Biso   1.000  H
  C116     1.0000 0.16900  0.62900  0.40900  Biso   1.000  C
  H133     1.0000 0.17850  0.66190  0.35720  Biso   1.000  H
  H134     1.0000 0.11360  0.59080  0.41350  Biso   1.000  H
  H135     1.0000 0.18600  0.66250  0.46110  Biso   1.000  H
  S35      1.0000 0.06490  0.34520  0.63660  Biso   1.000  S
  S36      1.0000 0.97940  0.21830  0.47050  Biso   1.000  S
  S37      1.0000 0.14450  0.45520  0.23910  Biso   1.000  S
  S38      1.0000 0.22370  0.58050  0.40030  Biso   1.000  S
  Eu4      1.0000 0.78250  0.33933  0.28889  Biso   1.000  Eu
  O32      1.0000 0.86220  0.37830  0.16350  Biso   1.000  O
  O33      1.0000 0.79280  0.36730  0.04330  Biso   1.000  O
  O34      1.0000 0.24730  0.50330  0.59680  Biso   1.000  O
  O35      1.0000 0.16160  0.54210  0.62950  Biso   1.000  O
  O36      1.0000 0.58270  0.32580  0.20050  Biso   1.000  O
  H136     1.0000 0.53370  0.32280  0.17820  Biso   1.000  H
  S39      1.0000 0.90411  0.56210  0.10787  Biso   1.000  S
  S40      1.0000 0.93096  0.31628  0.98815  Biso   1.000  S
  C117     1.0000 0.60780  0.46250  0.08660  Biso   1.000  C
  C118     1.0000 0.55090  0.48140  0.04020  Biso   1.000  C
  C119     1.0000 0.58150  0.55200  0.99290  Biso   1.000  C
  C120     1.0000 0.47160  0.43000  0.04640  Biso   1.000  C
  C121     1.0000 0.42890  0.27530  0.02260  Biso   1.000  C
  H137     1.0000 0.39110  0.27230  0.97920  Biso   1.000  H
  H138     1.0000 0.41080  0.22340  0.04750  Biso   1.000  H
  H139     1.0000 0.47980  0.29410  0.99480  Biso   1.000  H
  C122     1.0000 0.70390  0.58010  0.89010  Biso   1.000  C
  H140     1.0000 0.68780  0.52470  0.89660  Biso   1.000  H
  H141     1.0000 0.76000  0.61020  0.87770  Biso   1.000  H
  H142     1.0000 0.67480  0.58630  0.84190  Biso   1.000  H
  C123     1.0000 0.49530  0.68070  0.58550  Biso   1.000  C
  O37      1.0000 0.63970  0.54470  0.34030  Biso   1.000  O
  H143     1.0000 0.64600  0.58800  0.32400  Biso   1.000  H
  H144     1.0000 0.59600  0.52100  0.36600  Biso   1.000  H
  O38      1.0000 0.71490  0.66390  0.27240  Biso   1.000  O
  C124     1.0000 0.54270  0.67450  0.51440  Biso   1.000  C
  C125     1.0000 0.62000  0.69390  0.52720  Biso   1.000  C
  C126     1.0000 0.65960  0.67850  0.46230  Biso   1.000  C
  C127     1.0000 0.62200  0.64380  0.38470  Biso   1.000  C
  C128     1.0000 0.54470  0.62450  0.37190  Biso   1.000  C
  C129     1.0000 0.50500  0.63980  0.43680  Biso   1.000  C
  C130     1.0000 0.66170  0.61460  0.32320  Biso   1.000  C
  C131     1.0000 0.66370  0.66690  0.68730  Biso   1.000  C
  H145     1.0000 0.67820  0.63560  0.65060  Biso   1.000  H
  H146     1.0000 0.70000  0.68830  0.73660  Biso   1.000  H
  H147     1.0000 0.61040  0.63400  0.70920  Biso   1.000  H
  C132     1.0000 0.81280  0.79720  0.44350  Biso   1.000  C
  H148     1.0000 0.82170  0.83220  0.49280  Biso   1.000  H
  H149     1.0000 0.86310  0.80690  0.42030  Biso   1.000  H
  H150     1.0000 0.78390  0.80670  0.39780  Biso   1.000  H
  C133     1.0000 0.55380  0.62970  0.18920  Biso   1.000  C
  H151     1.0000 0.52530  0.61030  0.13420  Biso   1.000  H
  H152     1.0000 0.57110  0.68540  0.19540  Biso   1.000  H
  H153     1.0000 0.59940  0.62250  0.18920  Biso   1.000  H
  C134     1.0000 0.35920  0.51150  0.44060  Biso   1.000  C
  H154     1.0000 0.37190  0.49930  0.49820  Biso   1.000  H
  H155     1.0000 0.30240  0.48830  0.43540  Biso   1.000  H
  H156     1.0000 0.37800  0.48990  0.39540  Biso   1.000  H
  S41      1.0000 0.66850  0.74530  0.62470  Biso   1.000  S
  S42      1.0000 0.75727  0.69797  0.47930  Biso   1.000  S
  S43      1.0000 0.49330  0.57870  0.27460  Biso   1.000  S
  S44      1.0000 0.40540  0.61540  0.42770  Biso   1.000  S
  O39      1.0000 0.74970  0.80810  0.24980  Biso   1.000  O
  H157     1.0000 0.79050  0.81160  0.22870  Biso   1.000  H
  O40      1.0000 0.69800  0.66500  0.25700  Biso   1.000  O
  C135     1.0000 0.54830  0.68410  0.50610  Biso   1.000  C
  C136     1.0000 0.62670  0.70980  0.52200  Biso   1.000  C
  C137     1.0000 0.67820  0.72710  0.45270  Biso   1.000  C
  C138     1.0000 0.65110  0.71850  0.36750  Biso   1.000  C
  C139     1.0000 0.57270  0.69280  0.35160  Biso   1.000  C
  C140     1.0000 0.52130  0.67570  0.42090  Biso   1.000  C
  C141     1.0000 0.70900  0.73980  0.29030  Biso   1.000  C
  C142     1.0000 0.61900  0.62470  0.67400  Biso   1.000  C
  H158     1.0000 0.65970  0.61040  0.66760  Biso   1.000  H
  H159     1.0000 0.60480  0.62190  0.73560  Biso   1.000  H
  H160     1.0000 0.57310  0.58900  0.64000  Biso   1.000  H
  C143     1.0000 0.77480  0.67600  0.51480  Biso   1.000  C
  H161     1.0000 0.71960  0.63540  0.51960  Biso   1.000  H
  H162     1.0000 0.80200  0.65740  0.47690  Biso   1.000  H
  H163     1.0000 0.79880  0.68740  0.57280  Biso   1.000  H
  C144     1.0000 0.50600  0.59000  0.22400  Biso   1.000  C
  H164     1.0000 0.44880  0.56370  0.22690  Biso   1.000  H
  H165     1.0000 0.52150  0.58080  0.16610  Biso   1.000  H
  H166     1.0000 0.52560  0.56920  0.26880  Biso   1.000  H
  C145     1.0000 0.37100  0.54000  0.40900  Biso   1.000  C
  H167     1.0000 0.33810  0.51660  0.35720  Biso   1.000  H
  H168     1.0000 0.40920  0.52280  0.41350  Biso   1.000  H
  H169     1.0000 0.33750  0.52350  0.46110  Biso   1.000  H
  S45      1.0000 0.65480  0.71970  0.63660  Biso   1.000  S
  S46      1.0000 0.78170  0.76110  0.47050  Biso   1.000  S
  S47      1.0000 0.54480  0.68930  0.23910  Biso   1.000  S
  S48      1.0000 0.41950  0.64320  0.40030  Biso   1.000  S
  Eu5      1.0000 0.66067  0.44317  0.28889  Biso   1.000  Eu
  O41      1.0000 0.62170  0.48390  0.16350  Biso   1.000  O
  O42      1.0000 0.63270  0.42550  0.04330  Biso   1.000  O
  O43      1.0000 0.49670  0.74400  0.59680  Biso   1.000  O
  O44      1.0000 0.45790  0.61950  0.62950  Biso   1.000  O
  O45      1.0000 0.67420  0.25690  0.20050  Biso   1.000  O
  H170     1.0000 0.67720  0.21090  0.17820  Biso   1.000  H
  S49      1.0000 0.43790  0.34201  0.10787  Biso   1.000  S
  S50      1.0000 0.68372  0.61468  0.98815  Biso   1.000  S
  C146     1.0000 0.53750  0.14530  0.08660  Biso   1.000  C
  C147     1.0000 0.51860  0.06950  0.04020  Biso   1.000  C
  C148     1.0000 0.44800  0.02950  0.99290  Biso   1.000  C
  C149     1.0000 0.57000  0.04160  0.04640  Biso   1.000  C
  C150     1.0000 0.72470  0.15360  0.02260  Biso   1.000  C
  H171     1.0000 0.72770  0.11880  0.97920  Biso   1.000  H
  H172     1.0000 0.77660  0.18740  0.04750  Biso   1.000  H
  H173     1.0000 0.70590  0.18570  0.99480  Biso   1.000  H
  C151     1.0000 0.41990  0.12380  0.89010  Biso   1.000  C
  H174     1.0000 0.47530  0.16310  0.89660  Biso   1.000  H
  H175     1.0000 0.38980  0.14980  0.87770  Biso   1.000  H
  H176     1.0000 0.41370  0.08850  0.84190  Biso   1.000  H
  C152     1.0000 0.31930  0.81460  0.58550  Biso   1.000  C
  O46      1.0000 0.45530  0.09500  0.34030  Biso   1.000  O
  H177     1.0000 0.41200  0.05800  0.32400  Biso   1.000  H
  H178     1.0000 0.47900  0.07500  0.36600  Biso   1.000  H
  O47      1.0000 0.33610  0.05100  0.27240  Biso   1.000  O
  C153     1.0000 0.32550  0.86820  0.51440  Biso   1.000  C
  C154     1.0000 0.30610  0.92610  0.52720  Biso   1.000  C
  C155     1.0000 0.32150  0.98110  0.46230  Biso   1.000  C
  C156     1.0000 0.35620  0.97820  0.38470  Biso   1.000  C
  C157     1.0000 0.37550  0.92020  0.37190  Biso   1.000  C
  C158     1.0000 0.36020  0.86520  0.43680  Biso   1.000  C
  C159     1.0000 0.38540  0.04710  0.32320  Biso   1.000  C
  C160     1.0000 0.33310  0.99680  0.68730  Biso   1.000  C
  H179     1.0000 0.36440  0.04260  0.65060  Biso   1.000  H
  H180     1.0000 0.31170  0.01170  0.73660  Biso   1.000  H
  H181     1.0000 0.36600  0.97640  0.70920  Biso   1.000  H
  C161     1.0000 0.20280  0.01560  0.44350  Biso   1.000  C
  H182     1.0000 0.16780  0.98950  0.49280  Biso   1.000  H
  H183     1.0000 0.19310  0.05620  0.42030  Biso   1.000  H
  H184     1.0000 0.19330  0.97720  0.39780  Biso   1.000  H
  C162     1.0000 0.37030  0.92410  0.18920  Biso   1.000  C
  H185     1.0000 0.38970  0.91500  0.13420  Biso   1.000  H
  H186     1.0000 0.31460  0.88570  0.19540  Biso   1.000  H
  H187     1.0000 0.37750  0.97690  0.18920  Biso   1.000  H
  C163     1.0000 0.48850  0.84770  0.44060  Biso   1.000  C
  H188     1.0000 0.50070  0.87260  0.49820  Biso   1.000  H
  H189     1.0000 0.51170  0.81410  0.43540  Biso   1.000  H
  H190     1.0000 0.51010  0.88810  0.39540  Biso   1.000  H
  S51      1.0000 0.25470  0.92320  0.62470  Biso   1.000  S
  S52      1.0000 0.30203  0.05930  0.47930  Biso   1.000  S
  S53      1.0000 0.42130  0.91460  0.27460  Biso   1.000  S
  S54      1.0000 0.38460  0.79000  0.42770  Biso   1.000  S
  O48      1.0000 0.19190  0.94160  0.24980  Biso   1.000  O
  H191     1.0000 0.18840  0.97890  0.22870  Biso   1.000  H
  O49      1.0000 0.33500  0.03300  0.25700  Biso   1.000  O
  C164     1.0000 0.31590  0.86420  0.50610  Biso   1.000  C
  C165     1.0000 0.29020  0.91690  0.52200  Biso   1.000  C
  C166     1.0000 0.27290  0.95110  0.45270  Biso   1.000  C
  C167     1.0000 0.28150  0.93260  0.36750  Biso   1.000  C
  C168     1.0000 0.30720  0.87990  0.35160  Biso   1.000  C
  C169     1.0000 0.32430  0.84560  0.42090  Biso   1.000  C
  C170     1.0000 0.26020  0.96920  0.29030  Biso   1.000  C
  C171     1.0000 0.37530  0.99430  0.67400  Biso   1.000  C
  H192     1.0000 0.38960  0.04930  0.66760  Biso   1.000  H
  H193     1.0000 0.37810  0.98290  0.73560  Biso   1.000  H
  H194     1.0000 0.41100  0.98410  0.64000  Biso   1.000  H
  C172     1.0000 0.32400  0.09880  0.51480  Biso   1.000  C
  H195     1.0000 0.36460  0.08420  0.51960  Biso   1.000  H
  H196     1.0000 0.34260  0.14460  0.47690  Biso   1.000  H
  H197     1.0000 0.31260  0.11140  0.57280  Biso   1.000  H
  C173     1.0000 0.41000  0.91600  0.22400  Biso   1.000  C
  H198     1.0000 0.43630  0.88510  0.22690  Biso   1.000  H
  H199     1.0000 0.41920  0.94070  0.16610  Biso   1.000  H
  H200     1.0000 0.43080  0.95640  0.26880  Biso   1.000  H
  C174     1.0000 0.46000  0.83100  0.40900  Biso   1.000  C
  H201     1.0000 0.48340  0.82150  0.35720  Biso   1.000  H
  H202     1.0000 0.47720  0.88640  0.41350  Biso   1.000  H
  H203     1.0000 0.47650  0.81400  0.46110  Biso   1.000  H
  S55      1.0000 0.28030  0.93510  0.63660  Biso   1.000  S
  S56      1.0000 0.23890  0.02060  0.47050  Biso   1.000  S
  S57      1.0000 0.31070  0.85550  0.23910  Biso   1.000  S
  S58      1.0000 0.35680  0.77630  0.40030  Biso   1.000  S
  Eu6      1.0000 0.55683  0.21750  0.28889  Biso   1.000  Eu
  O50      1.0000 0.51610  0.13780  0.16350  Biso   1.000  O
  O51      1.0000 0.57450  0.20720  0.04330  Biso   1.000  O
  O52      1.0000 0.25600  0.75270  0.59680  Biso   1.000  O
  O53      1.0000 0.38050  0.83840  0.62950  Biso   1.000  O
  O54      1.0000 0.74310  0.41730  0.20050  Biso   1.000  O
  H204     1.0000 0.78910  0.46630  0.17820  Biso   1.000  H
  S59      1.0000 0.65799  0.09589  0.10787  Biso   1.000  S
  S60      1.0000 0.38532  0.06904  0.98815  Biso   1.000  S
  Eu7      1.0000 0.33333  0.66667  0.91368  Biso   1.000  Eu
  O55      1.0000 0.33333  0.66667  0.64980  Biso   1.000  O
  H205     1.0000 0.33333  0.66667  0.58460  Biso   1.000  H
  Eu8      1.0000 0.66667  0.33333  0.08632  Biso   1.000  Eu
  O56      1.0000 0.66667  0.33333  0.35020  Biso   1.000  O
  H206     1.0000 0.66667  0.33333  0.41540  Biso   1.000  H
