data_image0
_cell_length_a       19.5856
_cell_length_b       19.5856
_cell_length_c       15.7843
_cell_angle_alpha    90
_cell_angle_beta     90
_cell_angle_gamma    120

_symmetry_space_group_name_H-M    "P 1"
_symmetry_int_tables_number       1

loop_
  _symmetry_equiv_pos_as_xyz
  'x, y, z'

loop_
  _atom_site_label
  _atom_site_occupancy
  _atom_site_fract_x
  _atom_site_fract_y
  _atom_site_fract_z
  _atom_site_thermal_displace_type
  _atom_site_B_iso_or_equiv
  _atom_site_type_symbol
  Ag1      1.0000 0.39810  0.76914  0.77635  Biso   1.000  Ag
  Cl1      1.0000 0.28526  0.75629  0.69964  Biso   1.000  Cl
  C1       1.0000 0.46450  0.60730  0.40970  Biso   1.000  C
  C2       1.0000 0.42700  0.47210  0.46050  Biso   1.000  C
  C3       1.0000 0.48330  0.55200  0.45820  Biso   1.000  C
  C4       1.0000 0.55690  0.58080  0.49660  Biso   1.000  C
  C5       1.0000 0.27500  0.43960  0.49300  Biso   1.000  C
  H1       1.0000 0.22310  0.42700  0.47130  Biso   1.000  H
  H2       1.0000 0.30030  0.49180  0.51960  Biso   1.000  H
  H3       1.0000 0.26870  0.40000  0.53500  Biso   1.000  H
  C6       1.0000 0.62930  0.71890  0.58810  Biso   1.000  C
  H4       1.0000 0.65490  0.77650  0.58620  Biso   1.000  H
  H5       1.0000 0.65850  0.70330  0.62640  Biso   1.000  H
  H6       1.0000 0.57510  0.69700  0.60850  Biso   1.000  H
  C7       1.0000 0.49480  0.81720  0.09550  Biso   1.000  C
  C8       1.0000 0.54290  0.87360  0.02530  Biso   1.000  C
  C9       1.0000 0.62130  0.93040  0.03940  Biso   1.000  C
  C10      1.0000 0.66310  0.98600  0.97520  Biso   1.000  C
  C11      1.0000 0.62610  0.98340  0.89910  Biso   1.000  C
  C12      1.0000 0.54790  0.92410  0.88380  Biso   1.000  C
  C13      1.0000 0.50670  0.86910  0.94760  Biso   1.000  C
  C14      1.0000 0.66830  0.05080  0.83610  Biso   1.000  C
  S1       1.0000 0.66835  0.92378  0.13022  Biso   1.000  S
  S2       1.0000 0.76050  0.06020  0.98620  Biso   1.000  S
  S3       1.0000 0.49060  0.92351  0.79326  Biso   1.000  S
  C15      1.0000 0.66290  0.99680  0.19110  Biso   1.000  C
  H7       1.0000 0.69040  0.04740  0.16130  Biso   1.000  H
  H8       1.0000 0.68780  0.00170  0.24630  Biso   1.000  H
  H9       1.0000 0.60750  0.98170  0.19920  Biso   1.000  H
  C16      1.0000 0.81620  0.02030  0.93760  Biso   1.000  C
  H10      1.0000 0.79340  0.99800  0.88220  Biso   1.000  H
  H11      1.0000 0.81450  0.97880  0.97380  Biso   1.000  H
  H12      1.0000 0.87110  0.06240  0.93020  Biso   1.000  H
  C17      1.0000 0.55190  0.93980  0.70250  Biso   1.000  C
  H13      1.0000 0.58820  0.99650  0.69560  Biso   1.000  H
  H14      1.0000 0.51880  0.91910  0.65190  Biso   1.000  H
  H15      1.0000 0.58220  0.91290  0.71050  Biso   1.000  H
  O1       1.0000 0.33140  0.23040  0.16580  Biso   1.000  O
  H16      1.0000 0.32400  0.21200  0.11600  Biso   1.000  H
  H17      1.0000 0.31700  0.26500  0.16400  Biso   1.000  H
  C18      1.0000 0.35530  0.84700  0.95150  Biso   1.000  C
  H18      1.0000 0.36630  0.87050  0.00820  Biso   1.000  H
  H19      1.0000 0.29850  0.81130  0.94520  Biso   1.000  H
  H20      1.0000 0.37340  0.88870  0.90870  Biso   1.000  H
  Eu1      1.0000 0.44483  0.66309  0.21598  Biso   1.000  Eu
  O2       1.0000 0.48433  0.61834  0.33317  Biso   1.000  O
  O3       1.0000 0.42926  0.63680  0.44930  Biso   1.000  O
  O4       1.0000 0.32680  0.58262  0.30034  Biso   1.000  O
  H21      1.0000 0.32470  0.53370  0.32230  Biso   1.000  H
  O5       1.0000 0.49741  0.75518  0.10397  Biso   1.000  O
  O6       1.0000 0.45589  0.83895  0.14030  Biso   1.000  O
  O7       1.0000 0.71920  0.05190  0.78740  Biso   1.000  O
  O8       1.0000 0.64498  0.09990  0.83958  Biso   1.000  O
  S4       1.0000 0.33562  0.43953  0.40645  Biso   1.000  S
  S5       1.0000 0.62806  0.68260  0.48596  Biso   1.000  S
  S6       1.0000 0.40672  0.79220  0.93756  Biso   1.000  S
  C19      1.0000 0.19400  0.27120  0.14780  Biso   1.000  C
  C20      1.0000 0.21100  0.19300  0.98200  Biso   1.000  C
  C21      1.0000 0.50340  0.52720  0.77320  Biso   1.000  C
  H22      1.0000 0.16550  0.29170  0.11540  Biso   1.000  H
  H23      1.0000 0.17170  0.25690  0.20500  Biso   1.000  H
  H24      1.0000 0.18920  0.22450  0.11940  Biso   1.000  H
  H25      1.0000 0.19030  0.22500  0.00610  Biso   1.000  H
  H26      1.0000 0.18200  0.13950  0.00420  Biso   1.000  H
  H27      1.0000 0.20570  0.19180  0.91990  Biso   1.000  H
  H28      1.0000 0.52260  0.51000  0.82150  Biso   1.000  H
  H29      1.0000 0.52470  0.58430  0.77660  Biso   1.000  H
  H30      1.0000 0.52080  0.51450  0.72030  Biso   1.000  H
  S7       1.0000 0.29560  0.34510  0.15470  Biso   1.000  S
  S8       1.0000 0.31330  0.23610  0.00870  Biso   1.000  S
  S9       1.0000 0.39330  0.47550  0.77560  Biso   1.000  S
  Ag2      1.0000 0.23086  0.62896  0.77635  Biso   1.000  Ag
  Cl2      1.0000 0.24371  0.52897  0.69964  Biso   1.000  Cl
  C22      1.0000 0.39270  0.85720  0.40970  Biso   1.000  C
  C23      1.0000 0.52790  0.95490  0.46050  Biso   1.000  C
  C24      1.0000 0.44800  0.93130  0.45820  Biso   1.000  C
  C25      1.0000 0.41920  0.97610  0.49660  Biso   1.000  C
  C26      1.0000 0.56040  0.83540  0.49300  Biso   1.000  C
  H31      1.0000 0.57300  0.79610  0.47130  Biso   1.000  H
  H32      1.0000 0.50820  0.80850  0.51960  Biso   1.000  H
  H33      1.0000 0.60000  0.86870  0.53500  Biso   1.000  H
  C27      1.0000 0.28110  0.91040  0.58810  Biso   1.000  C
  H34      1.0000 0.22350  0.87840  0.58620  Biso   1.000  H
  H35      1.0000 0.29670  0.95520  0.62640  Biso   1.000  H
  H36      1.0000 0.30300  0.87810  0.60850  Biso   1.000  H
  C28      1.0000 0.18280  0.67760  0.09550  Biso   1.000  C
  C29      1.0000 0.12640  0.66930  0.02530  Biso   1.000  C
  C30      1.0000 0.06960  0.69090  0.03940  Biso   1.000  C
  C31      1.0000 0.01400  0.67710  0.97520  Biso   1.000  C
  C32      1.0000 0.01660  0.64270  0.89910  Biso   1.000  C
  C33      1.0000 0.07590  0.62380  0.88380  Biso   1.000  C
  C34      1.0000 0.13090  0.63760  0.94760  Biso   1.000  C
  C35      1.0000 0.94920  0.61750  0.83610  Biso   1.000  C
  S10      1.0000 0.07622  0.74457  0.13022  Biso   1.000  S
  S11      1.0000 0.93980  0.70030  0.98620  Biso   1.000  S
  S12      1.0000 0.07649  0.56709  0.79326  Biso   1.000  S
  C36      1.0000 0.00320  0.66610  0.19110  Biso   1.000  C
  H37      1.0000 0.95260  0.64300  0.16130  Biso   1.000  H
  H38      1.0000 0.99830  0.68610  0.24630  Biso   1.000  H
  H39      1.0000 0.01830  0.62580  0.19920  Biso   1.000  H
  C37      1.0000 0.97970  0.79590  0.93760  Biso   1.000  C
  H40      1.0000 0.00200  0.79540  0.88220  Biso   1.000  H
  H41      1.0000 0.02120  0.83570  0.97380  Biso   1.000  H
  H42      1.0000 0.93760  0.80870  0.93020  Biso   1.000  H
  C38      1.0000 0.06020  0.61210  0.70250  Biso   1.000  C
  H43      1.0000 0.00350  0.59170  0.69560  Biso   1.000  H
  H44      1.0000 0.08090  0.59970  0.65190  Biso   1.000  H
  H45      1.0000 0.08710  0.66930  0.71050  Biso   1.000  H
  O9       1.0000 0.76960  0.10100  0.16580  Biso   1.000  O
  H46      1.0000 0.78800  0.11200  0.11600  Biso   1.000  H
  H47      1.0000 0.73500  0.05200  0.16400  Biso   1.000  H
  C39      1.0000 0.15300  0.50830  0.95150  Biso   1.000  C
  H48      1.0000 0.12950  0.49580  0.00820  Biso   1.000  H
  H49      1.0000 0.18870  0.48720  0.94520  Biso   1.000  H
  H50      1.0000 0.11130  0.48470  0.90870  Biso   1.000  H
  Eu2      1.0000 0.33691  0.78174  0.21598  Biso   1.000  Eu
  O10      1.0000 0.38166  0.86599  0.33317  Biso   1.000  O
  O11      1.0000 0.36320  0.79246  0.44930  Biso   1.000  O
  O12      1.0000 0.41738  0.74418  0.30034  Biso   1.000  O
  H51      1.0000 0.46630  0.79100  0.32230  Biso   1.000  H
  O13      1.0000 0.24482  0.74223  0.10397  Biso   1.000  O
  O14      1.0000 0.16105  0.61694  0.14030  Biso   1.000  O
  O15      1.0000 0.94810  0.66730  0.78740  Biso   1.000  O
  O16      1.0000 0.90010  0.54508  0.83958  Biso   1.000  O
  S13      1.0000 0.56047  0.89609  0.40645  Biso   1.000  S
  S14      1.0000 0.31740  0.94546  0.48596  Biso   1.000  S
  S15      1.0000 0.20780  0.61452  0.93756  Biso   1.000  S
  C40      1.0000 0.72880  0.92280  0.14780  Biso   1.000  C
  C41      1.0000 0.80700  0.01800  0.98200  Biso   1.000  C
  C42      1.0000 0.47280  0.97620  0.77320  Biso   1.000  C
  H52      1.0000 0.70830  0.87380  0.11540  Biso   1.000  H
  H53      1.0000 0.74310  0.91480  0.20500  Biso   1.000  H
  H54      1.0000 0.77550  0.96470  0.11940  Biso   1.000  H
  H55      1.0000 0.77500  0.96530  0.00610  Biso   1.000  H
  H56      1.0000 0.86050  0.04250  0.00420  Biso   1.000  H
  H57      1.0000 0.80820  0.01390  0.91990  Biso   1.000  H
  H58      1.0000 0.49000  0.01260  0.82150  Biso   1.000  H
  H59      1.0000 0.41570  0.94040  0.77660  Biso   1.000  H
  H60      1.0000 0.48550  0.00630  0.72030  Biso   1.000  H
  S16      1.0000 0.65490  0.95050  0.15470  Biso   1.000  S
  S17      1.0000 0.76390  0.07720  0.00870  Biso   1.000  S
  S18      1.0000 0.52450  0.91780  0.77560  Biso   1.000  S
  Ag3      1.0000 0.37104  0.60190  0.77635  Biso   1.000  Ag
  Cl3      1.0000 0.47103  0.71474  0.69964  Biso   1.000  Cl
  C43      1.0000 0.14280  0.53550  0.40970  Biso   1.000  C
  C44      1.0000 0.04510  0.57300  0.46050  Biso   1.000  C
  C45      1.0000 0.06870  0.51670  0.45820  Biso   1.000  C
  C46      1.0000 0.02390  0.44310  0.49660  Biso   1.000  C
  C47      1.0000 0.16460  0.72500  0.49300  Biso   1.000  C
  H61      1.0000 0.20390  0.77690  0.47130  Biso   1.000  H
  H62      1.0000 0.19150  0.69970  0.51960  Biso   1.000  H
  H63      1.0000 0.13130  0.73130  0.53500  Biso   1.000  H
  C48      1.0000 0.08960  0.37070  0.58810  Biso   1.000  C
  H64      1.0000 0.12160  0.34510  0.58620  Biso   1.000  H
  H65      1.0000 0.04480  0.34150  0.62640  Biso   1.000  H
  H66      1.0000 0.12190  0.42490  0.60850  Biso   1.000  H
  C49      1.0000 0.32240  0.50520  0.09550  Biso   1.000  C
  C50      1.0000 0.33070  0.45710  0.02530  Biso   1.000  C
  C51      1.0000 0.30910  0.37870  0.03940  Biso   1.000  C
  C52      1.0000 0.32290  0.33690  0.97520  Biso   1.000  C
  C53      1.0000 0.35730  0.37390  0.89910  Biso   1.000  C
  C54      1.0000 0.37620  0.45210  0.88380  Biso   1.000  C
  C55      1.0000 0.36240  0.49330  0.94760  Biso   1.000  C
  C56      1.0000 0.38250  0.33170  0.83610  Biso   1.000  C
  S19      1.0000 0.25543  0.33165  0.13022  Biso   1.000  S
  S20      1.0000 0.29970  0.23950  0.98620  Biso   1.000  S
  S21      1.0000 0.43291  0.50940  0.79326  Biso   1.000  S
  C57      1.0000 0.33390  0.33710  0.19110  Biso   1.000  C
  H67      1.0000 0.35700  0.30960  0.16130  Biso   1.000  H
  H68      1.0000 0.31390  0.31220  0.24630  Biso   1.000  H
  H69      1.0000 0.37420  0.39250  0.19920  Biso   1.000  H
  C58      1.0000 0.20410  0.18380  0.93760  Biso   1.000  C
  H70      1.0000 0.20460  0.20660  0.88220  Biso   1.000  H
  H71      1.0000 0.16430  0.18550  0.97380  Biso   1.000  H
  H72      1.0000 0.19130  0.12890  0.93020  Biso   1.000  H
  C59      1.0000 0.38790  0.44810  0.70250  Biso   1.000  C
  H73      1.0000 0.40830  0.41180  0.69560  Biso   1.000  H
  H74      1.0000 0.40030  0.48120  0.65190  Biso   1.000  H
  H75      1.0000 0.33070  0.41780  0.71050  Biso   1.000  H
  O17      1.0000 0.89900  0.66860  0.16580  Biso   1.000  O
  H76      1.0000 0.88800  0.67600  0.11600  Biso   1.000  H
  H77      1.0000 0.94800  0.68300  0.16400  Biso   1.000  H
  C60      1.0000 0.49170  0.64470  0.95150  Biso   1.000  C
  H78      1.0000 0.50420  0.63370  0.00820  Biso   1.000  H
  H79      1.0000 0.51280  0.70150  0.94520  Biso   1.000  H
  H80      1.0000 0.51530  0.62660  0.90870  Biso   1.000  H
  Eu3      1.0000 0.21826  0.55517  0.21598  Biso   1.000  Eu
  O18      1.0000 0.13401  0.51567  0.33317  Biso   1.000  O
  O19      1.0000 0.20754  0.57074  0.44930  Biso   1.000  O
  O20      1.0000 0.25582  0.67320  0.30034  Biso   1.000  O
  H81      1.0000 0.20900  0.67530  0.32230  Biso   1.000  H
  O21      1.0000 0.25777  0.50259  0.10397  Biso   1.000  O
  O22      1.0000 0.38306  0.54411  0.14030  Biso   1.000  O
  O23      1.0000 0.33270  0.28080  0.78740  Biso   1.000  O
  O24      1.0000 0.45492  0.35502  0.83958  Biso   1.000  O
  S22      1.0000 0.10391  0.66438  0.40645  Biso   1.000  S
  S23      1.0000 0.05454  0.37194  0.48596  Biso   1.000  S
  S24      1.0000 0.38548  0.59328  0.93756  Biso   1.000  S
  C61      1.0000 0.07720  0.80600  0.14780  Biso   1.000  C
  C62      1.0000 0.98200  0.78900  0.98200  Biso   1.000  C
  C63      1.0000 0.02380  0.49660  0.77320  Biso   1.000  C
  H82      1.0000 0.12620  0.83450  0.11540  Biso   1.000  H
  H83      1.0000 0.08520  0.82830  0.20500  Biso   1.000  H
  H84      1.0000 0.03530  0.81080  0.11940  Biso   1.000  H
  H85      1.0000 0.03470  0.80970  0.00610  Biso   1.000  H
  H86      1.0000 0.95750  0.81800  0.00420  Biso   1.000  H
  H87      1.0000 0.98610  0.79430  0.91990  Biso   1.000  H
  H88      1.0000 0.98740  0.47740  0.82150  Biso   1.000  H
  H89      1.0000 0.05960  0.47530  0.77660  Biso   1.000  H
  H90      1.0000 0.99370  0.47920  0.72030  Biso   1.000  H
  S25      1.0000 0.04950  0.70440  0.15470  Biso   1.000  S
  S26      1.0000 0.92280  0.68670  0.00870  Biso   1.000  S
  S27      1.0000 0.08220  0.60670  0.77560  Biso   1.000  S
  Ag4      1.0000 0.60190  0.23086  0.22365  Biso   1.000  Ag
  Cl4      1.0000 0.71474  0.24371  0.30036  Biso   1.000  Cl
  C64      1.0000 0.53550  0.39270  0.59030  Biso   1.000  C
  C65      1.0000 0.57300  0.52790  0.53950  Biso   1.000  C
  C66      1.0000 0.51670  0.44800  0.54180  Biso   1.000  C
  C67      1.0000 0.44310  0.41920  0.50340  Biso   1.000  C
  C68      1.0000 0.72500  0.56040  0.50700  Biso   1.000  C
  H91      1.0000 0.77690  0.57300  0.52870  Biso   1.000  H
  H92      1.0000 0.69970  0.50820  0.48040  Biso   1.000  H
  H93      1.0000 0.73130  0.60000  0.46500  Biso   1.000  H
  C69      1.0000 0.37070  0.28110  0.41190  Biso   1.000  C
  H94      1.0000 0.34510  0.22350  0.41380  Biso   1.000  H
  H95      1.0000 0.34150  0.29670  0.37360  Biso   1.000  H
  H96      1.0000 0.42490  0.30300  0.39150  Biso   1.000  H
  C70      1.0000 0.50520  0.18280  0.90450  Biso   1.000  C
  C71      1.0000 0.45710  0.12640  0.97470  Biso   1.000  C
  C72      1.0000 0.37870  0.06960  0.96060  Biso   1.000  C
  C73      1.0000 0.33690  0.01400  0.02480  Biso   1.000  C
  C74      1.0000 0.37390  0.01660  0.10090  Biso   1.000  C
  C75      1.0000 0.45210  0.07590  0.11620  Biso   1.000  C
  C76      1.0000 0.49330  0.13090  0.05240  Biso   1.000  C
  C77      1.0000 0.33170  0.94920  0.16390  Biso   1.000  C
  S28      1.0000 0.33165  0.07622  0.86978  Biso   1.000  S
  S29      1.0000 0.23950  0.93980  0.01380  Biso   1.000  S
  S30      1.0000 0.50940  0.07649  0.20674  Biso   1.000  S
  C78      1.0000 0.33710  0.00320  0.80890  Biso   1.000  C
  H97      1.0000 0.30960  0.95260  0.83870  Biso   1.000  H
  H98      1.0000 0.31220  0.99830  0.75370  Biso   1.000  H
  H99      1.0000 0.39250  0.01830  0.80080  Biso   1.000  H
  C79      1.0000 0.18380  0.97970  0.06240  Biso   1.000  C
  H100     1.0000 0.20660  0.00200  0.11780  Biso   1.000  H
  H101     1.0000 0.18550  0.02120  0.02620  Biso   1.000  H
  H102     1.0000 0.12890  0.93760  0.06980  Biso   1.000  H
  C80      1.0000 0.44810  0.06020  0.29750  Biso   1.000  C
  H103     1.0000 0.41180  0.00350  0.30440  Biso   1.000  H
  H104     1.0000 0.48120  0.08090  0.34810  Biso   1.000  H
  H105     1.0000 0.41780  0.08710  0.28950  Biso   1.000  H
  O25      1.0000 0.66860  0.76960  0.83420  Biso   1.000  O
  H106     1.0000 0.67600  0.78800  0.88400  Biso   1.000  H
  H107     1.0000 0.68300  0.73500  0.83600  Biso   1.000  H
  C81      1.0000 0.64470  0.15300  0.04850  Biso   1.000  C
  H108     1.0000 0.63370  0.12950  0.99180  Biso   1.000  H
  H109     1.0000 0.70150  0.18870  0.05480  Biso   1.000  H
  H110     1.0000 0.62660  0.11130  0.09130  Biso   1.000  H
  Eu4      1.0000 0.55517  0.33691  0.78402  Biso   1.000  Eu
  O26      1.0000 0.51567  0.38166  0.66683  Biso   1.000  O
  O27      1.0000 0.57074  0.36320  0.55070  Biso   1.000  O
  O28      1.0000 0.67320  0.41738  0.69966  Biso   1.000  O
  H111     1.0000 0.67530  0.46630  0.67770  Biso   1.000  H
  O29      1.0000 0.50259  0.24482  0.89603  Biso   1.000  O
  O30      1.0000 0.54411  0.16105  0.85970  Biso   1.000  O
  O31      1.0000 0.28080  0.94810  0.21260  Biso   1.000  O
  O32      1.0000 0.35502  0.90010  0.16042  Biso   1.000  O
  S31      1.0000 0.66438  0.56047  0.59355  Biso   1.000  S
  S32      1.0000 0.37194  0.31740  0.51404  Biso   1.000  S
  S33      1.0000 0.59328  0.20780  0.06244  Biso   1.000  S
  C82      1.0000 0.80600  0.72880  0.85220  Biso   1.000  C
  C83      1.0000 0.78900  0.80700  0.01800  Biso   1.000  C
  C84      1.0000 0.49660  0.47280  0.22680  Biso   1.000  C
  H112     1.0000 0.83450  0.70830  0.88460  Biso   1.000  H
  H113     1.0000 0.82830  0.74310  0.79500  Biso   1.000  H
  H114     1.0000 0.81080  0.77550  0.88060  Biso   1.000  H
  H115     1.0000 0.80970  0.77500  0.99390  Biso   1.000  H
  H116     1.0000 0.81800  0.86050  0.99580  Biso   1.000  H
  H117     1.0000 0.79430  0.80820  0.08010  Biso   1.000  H
  H118     1.0000 0.47740  0.49000  0.17850  Biso   1.000  H
  H119     1.0000 0.47530  0.41570  0.22340  Biso   1.000  H
  H120     1.0000 0.47920  0.48550  0.27970  Biso   1.000  H
  S34      1.0000 0.70440  0.65490  0.84530  Biso   1.000  S
  S35      1.0000 0.68670  0.76390  0.99130  Biso   1.000  S
  S36      1.0000 0.60670  0.52450  0.22440  Biso   1.000  S
  Ag5      1.0000 0.76914  0.37104  0.22365  Biso   1.000  Ag
  Cl5      1.0000 0.75629  0.47103  0.30036  Biso   1.000  Cl
  C85      1.0000 0.60730  0.14280  0.59030  Biso   1.000  C
  C86      1.0000 0.47210  0.04510  0.53950  Biso   1.000  C
  C87      1.0000 0.55200  0.06870  0.54180  Biso   1.000  C
  C88      1.0000 0.58080  0.02390  0.50340  Biso   1.000  C
  C89      1.0000 0.43960  0.16460  0.50700  Biso   1.000  C
  H121     1.0000 0.42700  0.20390  0.52870  Biso   1.000  H
  H122     1.0000 0.49180  0.19150  0.48040  Biso   1.000  H
  H123     1.0000 0.40000  0.13130  0.46500  Biso   1.000  H
  C90      1.0000 0.71890  0.08960  0.41190  Biso   1.000  C
  H124     1.0000 0.77650  0.12160  0.41380  Biso   1.000  H
  H125     1.0000 0.70330  0.04480  0.37360  Biso   1.000  H
  H126     1.0000 0.69700  0.12190  0.39150  Biso   1.000  H
  C91      1.0000 0.81720  0.32240  0.90450  Biso   1.000  C
  C92      1.0000 0.87360  0.33070  0.97470  Biso   1.000  C
  C93      1.0000 0.93040  0.30910  0.96060  Biso   1.000  C
  C94      1.0000 0.98600  0.32290  0.02480  Biso   1.000  C
  C95      1.0000 0.98340  0.35730  0.10090  Biso   1.000  C
  C96      1.0000 0.92410  0.37620  0.11620  Biso   1.000  C
  C97      1.0000 0.86910  0.36240  0.05240  Biso   1.000  C
  C98      1.0000 0.05080  0.38250  0.16390  Biso   1.000  C
  S37      1.0000 0.92378  0.25543  0.86978  Biso   1.000  S
  S38      1.0000 0.06020  0.29970  0.01380  Biso   1.000  S
  S39      1.0000 0.92351  0.43291  0.20674  Biso   1.000  S
  C99      1.0000 0.99680  0.33390  0.80890  Biso   1.000  C
  H127     1.0000 0.04740  0.35700  0.83870  Biso   1.000  H
  H128     1.0000 0.00170  0.31390  0.75370  Biso   1.000  H
  H129     1.0000 0.98170  0.37420  0.80080  Biso   1.000  H
  C100     1.0000 0.02030  0.20410  0.06240  Biso   1.000  C
  H130     1.0000 0.99800  0.20460  0.11780  Biso   1.000  H
  H131     1.0000 0.97880  0.16430  0.02620  Biso   1.000  H
  H132     1.0000 0.06240  0.19130  0.06980  Biso   1.000  H
  C101     1.0000 0.93980  0.38790  0.29750  Biso   1.000  C
  H133     1.0000 0.99650  0.40830  0.30440  Biso   1.000  H
  H134     1.0000 0.91910  0.40030  0.34810  Biso   1.000  H
  H135     1.0000 0.91290  0.33070  0.28950  Biso   1.000  H
  O33      1.0000 0.23040  0.89900  0.83420  Biso   1.000  O
  H136     1.0000 0.21200  0.88800  0.88400  Biso   1.000  H
  H137     1.0000 0.26500  0.94800  0.83600  Biso   1.000  H
  C102     1.0000 0.84700  0.49170  0.04850  Biso   1.000  C
  H138     1.0000 0.87050  0.50420  0.99180  Biso   1.000  H
  H139     1.0000 0.81130  0.51280  0.05480  Biso   1.000  H
  H140     1.0000 0.88870  0.51530  0.09130  Biso   1.000  H
  Eu5      1.0000 0.66309  0.21826  0.78402  Biso   1.000  Eu
  O34      1.0000 0.61834  0.13401  0.66683  Biso   1.000  O
  O35      1.0000 0.63680  0.20754  0.55070  Biso   1.000  O
  O36      1.0000 0.58262  0.25582  0.69966  Biso   1.000  O
  H141     1.0000 0.53370  0.20900  0.67770  Biso   1.000  H
  O37      1.0000 0.75518  0.25777  0.89603  Biso   1.000  O
  O38      1.0000 0.83895  0.38306  0.85970  Biso   1.000  O
  O39      1.0000 0.05190  0.33270  0.21260  Biso   1.000  O
  O40      1.0000 0.09990  0.45492  0.16042  Biso   1.000  O
  S40      1.0000 0.43953  0.10391  0.59355  Biso   1.000  S
  S41      1.0000 0.68260  0.05454  0.51404  Biso   1.000  S
  S42      1.0000 0.79220  0.38548  0.06244  Biso   1.000  S
  C103     1.0000 0.27120  0.07720  0.85220  Biso   1.000  C
  C104     1.0000 0.19300  0.98200  0.01800  Biso   1.000  C
  C105     1.0000 0.52720  0.02380  0.22680  Biso   1.000  C
  H142     1.0000 0.29170  0.12620  0.88460  Biso   1.000  H
  H143     1.0000 0.25690  0.08520  0.79500  Biso   1.000  H
  H144     1.0000 0.22450  0.03530  0.88060  Biso   1.000  H
  H145     1.0000 0.22500  0.03470  0.99390  Biso   1.000  H
  H146     1.0000 0.13950  0.95750  0.99580  Biso   1.000  H
  H147     1.0000 0.19180  0.98610  0.08010  Biso   1.000  H
  H148     1.0000 0.51000  0.98740  0.17850  Biso   1.000  H
  H149     1.0000 0.58430  0.05960  0.22340  Biso   1.000  H
  H150     1.0000 0.51450  0.99370  0.27970  Biso   1.000  H
  S43      1.0000 0.34510  0.04950  0.84530  Biso   1.000  S
  S44      1.0000 0.23610  0.92280  0.99130  Biso   1.000  S
  S45      1.0000 0.47550  0.08220  0.22440  Biso   1.000  S
  Ag6      1.0000 0.62896  0.39810  0.22365  Biso   1.000  Ag
  Cl6      1.0000 0.52897  0.28526  0.30036  Biso   1.000  Cl
  C106     1.0000 0.85720  0.46450  0.59030  Biso   1.000  C
  C107     1.0000 0.95490  0.42700  0.53950  Biso   1.000  C
  C108     1.0000 0.93130  0.48330  0.54180  Biso   1.000  C
  C109     1.0000 0.97610  0.55690  0.50340  Biso   1.000  C
  C110     1.0000 0.83540  0.27500  0.50700  Biso   1.000  C
  H151     1.0000 0.79610  0.22310  0.52870  Biso   1.000  H
  H152     1.0000 0.80850  0.30030  0.48040  Biso   1.000  H
  H153     1.0000 0.86870  0.26870  0.46500  Biso   1.000  H
  C111     1.0000 0.91040  0.62930  0.41190  Biso   1.000  C
  H154     1.0000 0.87840  0.65490  0.41380  Biso   1.000  H
  H155     1.0000 0.95520  0.65850  0.37360  Biso   1.000  H
  H156     1.0000 0.87810  0.57510  0.39150  Biso   1.000  H
  C112     1.0000 0.67760  0.49480  0.90450  Biso   1.000  C
  C113     1.0000 0.66930  0.54290  0.97470  Biso   1.000  C
  C114     1.0000 0.69090  0.62130  0.96060  Biso   1.000  C
  C115     1.0000 0.67710  0.66310  0.02480  Biso   1.000  C
  C116     1.0000 0.64270  0.62610  0.10090  Biso   1.000  C
  C117     1.0000 0.62380  0.54790  0.11620  Biso   1.000  C
  C118     1.0000 0.63760  0.50670  0.05240  Biso   1.000  C
  C119     1.0000 0.61750  0.66830  0.16390  Biso   1.000  C
  S46      1.0000 0.74457  0.66835  0.86978  Biso   1.000  S
  S47      1.0000 0.70030  0.76050  0.01380  Biso   1.000  S
  S48      1.0000 0.56709  0.49060  0.20674  Biso   1.000  S
  C120     1.0000 0.66610  0.66290  0.80890  Biso   1.000  C
  H157     1.0000 0.64300  0.69040  0.83870  Biso   1.000  H
  H158     1.0000 0.68610  0.68780  0.75370  Biso   1.000  H
  H159     1.0000 0.62580  0.60750  0.80080  Biso   1.000  H
  C121     1.0000 0.79590  0.81620  0.06240  Biso   1.000  C
  H160     1.0000 0.79540  0.79340  0.11780  Biso   1.000  H
  H161     1.0000 0.83570  0.81450  0.02620  Biso   1.000  H
  H162     1.0000 0.80870  0.87110  0.06980  Biso   1.000  H
  C122     1.0000 0.61210  0.55190  0.29750  Biso   1.000  C
  H163     1.0000 0.59170  0.58820  0.30440  Biso   1.000  H
  H164     1.0000 0.59970  0.51880  0.34810  Biso   1.000  H
  H165     1.0000 0.66930  0.58220  0.28950  Biso   1.000  H
  O41      1.0000 0.10100  0.33140  0.83420  Biso   1.000  O
  H166     1.0000 0.11200  0.32400  0.88400  Biso   1.000  H
  H167     1.0000 0.05200  0.31700  0.83600  Biso   1.000  H
  C123     1.0000 0.50830  0.35530  0.04850  Biso   1.000  C
  H168     1.0000 0.49580  0.36630  0.99180  Biso   1.000  H
  H169     1.0000 0.48720  0.29850  0.05480  Biso   1.000  H
  H170     1.0000 0.48470  0.37340  0.09130  Biso   1.000  H
  Eu6      1.0000 0.78174  0.44483  0.78402  Biso   1.000  Eu
  O42      1.0000 0.86599  0.48433  0.66683  Biso   1.000  O
  O43      1.0000 0.79246  0.42926  0.55070  Biso   1.000  O
  O44      1.0000 0.74418  0.32680  0.69966  Biso   1.000  O
  H171     1.0000 0.79100  0.32470  0.67770  Biso   1.000  H
  O45      1.0000 0.74223  0.49741  0.89603  Biso   1.000  O
  O46      1.0000 0.61694  0.45589  0.85970  Biso   1.000  O
  O47      1.0000 0.66730  0.71920  0.21260  Biso   1.000  O
  O48      1.0000 0.54508  0.64498  0.16042  Biso   1.000  O
  S49      1.0000 0.89609  0.33562  0.59355  Biso   1.000  S
  S50      1.0000 0.94546  0.62806  0.51404  Biso   1.000  S
  S51      1.0000 0.61452  0.40672  0.06244  Biso   1.000  S
  C124     1.0000 0.92280  0.19400  0.85220  Biso   1.000  C
  C125     1.0000 0.01800  0.21100  0.01800  Biso   1.000  C
  C126     1.0000 0.97620  0.50340  0.22680  Biso   1.000  C
  H172     1.0000 0.87380  0.16550  0.88460  Biso   1.000  H
  H173     1.0000 0.91480  0.17170  0.79500  Biso   1.000  H
  H174     1.0000 0.96470  0.18920  0.88060  Biso   1.000  H
  H175     1.0000 0.96530  0.19030  0.99390  Biso   1.000  H
  H176     1.0000 0.04250  0.18200  0.99580  Biso   1.000  H
  H177     1.0000 0.01390  0.20570  0.08010  Biso   1.000  H
  H178     1.0000 0.01260  0.52260  0.17850  Biso   1.000  H
  H179     1.0000 0.94040  0.52470  0.22340  Biso   1.000  H
  H180     1.0000 0.00630  0.52080  0.27970  Biso   1.000  H
  S52      1.0000 0.95050  0.29560  0.84530  Biso   1.000  S
  S53      1.0000 0.07720  0.31330  0.99130  Biso   1.000  S
  S54      1.0000 0.91780  0.39330  0.22440  Biso   1.000  S
  Eu7      1.0000 0.33333  0.66667  0.40918  Biso   1.000  Eu
  O49      1.0000 0.33333  0.66667  0.15790  Biso   1.000  O
  H181     1.0000 0.33333  0.66667  0.09450  Biso   1.000  H
  Eu8      1.0000 0.66667  0.33333  0.59082  Biso   1.000  Eu
  O50      1.0000 0.66667  0.33333  0.84210  Biso   1.000  O
  H182     1.0000 0.66667  0.33333  0.90550  Biso   1.000  H
