data_image0
_cell_length_a       13.7642
_cell_length_b       15.6796
_cell_length_c       4.6902
_cell_angle_alpha    90
_cell_angle_beta     90
_cell_angle_gamma    90

_symmetry_space_group_name_H-M    "P 1"
_symmetry_int_tables_number       1

loop_
  _symmetry_equiv_pos_as_xyz
  'x, y, z'

loop_
  _atom_site_label
  _atom_site_occupancy
  _atom_site_fract_x
  _atom_site_fract_y
  _atom_site_fract_z
  _atom_site_thermal_displace_type
  _atom_site_B_iso_or_equiv
  _atom_site_type_symbol
  V1       1.0000 0.49010  0.51620  0.02160  Biso   1.000  V
  P1       1.0000 0.63780  0.57580  0.48950  Biso   1.000  P
  O1       1.0000 0.64930  0.66720  0.37960  Biso   1.000  O
  O2       1.0000 0.55860  0.57730  0.71580  Biso   1.000  O
  O3       1.0000 0.61610  0.51320  0.25070  Biso   1.000  O
  O4       1.0000 0.43700  0.60040  0.17100  Biso   1.000  O
  V2       1.0000 0.00990  0.98380  0.02160  Biso   1.000  V
  P2       1.0000 0.86220  0.92420  0.48950  Biso   1.000  P
  O5       1.0000 0.85070  0.83280  0.37960  Biso   1.000  O
  O6       1.0000 0.94140  0.92270  0.71580  Biso   1.000  O
  O7       1.0000 0.88390  0.98680  0.25070  Biso   1.000  O
  O8       1.0000 0.06300  0.89960  0.17100  Biso   1.000  O
  V3       1.0000 0.50990  0.01620  0.97840  Biso   1.000  V
  P3       1.0000 0.36220  0.07580  0.51050  Biso   1.000  P
  O9       1.0000 0.35070  0.16720  0.62040  Biso   1.000  O
  O10      1.0000 0.44140  0.07730  0.28420  Biso   1.000  O
  O11      1.0000 0.38390  0.01320  0.74930  Biso   1.000  O
  O12      1.0000 0.56300  0.10040  0.82900  Biso   1.000  O
  V4       1.0000 0.99010  0.48380  0.97840  Biso   1.000  V
  P4       1.0000 0.13780  0.42420  0.51050  Biso   1.000  P
  O13      1.0000 0.14930  0.33280  0.62040  Biso   1.000  O
  O14      1.0000 0.05860  0.42270  0.28420  Biso   1.000  O
  O15      1.0000 0.11610  0.48680  0.74930  Biso   1.000  O
  O16      1.0000 0.93700  0.39960  0.82900  Biso   1.000  O
  V5       1.0000 0.50990  0.48380  0.97840  Biso   1.000  V
  P5       1.0000 0.36220  0.42420  0.51050  Biso   1.000  P
  O17      1.0000 0.35070  0.33280  0.62040  Biso   1.000  O
  O18      1.0000 0.44140  0.42270  0.28420  Biso   1.000  O
  O19      1.0000 0.38390  0.48680  0.74930  Biso   1.000  O
  O20      1.0000 0.56300  0.39960  0.82900  Biso   1.000  O
  V6       1.0000 0.99010  0.01620  0.97840  Biso   1.000  V
  P6       1.0000 0.13780  0.07580  0.51050  Biso   1.000  P
  O21      1.0000 0.14930  0.16720  0.62040  Biso   1.000  O
  O22      1.0000 0.05860  0.07730  0.28420  Biso   1.000  O
  O23      1.0000 0.11610  0.01320  0.74930  Biso   1.000  O
  O24      1.0000 0.93700  0.10040  0.82900  Biso   1.000  O
  V7       1.0000 0.49010  0.98380  0.02160  Biso   1.000  V
  P7       1.0000 0.63780  0.92420  0.48950  Biso   1.000  P
  O25      1.0000 0.64930  0.83280  0.37960  Biso   1.000  O
  O26      1.0000 0.55860  0.92270  0.71580  Biso   1.000  O
  O27      1.0000 0.61610  0.98680  0.25070  Biso   1.000  O
  O28      1.0000 0.43700  0.89960  0.17100  Biso   1.000  O
  V8       1.0000 0.00990  0.51620  0.02160  Biso   1.000  V
  P8       1.0000 0.86220  0.57580  0.48950  Biso   1.000  P
  O29      1.0000 0.85070  0.66720  0.37960  Biso   1.000  O
  O30      1.0000 0.94140  0.57730  0.71580  Biso   1.000  O
  O31      1.0000 0.88390  0.51320  0.25070  Biso   1.000  O
  O32      1.0000 0.06300  0.60040  0.17100  Biso   1.000  O
  V9       1.0000 0.75000  0.75000  0.28080  Biso   1.000  V
  O33      1.0000 0.75000  0.75000  0.93830  Biso   1.000  O
  V10      1.0000 0.25000  0.25000  0.71920  Biso   1.000  V
  O34      1.0000 0.25000  0.25000  0.06170  Biso   1.000  O
  K1       1.0000 0.53840  0.75000  0.90230  Biso   1.000  K
  K2       1.0000 0.96160  0.75000  0.90230  Biso   1.000  K
  K3       1.0000 0.46160  0.25000  0.09770  Biso   1.000  K
  K4       1.0000 0.03840  0.25000  0.09770  Biso   1.000  K
  C1       1.0000 0.75000  0.54450  0.65660  Biso   1.000  C
  H1       1.0000 0.75000  0.48280  0.67220  Biso   1.000  H
  H2       1.0000 0.75000  0.56710  0.84910  Biso   1.000  H
  C2       1.0000 0.75000  0.95550  0.65660  Biso   1.000  C
  H3       1.0000 0.75000  0.01720  0.67220  Biso   1.000  H
  H4       1.0000 0.75000  0.93290  0.84910  Biso   1.000  H
  C3       1.0000 0.25000  0.04450  0.34340  Biso   1.000  C
  H5       1.0000 0.25000  0.98280  0.32780  Biso   1.000  H
  H6       1.0000 0.25000  0.06710  0.15090  Biso   1.000  H
  C4       1.0000 0.25000  0.45550  0.34340  Biso   1.000  C
  H7       1.0000 0.25000  0.51720  0.32780  Biso   1.000  H
  H8       1.0000 0.25000  0.43290  0.15090  Biso   1.000  H
