data_image0
_cell_length_a       13.4495
_cell_length_b       13.4495
_cell_length_c       25.413
_cell_angle_alpha    90
_cell_angle_beta     90
_cell_angle_gamma    90

_symmetry_space_group_name_H-M    "P 1"
_symmetry_int_tables_number       1

loop_
  _symmetry_equiv_pos_as_xyz
  'x, y, z'

loop_
  _atom_site_label
  _atom_site_occupancy
  _atom_site_fract_x
  _atom_site_fract_y
  _atom_site_fract_z
  _atom_site_thermal_displace_type
  _atom_site_B_iso_or_equiv
  _atom_site_type_symbol
  C1       1.0000 0.16010  0.72570  0.83160  Biso   1.000  C
  H1       1.0000 0.09820  0.70470  0.85630  Biso   1.000  H
  H2       1.0000 0.13870  0.78960  0.80850  Biso   1.000  H
  C2       1.0000 0.11100  0.62100  0.76870  Biso   1.000  C
  O1       1.0000 0.02780  0.63610  0.76950  Biso   1.000  O
  C3       1.0000 0.12710  0.61100  0.75760  Biso   1.000  C
  O2       1.0000 0.05790  0.67310  0.74610  Biso   1.000  O
  C4       1.0000 0.15340  0.52800  0.73150  Biso   1.000  C
  C5       1.0000 0.08780  0.48860  0.69420  Biso   1.000  C
  H3       1.0000 0.01530  0.52140  0.68840  Biso   1.000  H
  C6       1.0000 0.11690  0.40770  0.66530  Biso   1.000  C
  H4       1.0000 0.06560  0.37790  0.63670  Biso   1.000  H
  C7       1.0000 0.26910  0.40230  0.70650  Biso   1.000  C
  H5       1.0000 0.34140  0.36850  0.71100  Biso   1.000  H
  C8       1.0000 0.24600  0.48280  0.73750  Biso   1.000  C
  H6       1.0000 0.29860  0.51050  0.76610  Biso   1.000  H
  N1       1.0000 0.20630  0.36340  0.67078  Biso   1.000  N
  N2       1.0000 0.64270  0.70850  0.05300  Biso   1.000  N
  O3       1.0000 0.18770  0.64390  0.79740  Biso   1.000  O
  O4       1.0000 0.35280  0.68170  0.93536  Biso   1.000  O
  O5       1.0000 0.45710  0.57520  0.89659  Biso   1.000  O
  Cl1      1.0000 0.08274  0.18162  0.61463  Biso   1.000  Cl
  C9       1.0000 0.27410  0.65860  0.89910  Biso   1.000  C
  H7       1.0000 0.20850  0.63620  0.92060  Biso   1.000  H
  H8       1.0000 0.29630  0.59750  0.87410  Biso   1.000  H
  C10      1.0000 0.43750  0.63230  0.93160  Biso   1.000  C
  C11      1.0000 0.50740  0.65840  0.97510  Biso   1.000  C
  C12      1.0000 0.60310  0.62020  0.97490  Biso   1.000  C
  H9       1.0000 0.62690  0.57060  0.94390  Biso   1.000  H
  C13      1.0000 0.66720  0.64620  0.01450  Biso   1.000  C
  H10      1.0000 0.74100  0.61450  0.01450  Biso   1.000  H
  C14      1.0000 0.54920  0.74480  0.05320  Biso   1.000  C
  H11      1.0000 0.52770  0.79460  0.08460  Biso   1.000  H
  C15      1.0000 0.48070  0.72150  0.01570  Biso   1.000  C
  H12      1.0000 0.40650  0.75190  0.01760  Biso   1.000  H
  C16      1.0000 0.33990  0.77430  0.83160  Biso   1.000  C
  H13      1.0000 0.40180  0.79530  0.85630  Biso   1.000  H
  H14      1.0000 0.36130  0.71040  0.80850  Biso   1.000  H
  C17      1.0000 0.38900  0.87900  0.76870  Biso   1.000  C
  O6       1.0000 0.47220  0.86390  0.76950  Biso   1.000  O
  C18      1.0000 0.37290  0.88900  0.75760  Biso   1.000  C
  O7       1.0000 0.44210  0.82690  0.74610  Biso   1.000  O
  C19      1.0000 0.34660  0.97200  0.73150  Biso   1.000  C
  C20      1.0000 0.41220  0.01140  0.69420  Biso   1.000  C
  H15      1.0000 0.48470  0.97860  0.68840  Biso   1.000  H
  C21      1.0000 0.38310  0.09230  0.66530  Biso   1.000  C
  H16      1.0000 0.43440  0.12210  0.63670  Biso   1.000  H
  C22      1.0000 0.23090  0.09770  0.70650  Biso   1.000  C
  H17      1.0000 0.15860  0.13150  0.71100  Biso   1.000  H
  C23      1.0000 0.25400  0.01720  0.73750  Biso   1.000  C
  H18      1.0000 0.20140  0.98950  0.76610  Biso   1.000  H
  N3       1.0000 0.29370  0.13660  0.67078  Biso   1.000  N
  N4       1.0000 0.85730  0.79150  0.05300  Biso   1.000  N
  O8       1.0000 0.31230  0.85610  0.79740  Biso   1.000  O
  O9       1.0000 0.14720  0.81830  0.93536  Biso   1.000  O
  O10      1.0000 0.04290  0.92480  0.89659  Biso   1.000  O
  Cl2      1.0000 0.41726  0.31838  0.61463  Biso   1.000  Cl
  C24      1.0000 0.22590  0.84140  0.89910  Biso   1.000  C
  H19      1.0000 0.29150  0.86380  0.92060  Biso   1.000  H
  H20      1.0000 0.20370  0.90250  0.87410  Biso   1.000  H
  C25      1.0000 0.06250  0.86770  0.93160  Biso   1.000  C
  C26      1.0000 0.99260  0.84160  0.97510  Biso   1.000  C
  C27      1.0000 0.89690  0.87980  0.97490  Biso   1.000  C
  H21      1.0000 0.87310  0.92940  0.94390  Biso   1.000  H
  C28      1.0000 0.83280  0.85380  0.01450  Biso   1.000  C
  H22      1.0000 0.75900  0.88550  0.01450  Biso   1.000  H
  C29      1.0000 0.95080  0.75520  0.05320  Biso   1.000  C
  H23      1.0000 0.97230  0.70540  0.08460  Biso   1.000  H
  C30      1.0000 0.01930  0.77850  0.01570  Biso   1.000  C
  H24      1.0000 0.09350  0.74810  0.01760  Biso   1.000  H
  C31      1.0000 0.27430  0.66010  0.33160  Biso   1.000  C
  H25      1.0000 0.29530  0.59820  0.35630  Biso   1.000  H
  H26      1.0000 0.21040  0.63870  0.30850  Biso   1.000  H
  C32      1.0000 0.37900  0.61100  0.26870  Biso   1.000  C
  O11      1.0000 0.36390  0.52780  0.26950  Biso   1.000  O
  C33      1.0000 0.38900  0.62710  0.25760  Biso   1.000  C
  O12      1.0000 0.32690  0.55790  0.24610  Biso   1.000  O
  C34      1.0000 0.47200  0.65340  0.23150  Biso   1.000  C
  C35      1.0000 0.51140  0.58780  0.19420  Biso   1.000  C
  H27      1.0000 0.47860  0.51530  0.18840  Biso   1.000  H
  C36      1.0000 0.59230  0.61690  0.16530  Biso   1.000  C
  H28      1.0000 0.62210  0.56560  0.13670  Biso   1.000  H
  C37      1.0000 0.59770  0.76910  0.20650  Biso   1.000  C
  H29      1.0000 0.63150  0.84140  0.21100  Biso   1.000  H
  C38      1.0000 0.51720  0.74600  0.23750  Biso   1.000  C
  H30      1.0000 0.48950  0.79860  0.26610  Biso   1.000  H
  N5       1.0000 0.63660  0.70630  0.17078  Biso   1.000  N
  N6       1.0000 0.29150  0.14270  0.55300  Biso   1.000  N
  O13      1.0000 0.35610  0.68770  0.29740  Biso   1.000  O
  O14      1.0000 0.31830  0.85280  0.43536  Biso   1.000  O
  O15      1.0000 0.42480  0.95710  0.39659  Biso   1.000  O
  Cl3      1.0000 0.81838  0.58274  0.11463  Biso   1.000  Cl
  C39      1.0000 0.34140  0.77410  0.39910  Biso   1.000  C
  H31      1.0000 0.36380  0.70850  0.42060  Biso   1.000  H
  H32      1.0000 0.40250  0.79630  0.37410  Biso   1.000  H
  C40      1.0000 0.36770  0.93750  0.43160  Biso   1.000  C
  C41      1.0000 0.34160  0.00740  0.47510  Biso   1.000  C
  C42      1.0000 0.37980  0.10310  0.47490  Biso   1.000  C
  H33      1.0000 0.42940  0.12690  0.44390  Biso   1.000  H
  C43      1.0000 0.35380  0.16720  0.51450  Biso   1.000  C
  H34      1.0000 0.38550  0.24100  0.51450  Biso   1.000  H
  C44      1.0000 0.25520  0.04920  0.55320  Biso   1.000  C
  H35      1.0000 0.20540  0.02770  0.58460  Biso   1.000  H
  C45      1.0000 0.27850  0.98070  0.51570  Biso   1.000  C
  H36      1.0000 0.24810  0.90650  0.51760  Biso   1.000  H
  C46      1.0000 0.22570  0.83990  0.33160  Biso   1.000  C
  H37      1.0000 0.20470  0.90180  0.35630  Biso   1.000  H
  H38      1.0000 0.28960  0.86130  0.30850  Biso   1.000  H
  C47      1.0000 0.12100  0.88900  0.26870  Biso   1.000  C
  O16      1.0000 0.13610  0.97220  0.26950  Biso   1.000  O
  C48      1.0000 0.11100  0.87290  0.25760  Biso   1.000  C
  O17      1.0000 0.17310  0.94210  0.24610  Biso   1.000  O
  C49      1.0000 0.02800  0.84660  0.23150  Biso   1.000  C
  C50      1.0000 0.98860  0.91220  0.19420  Biso   1.000  C
  H39      1.0000 0.02140  0.98470  0.18840  Biso   1.000  H
  C51      1.0000 0.90770  0.88310  0.16530  Biso   1.000  C
  H40      1.0000 0.87790  0.93440  0.13670  Biso   1.000  H
  C52      1.0000 0.90230  0.73090  0.20650  Biso   1.000  C
  H41      1.0000 0.86850  0.65860  0.21100  Biso   1.000  H
  C53      1.0000 0.98280  0.75400  0.23750  Biso   1.000  C
  H42      1.0000 0.01050  0.70140  0.26610  Biso   1.000  H
  N7       1.0000 0.86340  0.79370  0.17078  Biso   1.000  N
  N8       1.0000 0.20850  0.35730  0.55300  Biso   1.000  N
  O18      1.0000 0.14390  0.81230  0.29740  Biso   1.000  O
  O19      1.0000 0.18170  0.64720  0.43536  Biso   1.000  O
  O20      1.0000 0.07520  0.54290  0.39659  Biso   1.000  O
  Cl4      1.0000 0.68162  0.91726  0.11463  Biso   1.000  Cl
  C54      1.0000 0.15860  0.72590  0.39910  Biso   1.000  C
  H43      1.0000 0.13620  0.79150  0.42060  Biso   1.000  H
  H44      1.0000 0.09750  0.70370  0.37410  Biso   1.000  H
  C55      1.0000 0.13230  0.56250  0.43160  Biso   1.000  C
  C56      1.0000 0.15840  0.49260  0.47510  Biso   1.000  C
  C57      1.0000 0.12020  0.39690  0.47490  Biso   1.000  C
  H45      1.0000 0.07060  0.37310  0.44390  Biso   1.000  H
  C58      1.0000 0.14620  0.33280  0.51450  Biso   1.000  C
  H46      1.0000 0.11450  0.25900  0.51450  Biso   1.000  H
  C59      1.0000 0.24480  0.45080  0.55320  Biso   1.000  C
  H47      1.0000 0.29460  0.47230  0.58460  Biso   1.000  H
  C60      1.0000 0.22150  0.51930  0.51570  Biso   1.000  C
  H48      1.0000 0.25190  0.59350  0.51760  Biso   1.000  H
  C61      1.0000 0.25000  0.75000  0.86510  Biso   1.000  C
  C62      1.0000 0.25000  0.75000  0.36510  Biso   1.000  C
  Co1      1.0000 0.25000  0.25000  0.61390  Biso   1.000  Co
  Co2      1.0000 0.75000  0.75000  0.11390  Biso   1.000  Co
  C63      1.0000 0.83990  0.27430  0.16840  Biso   1.000  C
  H49      1.0000 0.90180  0.29530  0.14370  Biso   1.000  H
  H50      1.0000 0.86130  0.21040  0.19150  Biso   1.000  H
  C64      1.0000 0.88900  0.37900  0.23130  Biso   1.000  C
  O21      1.0000 0.97220  0.36390  0.23050  Biso   1.000  O
  C65      1.0000 0.87290  0.38900  0.24240  Biso   1.000  C
  O22      1.0000 0.94210  0.32690  0.25390  Biso   1.000  O
  C66      1.0000 0.84660  0.47200  0.26850  Biso   1.000  C
  C67      1.0000 0.91220  0.51140  0.30580  Biso   1.000  C
  H51      1.0000 0.98470  0.47860  0.31160  Biso   1.000  H
  C68      1.0000 0.88310  0.59230  0.33470  Biso   1.000  C
  H52      1.0000 0.93440  0.62210  0.36330  Biso   1.000  H
  C69      1.0000 0.73090  0.59770  0.29350  Biso   1.000  C
  H53      1.0000 0.65860  0.63150  0.28900  Biso   1.000  H
  C70      1.0000 0.75400  0.51720  0.26250  Biso   1.000  C
  H54      1.0000 0.70140  0.48950  0.23390  Biso   1.000  H
  N9       1.0000 0.79370  0.63660  0.32922  Biso   1.000  N
  N10      1.0000 0.35730  0.29150  0.94700  Biso   1.000  N
  O23      1.0000 0.81230  0.35610  0.20260  Biso   1.000  O
  O24      1.0000 0.64720  0.31830  0.06464  Biso   1.000  O
  O25      1.0000 0.54290  0.42480  0.10341  Biso   1.000  O
  Cl5      1.0000 0.91726  0.81838  0.38537  Biso   1.000  Cl
  C71      1.0000 0.72590  0.34140  0.10090  Biso   1.000  C
  H55      1.0000 0.79150  0.36380  0.07940  Biso   1.000  H
  H56      1.0000 0.70370  0.40250  0.12590  Biso   1.000  H
  C72      1.0000 0.56250  0.36770  0.06840  Biso   1.000  C
  C73      1.0000 0.49260  0.34160  0.02490  Biso   1.000  C
  C74      1.0000 0.39690  0.37980  0.02510  Biso   1.000  C
  H57      1.0000 0.37310  0.42940  0.05610  Biso   1.000  H
  C75      1.0000 0.33280  0.35380  0.98550  Biso   1.000  C
  H58      1.0000 0.25900  0.38550  0.98550  Biso   1.000  H
  C76      1.0000 0.45080  0.25520  0.94680  Biso   1.000  C
  H59      1.0000 0.47230  0.20540  0.91540  Biso   1.000  H
  C77      1.0000 0.51930  0.27850  0.98430  Biso   1.000  C
  H60      1.0000 0.59350  0.24810  0.98240  Biso   1.000  H
  C78      1.0000 0.66010  0.22570  0.16840  Biso   1.000  C
  H61      1.0000 0.59820  0.20470  0.14370  Biso   1.000  H
  H62      1.0000 0.63870  0.28960  0.19150  Biso   1.000  H
  C79      1.0000 0.61100  0.12100  0.23130  Biso   1.000  C
  O26      1.0000 0.52780  0.13610  0.23050  Biso   1.000  O
  C80      1.0000 0.62710  0.11100  0.24240  Biso   1.000  C
  O27      1.0000 0.55790  0.17310  0.25390  Biso   1.000  O
  C81      1.0000 0.65340  0.02800  0.26850  Biso   1.000  C
  C82      1.0000 0.58780  0.98860  0.30580  Biso   1.000  C
  H63      1.0000 0.51530  0.02140  0.31160  Biso   1.000  H
  C83      1.0000 0.61690  0.90770  0.33470  Biso   1.000  C
  H64      1.0000 0.56560  0.87790  0.36330  Biso   1.000  H
  C84      1.0000 0.76910  0.90230  0.29350  Biso   1.000  C
  H65      1.0000 0.84140  0.86850  0.28900  Biso   1.000  H
  C85      1.0000 0.74600  0.98280  0.26250  Biso   1.000  C
  H66      1.0000 0.79860  0.01050  0.23390  Biso   1.000  H
  N11      1.0000 0.70630  0.86340  0.32922  Biso   1.000  N
  N12      1.0000 0.14270  0.20850  0.94700  Biso   1.000  N
  O28      1.0000 0.68770  0.14390  0.20260  Biso   1.000  O
  O29      1.0000 0.85280  0.18170  0.06464  Biso   1.000  O
  O30      1.0000 0.95710  0.07520  0.10341  Biso   1.000  O
  Cl6      1.0000 0.58274  0.68162  0.38537  Biso   1.000  Cl
  C86      1.0000 0.77410  0.15860  0.10090  Biso   1.000  C
  H67      1.0000 0.70850  0.13620  0.07940  Biso   1.000  H
  H68      1.0000 0.79630  0.09750  0.12590  Biso   1.000  H
  C87      1.0000 0.93750  0.13230  0.06840  Biso   1.000  C
  C88      1.0000 0.00740  0.15840  0.02490  Biso   1.000  C
  C89      1.0000 0.10310  0.12020  0.02510  Biso   1.000  C
  H69      1.0000 0.12690  0.07060  0.05610  Biso   1.000  H
  C90      1.0000 0.16720  0.14620  0.98550  Biso   1.000  C
  H70      1.0000 0.24100  0.11450  0.98550  Biso   1.000  H
  C91      1.0000 0.04920  0.24480  0.94680  Biso   1.000  C
  H71      1.0000 0.02770  0.29460  0.91540  Biso   1.000  H
  C92      1.0000 0.98070  0.22150  0.98430  Biso   1.000  C
  H72      1.0000 0.90650  0.25190  0.98240  Biso   1.000  H
  C93      1.0000 0.72570  0.33990  0.66840  Biso   1.000  C
  H73      1.0000 0.70470  0.40180  0.64370  Biso   1.000  H
  H74      1.0000 0.78960  0.36130  0.69150  Biso   1.000  H
  C94      1.0000 0.62100  0.38900  0.73130  Biso   1.000  C
  O31      1.0000 0.63610  0.47220  0.73050  Biso   1.000  O
  C95      1.0000 0.61100  0.37290  0.74240  Biso   1.000  C
  O32      1.0000 0.67310  0.44210  0.75390  Biso   1.000  O
  C96      1.0000 0.52800  0.34660  0.76850  Biso   1.000  C
  C97      1.0000 0.48860  0.41220  0.80580  Biso   1.000  C
  H75      1.0000 0.52140  0.48470  0.81160  Biso   1.000  H
  C98      1.0000 0.40770  0.38310  0.83470  Biso   1.000  C
  H76      1.0000 0.37790  0.43440  0.86330  Biso   1.000  H
  C99      1.0000 0.40230  0.23090  0.79350  Biso   1.000  C
  H77      1.0000 0.36850  0.15860  0.78900  Biso   1.000  H
  C100     1.0000 0.48280  0.25400  0.76250  Biso   1.000  C
  H78      1.0000 0.51050  0.20140  0.73390  Biso   1.000  H
  N13      1.0000 0.36340  0.29370  0.82922  Biso   1.000  N
  N14      1.0000 0.70850  0.85730  0.44700  Biso   1.000  N
  O33      1.0000 0.64390  0.31230  0.70260  Biso   1.000  O
  O34      1.0000 0.68170  0.14720  0.56464  Biso   1.000  O
  O35      1.0000 0.57520  0.04290  0.60341  Biso   1.000  O
  Cl7      1.0000 0.18162  0.41726  0.88537  Biso   1.000  Cl
  C101     1.0000 0.65860  0.22590  0.60090  Biso   1.000  C
  H79      1.0000 0.63620  0.29150  0.57940  Biso   1.000  H
  H80      1.0000 0.59750  0.20370  0.62590  Biso   1.000  H
  C102     1.0000 0.63230  0.06250  0.56840  Biso   1.000  C
  C103     1.0000 0.65840  0.99260  0.52490  Biso   1.000  C
  C104     1.0000 0.62020  0.89690  0.52510  Biso   1.000  C
  H81      1.0000 0.57060  0.87310  0.55610  Biso   1.000  H
  C105     1.0000 0.64620  0.83280  0.48550  Biso   1.000  C
  H82      1.0000 0.61450  0.75900  0.48550  Biso   1.000  H
  C106     1.0000 0.74480  0.95080  0.44680  Biso   1.000  C
  H83      1.0000 0.79460  0.97230  0.41540  Biso   1.000  H
  C107     1.0000 0.72150  0.01930  0.48430  Biso   1.000  C
  H84      1.0000 0.75190  0.09350  0.48240  Biso   1.000  H
  C108     1.0000 0.77430  0.16010  0.66840  Biso   1.000  C
  H85      1.0000 0.79530  0.09820  0.64370  Biso   1.000  H
  H86      1.0000 0.71040  0.13870  0.69150  Biso   1.000  H
  C109     1.0000 0.87900  0.11100  0.73130  Biso   1.000  C
  O36      1.0000 0.86390  0.02780  0.73050  Biso   1.000  O
  C110     1.0000 0.88900  0.12710  0.74240  Biso   1.000  C
  O37      1.0000 0.82690  0.05790  0.75390  Biso   1.000  O
  C111     1.0000 0.97200  0.15340  0.76850  Biso   1.000  C
  C112     1.0000 0.01140  0.08780  0.80580  Biso   1.000  C
  H87      1.0000 0.97860  0.01530  0.81160  Biso   1.000  H
  C113     1.0000 0.09230  0.11690  0.83470  Biso   1.000  C
  H88      1.0000 0.12210  0.06560  0.86330  Biso   1.000  H
  C114     1.0000 0.09770  0.26910  0.79350  Biso   1.000  C
  H89      1.0000 0.13150  0.34140  0.78900  Biso   1.000  H
  C115     1.0000 0.01720  0.24600  0.76250  Biso   1.000  C
  H90      1.0000 0.98950  0.29860  0.73390  Biso   1.000  H
  N15      1.0000 0.13660  0.20630  0.82922  Biso   1.000  N
  N16      1.0000 0.79150  0.64270  0.44700  Biso   1.000  N
  O38      1.0000 0.85610  0.18770  0.70260  Biso   1.000  O
  O39      1.0000 0.81830  0.35280  0.56464  Biso   1.000  O
  O40      1.0000 0.92480  0.45710  0.60341  Biso   1.000  O
  Cl8      1.0000 0.31838  0.08274  0.88537  Biso   1.000  Cl
  C116     1.0000 0.84140  0.27410  0.60090  Biso   1.000  C
  H91      1.0000 0.86380  0.20850  0.57940  Biso   1.000  H
  H92      1.0000 0.90250  0.29630  0.62590  Biso   1.000  H
  C117     1.0000 0.86770  0.43750  0.56840  Biso   1.000  C
  C118     1.0000 0.84160  0.50740  0.52490  Biso   1.000  C
  C119     1.0000 0.87980  0.60310  0.52510  Biso   1.000  C
  H93      1.0000 0.92940  0.62690  0.55610  Biso   1.000  H
  C120     1.0000 0.85380  0.66720  0.48550  Biso   1.000  C
  H94      1.0000 0.88550  0.74100  0.48550  Biso   1.000  H
  C121     1.0000 0.75520  0.54920  0.44680  Biso   1.000  C
  H95      1.0000 0.70540  0.52770  0.41540  Biso   1.000  H
  C122     1.0000 0.77850  0.48070  0.48430  Biso   1.000  C
  H96      1.0000 0.74810  0.40650  0.48240  Biso   1.000  H
  C123     1.0000 0.75000  0.25000  0.13490  Biso   1.000  C
  C124     1.0000 0.75000  0.25000  0.63490  Biso   1.000  C
  Co3      1.0000 0.75000  0.75000  0.38610  Biso   1.000  Co
  Co4      1.0000 0.25000  0.25000  0.88610  Biso   1.000  Co
