data_image0
_cell_length_a       10.7045
_cell_length_b       34.7385
_cell_length_c       17.986
_cell_angle_alpha    90
_cell_angle_beta     101.069
_cell_angle_gamma    90

_symmetry_space_group_name_H-M    "P 1"
_symmetry_int_tables_number       1

loop_
  _symmetry_equiv_pos_as_xyz
  'x, y, z'

loop_
  _atom_site_label
  _atom_site_occupancy
  _atom_site_fract_x
  _atom_site_fract_y
  _atom_site_fract_z
  _atom_site_thermal_displace_type
  _atom_site_B_iso_or_equiv
  _atom_site_type_symbol
  Ba1      1.0000 0.03389  0.22930  0.15133  Biso   1.000  Ba
  Ba2      1.0000 0.70628  0.27886  0.99206  Biso   1.000  Ba
  Ba3      1.0000 0.23274  0.26738  0.37111  Biso   1.000  Ba
  O1       1.0000 0.02400  0.31897  0.35651  Biso   1.000  O
  O2       1.0000 0.99300  0.27735  0.26170  Biso   1.000  O
  O3       1.0000 0.54610  0.28454  0.08976  Biso   1.000  O
  O4       1.0000 0.41300  0.32165  0.13510  Biso   1.000  O
  O5       1.0000 0.82140  0.69068  0.36920  Biso   1.000  O
  O6       1.0000 0.65020  0.69839  0.28150  Biso   1.000  O
  O7       1.0000 0.91640  0.29859  0.08591  Biso   1.000  O
  O8       1.0000 0.12520  0.29695  0.09494  Biso   1.000  O
  O9       1.0000 0.68940  0.66499  0.09220  Biso   1.000  O
  O10      1.0000 0.78900  0.72092  0.10610  Biso   1.000  O
  O11      1.0000 0.26470  0.72018  0.09018  Biso   1.000  O
  O12      1.0000 0.36550  0.66970  0.14590  Biso   1.000  O
  H1       1.0000 0.92610  0.18600  0.99740  Biso   1.000  H
  O13      1.0000 0.47010  0.74450  0.55830  Biso   1.000  O
  C1       1.0000 0.52420  0.62400  0.43750  Biso   1.000  C
  H2       1.0000 0.54090  0.61050  0.39440  Biso   1.000  H
  C2       1.0000 0.52400  0.66380  0.43810  Biso   1.000  C
  H3       1.0000 0.54060  0.67740  0.39520  Biso   1.000  H
  O14      1.0000 0.26200  0.31946  0.49410  Biso   1.000  O
  O15      1.0000 0.17420  0.37506  0.52080  Biso   1.000  O
  O16      1.0000 0.30630  0.26562  0.23330  Biso   1.000  O
  H4       1.0000 0.32260  0.29150  0.21410  Biso   1.000  H
  C3       1.0000 0.96100  0.30651  0.29490  Biso   1.000  C
  C4       1.0000 0.84160  0.32767  0.26110  Biso   1.000  C
  C5       1.0000 0.83010  0.36670  0.27830  Biso   1.000  C
  H5       1.0000 0.89740  0.37880  0.31250  Biso   1.000  H
  C6       1.0000 0.72450  0.38825  0.24720  Biso   1.000  C
  C7       1.0000 0.62340  0.36875  0.20120  Biso   1.000  C
  H6       1.0000 0.54670  0.38220  0.18210  Biso   1.000  H
  C8       1.0000 0.63360  0.33013  0.18330  Biso   1.000  C
  C9       1.0000 0.74420  0.30995  0.21020  Biso   1.000  C
  H7       1.0000 0.75360  0.28420  0.19420  Biso   1.000  H
  C10      1.0000 0.52250  0.31099  0.13210  Biso   1.000  C
  C11      1.0000 0.71930  0.43015  0.25950  Biso   1.000  C
  C12      1.0000 0.79000  0.44793  0.32310  Biso   1.000  C
  H8       1.0000 0.83930  0.43250  0.36150  Biso   1.000  H
  C13      1.0000 0.79040  0.48799  0.33190  Biso   1.000  C
  H9       1.0000 0.84080  0.49920  0.37580  Biso   1.000  H
  C14      1.0000 0.71850  0.51150  0.27760  Biso   1.000  C
  C15      1.0000 0.64530  0.49396  0.21430  Biso   1.000  C
  H10      1.0000 0.59420  0.50940  0.17670  Biso   1.000  H
  C16      1.0000 0.64590  0.45415  0.20530  Biso   1.000  C
  H11      1.0000 0.59540  0.44300  0.16140  Biso   1.000  H
  C17      1.0000 0.72260  0.55398  0.28620  Biso   1.000  C
  C18      1.0000 0.82500  0.57218  0.33170  Biso   1.000  C
  H12      1.0000 0.89360  0.55700  0.35750  Biso   1.000  H
  C19      1.0000 0.83060  0.61180  0.34070  Biso   1.000  C
  H13      1.0000 0.90250  0.62340  0.37180  Biso   1.000  H
  C20      1.0000 0.73110  0.63432  0.30450  Biso   1.000  C
  C21      1.0000 0.62970  0.61750  0.25790  Biso   1.000  C
  H14      1.0000 0.56240  0.63300  0.23140  Biso   1.000  H
  C22      1.0000 0.62550  0.57770  0.24930  Biso   1.000  C
  H15      1.0000 0.55410  0.56640  0.21720  Biso   1.000  H
  C23      1.0000 0.73590  0.67696  0.31860  Biso   1.000  C
  C24      1.0000 0.02350  0.31472  0.09400  Biso   1.000  C
  C25      1.0000 0.03000  0.35796  0.10440  Biso   1.000  C
  C26      1.0000 0.91840  0.37913  0.10510  Biso   1.000  C
  H16      1.0000 0.83900  0.36630  0.10100  Biso   1.000  H
  C27      1.0000 0.92510  0.41835  0.11190  Biso   1.000  C
  H17      1.0000 0.84970  0.43250  0.11360  Biso   1.000  H
  C28      1.0000 0.03920  0.43796  0.11630  Biso   1.000  C
  C29      1.0000 0.15000  0.41645  0.11760  Biso   1.000  C
  H18      1.0000 0.22970  0.42920  0.12290  Biso   1.000  H
  C30      1.0000 0.14480  0.37702  0.11150  Biso   1.000  C
  H19      1.0000 0.22080  0.36280  0.11220  Biso   1.000  H
  C31      1.0000 0.04170  0.48046  0.11910  Biso   1.000  C
  C32      1.0000 0.95990  0.50121  0.15640  Biso   1.000  C
  H20      1.0000 0.90550  0.48770  0.18330  Biso   1.000  H
  C33      1.0000 0.95640  0.54106  0.15490  Biso   1.000  C
  H21      1.0000 0.89900  0.55440  0.18000  Biso   1.000  H
  C34      1.0000 0.03520  0.56159  0.11730  Biso   1.000  C
  C35      1.0000 0.11800  0.54136  0.08040  Biso   1.000  C
  H22      1.0000 0.17270  0.55500  0.05400  Biso   1.000  H
  C36      1.0000 0.12100  0.50145  0.08200  Biso   1.000  C
  H23      1.0000 0.17880  0.48820  0.05710  Biso   1.000  H
  C37      1.0000 0.78910  0.68450  0.10060  Biso   1.000  C
  C38      1.0000 0.91430  0.66470  0.10500  Biso   1.000  C
  C39      1.0000 0.91780  0.62480  0.10940  Biso   1.000  C
  H24      1.0000 0.84140  0.61100  0.10960  Biso   1.000  H
  C40      1.0000 0.03260  0.60457  0.11340  Biso   1.000  C
  C41      1.0000 0.14330  0.62586  0.11650  Biso   1.000  C
  H25      1.0000 0.22240  0.61270  0.12300  Biso   1.000  H
  C42      1.0000 0.14250  0.66556  0.11040  Biso   1.000  C
  C43      1.0000 0.26680  0.68656  0.11520  Biso   1.000  C
  C44      1.0000 0.02630  0.68501  0.10460  Biso   1.000  C
  H26      1.0000 0.02400  0.71230  0.10040  Biso   1.000  H
  C45      1.0000 0.38890  0.37664  0.50500  Biso   1.000  C
  C46      1.0000 0.26760  0.35545  0.50680  Biso   1.000  C
  C47      1.0000 0.39070  0.41601  0.50650  Biso   1.000  C
  H27      1.0000 0.31560  0.42940  0.51220  Biso   1.000  H
  C48      1.0000 0.56870  0.50012  0.45500  Biso   1.000  C
  H28      1.0000 0.61650  0.48680  0.42370  Biso   1.000  H
  C49      1.0000 0.56810  0.53995  0.45530  Biso   1.000  C
  H29      1.0000 0.61560  0.55340  0.42410  Biso   1.000  H
  O17      1.0000 0.41760  0.74420  0.53000  Biso   1.000  O
  C50      1.0000 0.59080  0.62400  0.47120  Biso   1.000  C
  H30      1.0000 0.65410  0.61050  0.45120  Biso   1.000  H
  C51      1.0000 0.59060  0.66380  0.47130  Biso   1.000  C
  H31      1.0000 0.65380  0.67740  0.45130  Biso   1.000  H
  Ba4      1.0000 0.53389  0.72930  0.15133  Biso   1.000  Ba
  Ba5      1.0000 0.20628  0.77886  0.99206  Biso   1.000  Ba
  Ba6      1.0000 0.73274  0.76738  0.37111  Biso   1.000  Ba
  O18      1.0000 0.52400  0.81897  0.35651  Biso   1.000  O
  O19      1.0000 0.49300  0.77735  0.26170  Biso   1.000  O
  O20      1.0000 0.04610  0.78454  0.08976  Biso   1.000  O
  O21      1.0000 0.91300  0.82165  0.13510  Biso   1.000  O
  O22      1.0000 0.32140  0.19068  0.36920  Biso   1.000  O
  O23      1.0000 0.15020  0.19839  0.28150  Biso   1.000  O
  O24      1.0000 0.41640  0.79859  0.08591  Biso   1.000  O
  O25      1.0000 0.62520  0.79695  0.09494  Biso   1.000  O
  O26      1.0000 0.18940  0.16499  0.09220  Biso   1.000  O
  O27      1.0000 0.28900  0.22092  0.10610  Biso   1.000  O
  O28      1.0000 0.76470  0.22018  0.09018  Biso   1.000  O
  O29      1.0000 0.86550  0.16970  0.14590  Biso   1.000  O
  H32      1.0000 0.42610  0.68600  0.99740  Biso   1.000  H
  O30      1.0000 0.97010  0.24450  0.55830  Biso   1.000  O
  C52      1.0000 0.02420  0.12400  0.43750  Biso   1.000  C
  H33      1.0000 0.04090  0.11050  0.39440  Biso   1.000  H
  C53      1.0000 0.02400  0.16380  0.43810  Biso   1.000  C
  H34      1.0000 0.04060  0.17740  0.39520  Biso   1.000  H
  O31      1.0000 0.76200  0.81946  0.49410  Biso   1.000  O
  O32      1.0000 0.67420  0.87506  0.52080  Biso   1.000  O
  O33      1.0000 0.80630  0.76562  0.23330  Biso   1.000  O
  H35      1.0000 0.82260  0.79150  0.21410  Biso   1.000  H
  C54      1.0000 0.46100  0.80651  0.29490  Biso   1.000  C
  C55      1.0000 0.34160  0.82767  0.26110  Biso   1.000  C
  C56      1.0000 0.33010  0.86670  0.27830  Biso   1.000  C
  H36      1.0000 0.39740  0.87880  0.31250  Biso   1.000  H
  C57      1.0000 0.22450  0.88825  0.24720  Biso   1.000  C
  C58      1.0000 0.12340  0.86875  0.20120  Biso   1.000  C
  H37      1.0000 0.04670  0.88220  0.18210  Biso   1.000  H
  C59      1.0000 0.13360  0.83013  0.18330  Biso   1.000  C
  C60      1.0000 0.24420  0.80995  0.21020  Biso   1.000  C
  H38      1.0000 0.25360  0.78420  0.19420  Biso   1.000  H
  C61      1.0000 0.02250  0.81099  0.13210  Biso   1.000  C
  C62      1.0000 0.21930  0.93015  0.25950  Biso   1.000  C
  C63      1.0000 0.29000  0.94793  0.32310  Biso   1.000  C
  H39      1.0000 0.33930  0.93250  0.36150  Biso   1.000  H
  C64      1.0000 0.29040  0.98799  0.33190  Biso   1.000  C
  H40      1.0000 0.34080  0.99920  0.37580  Biso   1.000  H
  C65      1.0000 0.21850  0.01150  0.27760  Biso   1.000  C
  C66      1.0000 0.14530  0.99396  0.21430  Biso   1.000  C
  H41      1.0000 0.09420  0.00940  0.17670  Biso   1.000  H
  C67      1.0000 0.14590  0.95415  0.20530  Biso   1.000  C
  H42      1.0000 0.09540  0.94300  0.16140  Biso   1.000  H
  C68      1.0000 0.22260  0.05398  0.28620  Biso   1.000  C
  C69      1.0000 0.32500  0.07218  0.33170  Biso   1.000  C
  H43      1.0000 0.39360  0.05700  0.35750  Biso   1.000  H
  C70      1.0000 0.33060  0.11180  0.34070  Biso   1.000  C
  H44      1.0000 0.40250  0.12340  0.37180  Biso   1.000  H
  C71      1.0000 0.23110  0.13432  0.30450  Biso   1.000  C
  C72      1.0000 0.12970  0.11750  0.25790  Biso   1.000  C
  H45      1.0000 0.06240  0.13300  0.23140  Biso   1.000  H
  C73      1.0000 0.12550  0.07770  0.24930  Biso   1.000  C
  H46      1.0000 0.05410  0.06640  0.21720  Biso   1.000  H
  C74      1.0000 0.23590  0.17696  0.31860  Biso   1.000  C
  C75      1.0000 0.52350  0.81472  0.09400  Biso   1.000  C
  C76      1.0000 0.53000  0.85796  0.10440  Biso   1.000  C
  C77      1.0000 0.41840  0.87913  0.10510  Biso   1.000  C
  H47      1.0000 0.33900  0.86630  0.10100  Biso   1.000  H
  C78      1.0000 0.42510  0.91835  0.11190  Biso   1.000  C
  H48      1.0000 0.34970  0.93250  0.11360  Biso   1.000  H
  C79      1.0000 0.53920  0.93796  0.11630  Biso   1.000  C
  C80      1.0000 0.65000  0.91645  0.11760  Biso   1.000  C
  H49      1.0000 0.72970  0.92920  0.12290  Biso   1.000  H
  C81      1.0000 0.64480  0.87702  0.11150  Biso   1.000  C
  H50      1.0000 0.72080  0.86280  0.11220  Biso   1.000  H
  C82      1.0000 0.54170  0.98046  0.11910  Biso   1.000  C
  C83      1.0000 0.45990  0.00121  0.15640  Biso   1.000  C
  H51      1.0000 0.40550  0.98770  0.18330  Biso   1.000  H
  C84      1.0000 0.45640  0.04106  0.15490  Biso   1.000  C
  H52      1.0000 0.39900  0.05440  0.18000  Biso   1.000  H
  C85      1.0000 0.53520  0.06159  0.11730  Biso   1.000  C
  C86      1.0000 0.61800  0.04136  0.08040  Biso   1.000  C
  H53      1.0000 0.67270  0.05500  0.05400  Biso   1.000  H
  C87      1.0000 0.62100  0.00145  0.08200  Biso   1.000  C
  H54      1.0000 0.67880  0.98820  0.05710  Biso   1.000  H
  C88      1.0000 0.28910  0.18450  0.10060  Biso   1.000  C
  C89      1.0000 0.41430  0.16470  0.10500  Biso   1.000  C
  C90      1.0000 0.41780  0.12480  0.10940  Biso   1.000  C
  H55      1.0000 0.34140  0.11100  0.10960  Biso   1.000  H
  C91      1.0000 0.53260  0.10457  0.11340  Biso   1.000  C
  C92      1.0000 0.64330  0.12586  0.11650  Biso   1.000  C
  H56      1.0000 0.72240  0.11270  0.12300  Biso   1.000  H
  C93      1.0000 0.64250  0.16556  0.11040  Biso   1.000  C
  C94      1.0000 0.76680  0.18656  0.11520  Biso   1.000  C
  C95      1.0000 0.52630  0.18501  0.10460  Biso   1.000  C
  H57      1.0000 0.52400  0.21230  0.10040  Biso   1.000  H
  C96      1.0000 0.88890  0.87664  0.50500  Biso   1.000  C
  C97      1.0000 0.76760  0.85545  0.50680  Biso   1.000  C
  C98      1.0000 0.89070  0.91601  0.50650  Biso   1.000  C
  H58      1.0000 0.81560  0.92940  0.51220  Biso   1.000  H
  C99      1.0000 0.06870  0.00012  0.45500  Biso   1.000  C
  H59      1.0000 0.11650  0.98680  0.42370  Biso   1.000  H
  C100     1.0000 0.06810  0.03995  0.45530  Biso   1.000  C
  H60      1.0000 0.11560  0.05340  0.42410  Biso   1.000  H
  O34      1.0000 0.91760  0.24420  0.53000  Biso   1.000  O
  C101     1.0000 0.09080  0.12400  0.47120  Biso   1.000  C
  H61      1.0000 0.15410  0.11050  0.45120  Biso   1.000  H
  C102     1.0000 0.09060  0.16380  0.47130  Biso   1.000  C
  H62      1.0000 0.15380  0.17740  0.45130  Biso   1.000  H
  Ba7      1.0000 0.96611  0.22930  0.84867  Biso   1.000  Ba
  Ba8      1.0000 0.29372  0.27886  0.00794  Biso   1.000  Ba
  Ba9      1.0000 0.76726  0.26738  0.62889  Biso   1.000  Ba
  O35      1.0000 0.97600  0.31897  0.64349  Biso   1.000  O
  O36      1.0000 0.00700  0.27735  0.73830  Biso   1.000  O
  O37      1.0000 0.45390  0.28454  0.91024  Biso   1.000  O
  O38      1.0000 0.58700  0.32165  0.86490  Biso   1.000  O
  O39      1.0000 0.17860  0.69068  0.63080  Biso   1.000  O
  O40      1.0000 0.34980  0.69839  0.71850  Biso   1.000  O
  O41      1.0000 0.08360  0.29859  0.91409  Biso   1.000  O
  O42      1.0000 0.87480  0.29695  0.90506  Biso   1.000  O
  O43      1.0000 0.31060  0.66499  0.90780  Biso   1.000  O
  O44      1.0000 0.21100  0.72092  0.89390  Biso   1.000  O
  O45      1.0000 0.73530  0.72018  0.90982  Biso   1.000  O
  O46      1.0000 0.63450  0.66970  0.85410  Biso   1.000  O
  H63      1.0000 0.07390  0.18600  0.00260  Biso   1.000  H
  O47      1.0000 0.52990  0.74450  0.44170  Biso   1.000  O
  C103     1.0000 0.47580  0.62400  0.56250  Biso   1.000  C
  H64      1.0000 0.45910  0.61050  0.60560  Biso   1.000  H
  C104     1.0000 0.47600  0.66380  0.56190  Biso   1.000  C
  H65      1.0000 0.45940  0.67740  0.60480  Biso   1.000  H
  O48      1.0000 0.73800  0.31946  0.50590  Biso   1.000  O
  O49      1.0000 0.82580  0.37506  0.47920  Biso   1.000  O
  O50      1.0000 0.69370  0.26562  0.76670  Biso   1.000  O
  H66      1.0000 0.67740  0.29150  0.78590  Biso   1.000  H
  C105     1.0000 0.03900  0.30651  0.70510  Biso   1.000  C
  C106     1.0000 0.15840  0.32767  0.73890  Biso   1.000  C
  C107     1.0000 0.16990  0.36670  0.72170  Biso   1.000  C
  H67      1.0000 0.10260  0.37880  0.68750  Biso   1.000  H
  C108     1.0000 0.27550  0.38825  0.75280  Biso   1.000  C
  C109     1.0000 0.37660  0.36875  0.79880  Biso   1.000  C
  H68      1.0000 0.45330  0.38220  0.81790  Biso   1.000  H
  C110     1.0000 0.36640  0.33013  0.81670  Biso   1.000  C
  C111     1.0000 0.25580  0.30995  0.78980  Biso   1.000  C
  H69      1.0000 0.24640  0.28420  0.80580  Biso   1.000  H
  C112     1.0000 0.47750  0.31099  0.86790  Biso   1.000  C
  C113     1.0000 0.28070  0.43015  0.74050  Biso   1.000  C
  C114     1.0000 0.21000  0.44793  0.67690  Biso   1.000  C
  H70      1.0000 0.16070  0.43250  0.63850  Biso   1.000  H
  C115     1.0000 0.20960  0.48799  0.66810  Biso   1.000  C
  H71      1.0000 0.15920  0.49920  0.62420  Biso   1.000  H
  C116     1.0000 0.28150  0.51150  0.72240  Biso   1.000  C
  C117     1.0000 0.35470  0.49396  0.78570  Biso   1.000  C
  H72      1.0000 0.40580  0.50940  0.82330  Biso   1.000  H
  C118     1.0000 0.35410  0.45415  0.79470  Biso   1.000  C
  H73      1.0000 0.40460  0.44300  0.83860  Biso   1.000  H
  C119     1.0000 0.27740  0.55398  0.71380  Biso   1.000  C
  C120     1.0000 0.17500  0.57218  0.66830  Biso   1.000  C
  H74      1.0000 0.10640  0.55700  0.64250  Biso   1.000  H
  C121     1.0000 0.16940  0.61180  0.65930  Biso   1.000  C
  H75      1.0000 0.09750  0.62340  0.62820  Biso   1.000  H
  C122     1.0000 0.26890  0.63432  0.69550  Biso   1.000  C
  C123     1.0000 0.37030  0.61750  0.74210  Biso   1.000  C
  H76      1.0000 0.43760  0.63300  0.76860  Biso   1.000  H
  C124     1.0000 0.37450  0.57770  0.75070  Biso   1.000  C
  H77      1.0000 0.44590  0.56640  0.78280  Biso   1.000  H
  C125     1.0000 0.26410  0.67696  0.68140  Biso   1.000  C
  C126     1.0000 0.97650  0.31472  0.90600  Biso   1.000  C
  C127     1.0000 0.97000  0.35796  0.89560  Biso   1.000  C
  C128     1.0000 0.08160  0.37913  0.89490  Biso   1.000  C
  H78      1.0000 0.16100  0.36630  0.89900  Biso   1.000  H
  C129     1.0000 0.07490  0.41835  0.88810  Biso   1.000  C
  H79      1.0000 0.15030  0.43250  0.88640  Biso   1.000  H
  C130     1.0000 0.96080  0.43796  0.88370  Biso   1.000  C
  C131     1.0000 0.85000  0.41645  0.88240  Biso   1.000  C
  H80      1.0000 0.77030  0.42920  0.87710  Biso   1.000  H
  C132     1.0000 0.85520  0.37702  0.88850  Biso   1.000  C
  H81      1.0000 0.77920  0.36280  0.88780  Biso   1.000  H
  C133     1.0000 0.95830  0.48046  0.88090  Biso   1.000  C
  C134     1.0000 0.04010  0.50121  0.84360  Biso   1.000  C
  H82      1.0000 0.09450  0.48770  0.81670  Biso   1.000  H
  C135     1.0000 0.04360  0.54106  0.84510  Biso   1.000  C
  H83      1.0000 0.10100  0.55440  0.82000  Biso   1.000  H
  C136     1.0000 0.96480  0.56159  0.88270  Biso   1.000  C
  C137     1.0000 0.88200  0.54136  0.91960  Biso   1.000  C
  H84      1.0000 0.82730  0.55500  0.94600  Biso   1.000  H
  C138     1.0000 0.87900  0.50145  0.91800  Biso   1.000  C
  H85      1.0000 0.82120  0.48820  0.94290  Biso   1.000  H
  C139     1.0000 0.21090  0.68450  0.89940  Biso   1.000  C
  C140     1.0000 0.08570  0.66470  0.89500  Biso   1.000  C
  C141     1.0000 0.08220  0.62480  0.89060  Biso   1.000  C
  H86      1.0000 0.15860  0.61100  0.89040  Biso   1.000  H
  C142     1.0000 0.96740  0.60457  0.88660  Biso   1.000  C
  C143     1.0000 0.85670  0.62586  0.88350  Biso   1.000  C
  H87      1.0000 0.77760  0.61270  0.87700  Biso   1.000  H
  C144     1.0000 0.85750  0.66556  0.88960  Biso   1.000  C
  C145     1.0000 0.73320  0.68656  0.88480  Biso   1.000  C
  C146     1.0000 0.97370  0.68501  0.89540  Biso   1.000  C
  H88      1.0000 0.97600  0.71230  0.89960  Biso   1.000  H
  C147     1.0000 0.61110  0.37664  0.49500  Biso   1.000  C
  C148     1.0000 0.73240  0.35545  0.49320  Biso   1.000  C
  C149     1.0000 0.60930  0.41601  0.49350  Biso   1.000  C
  H89      1.0000 0.68440  0.42940  0.48780  Biso   1.000  H
  C150     1.0000 0.43130  0.50012  0.54500  Biso   1.000  C
  H90      1.0000 0.38350  0.48680  0.57630  Biso   1.000  H
  C151     1.0000 0.43190  0.53995  0.54470  Biso   1.000  C
  H91      1.0000 0.38440  0.55340  0.57590  Biso   1.000  H
  O51      1.0000 0.58240  0.74420  0.47000  Biso   1.000  O
  C152     1.0000 0.40920  0.62400  0.52880  Biso   1.000  C
  H92      1.0000 0.34590  0.61050  0.54880  Biso   1.000  H
  C153     1.0000 0.40940  0.66380  0.52870  Biso   1.000  C
  H93      1.0000 0.34620  0.67740  0.54870  Biso   1.000  H
  Ba10     1.0000 0.46611  0.72930  0.84867  Biso   1.000  Ba
  Ba11     1.0000 0.79372  0.77886  0.00794  Biso   1.000  Ba
  Ba12     1.0000 0.26726  0.76738  0.62889  Biso   1.000  Ba
  O52      1.0000 0.47600  0.81897  0.64349  Biso   1.000  O
  O53      1.0000 0.50700  0.77735  0.73830  Biso   1.000  O
  O54      1.0000 0.95390  0.78454  0.91024  Biso   1.000  O
  O55      1.0000 0.08700  0.82165  0.86490  Biso   1.000  O
  O56      1.0000 0.67860  0.19068  0.63080  Biso   1.000  O
  O57      1.0000 0.84980  0.19839  0.71850  Biso   1.000  O
  O58      1.0000 0.58360  0.79859  0.91409  Biso   1.000  O
  O59      1.0000 0.37480  0.79695  0.90506  Biso   1.000  O
  O60      1.0000 0.81060  0.16499  0.90780  Biso   1.000  O
  O61      1.0000 0.71100  0.22092  0.89390  Biso   1.000  O
  O62      1.0000 0.23530  0.22018  0.90982  Biso   1.000  O
  O63      1.0000 0.13450  0.16970  0.85410  Biso   1.000  O
  H94      1.0000 0.57390  0.68600  0.00260  Biso   1.000  H
  O64      1.0000 0.02990  0.24450  0.44170  Biso   1.000  O
  C154     1.0000 0.97580  0.12400  0.56250  Biso   1.000  C
  H95      1.0000 0.95910  0.11050  0.60560  Biso   1.000  H
  C155     1.0000 0.97600  0.16380  0.56190  Biso   1.000  C
  H96      1.0000 0.95940  0.17740  0.60480  Biso   1.000  H
  O65      1.0000 0.23800  0.81946  0.50590  Biso   1.000  O
  O66      1.0000 0.32580  0.87506  0.47920  Biso   1.000  O
  O67      1.0000 0.19370  0.76562  0.76670  Biso   1.000  O
  H97      1.0000 0.17740  0.79150  0.78590  Biso   1.000  H
  C156     1.0000 0.53900  0.80651  0.70510  Biso   1.000  C
  C157     1.0000 0.65840  0.82767  0.73890  Biso   1.000  C
  C158     1.0000 0.66990  0.86670  0.72170  Biso   1.000  C
  H98      1.0000 0.60260  0.87880  0.68750  Biso   1.000  H
  C159     1.0000 0.77550  0.88825  0.75280  Biso   1.000  C
  C160     1.0000 0.87660  0.86875  0.79880  Biso   1.000  C
  H99      1.0000 0.95330  0.88220  0.81790  Biso   1.000  H
  C161     1.0000 0.86640  0.83013  0.81670  Biso   1.000  C
  C162     1.0000 0.75580  0.80995  0.78980  Biso   1.000  C
  H100     1.0000 0.74640  0.78420  0.80580  Biso   1.000  H
  C163     1.0000 0.97750  0.81099  0.86790  Biso   1.000  C
  C164     1.0000 0.78070  0.93015  0.74050  Biso   1.000  C
  C165     1.0000 0.71000  0.94793  0.67690  Biso   1.000  C
  H101     1.0000 0.66070  0.93250  0.63850  Biso   1.000  H
  C166     1.0000 0.70960  0.98799  0.66810  Biso   1.000  C
  H102     1.0000 0.65920  0.99920  0.62420  Biso   1.000  H
  C167     1.0000 0.78150  0.01150  0.72240  Biso   1.000  C
  C168     1.0000 0.85470  0.99396  0.78570  Biso   1.000  C
  H103     1.0000 0.90580  0.00940  0.82330  Biso   1.000  H
  C169     1.0000 0.85410  0.95415  0.79470  Biso   1.000  C
  H104     1.0000 0.90460  0.94300  0.83860  Biso   1.000  H
  C170     1.0000 0.77740  0.05398  0.71380  Biso   1.000  C
  C171     1.0000 0.67500  0.07218  0.66830  Biso   1.000  C
  H105     1.0000 0.60640  0.05700  0.64250  Biso   1.000  H
  C172     1.0000 0.66940  0.11180  0.65930  Biso   1.000  C
  H106     1.0000 0.59750  0.12340  0.62820  Biso   1.000  H
  C173     1.0000 0.76890  0.13432  0.69550  Biso   1.000  C
  C174     1.0000 0.87030  0.11750  0.74210  Biso   1.000  C
  H107     1.0000 0.93760  0.13300  0.76860  Biso   1.000  H
  C175     1.0000 0.87450  0.07770  0.75070  Biso   1.000  C
  H108     1.0000 0.94590  0.06640  0.78280  Biso   1.000  H
  C176     1.0000 0.76410  0.17696  0.68140  Biso   1.000  C
  C177     1.0000 0.47650  0.81472  0.90600  Biso   1.000  C
  C178     1.0000 0.47000  0.85796  0.89560  Biso   1.000  C
  C179     1.0000 0.58160  0.87913  0.89490  Biso   1.000  C
  H109     1.0000 0.66100  0.86630  0.89900  Biso   1.000  H
  C180     1.0000 0.57490  0.91835  0.88810  Biso   1.000  C
  H110     1.0000 0.65030  0.93250  0.88640  Biso   1.000  H
  C181     1.0000 0.46080  0.93796  0.88370  Biso   1.000  C
  C182     1.0000 0.35000  0.91645  0.88240  Biso   1.000  C
  H111     1.0000 0.27030  0.92920  0.87710  Biso   1.000  H
  C183     1.0000 0.35520  0.87702  0.88850  Biso   1.000  C
  H112     1.0000 0.27920  0.86280  0.88780  Biso   1.000  H
  C184     1.0000 0.45830  0.98046  0.88090  Biso   1.000  C
  C185     1.0000 0.54010  0.00121  0.84360  Biso   1.000  C
  H113     1.0000 0.59450  0.98770  0.81670  Biso   1.000  H
  C186     1.0000 0.54360  0.04106  0.84510  Biso   1.000  C
  H114     1.0000 0.60100  0.05440  0.82000  Biso   1.000  H
  C187     1.0000 0.46480  0.06159  0.88270  Biso   1.000  C
  C188     1.0000 0.38200  0.04136  0.91960  Biso   1.000  C
  H115     1.0000 0.32730  0.05500  0.94600  Biso   1.000  H
  C189     1.0000 0.37900  0.00145  0.91800  Biso   1.000  C
  H116     1.0000 0.32120  0.98820  0.94290  Biso   1.000  H
  C190     1.0000 0.71090  0.18450  0.89940  Biso   1.000  C
  C191     1.0000 0.58570  0.16470  0.89500  Biso   1.000  C
  C192     1.0000 0.58220  0.12480  0.89060  Biso   1.000  C
  H117     1.0000 0.65860  0.11100  0.89040  Biso   1.000  H
  C193     1.0000 0.46740  0.10457  0.88660  Biso   1.000  C
  C194     1.0000 0.35670  0.12586  0.88350  Biso   1.000  C
  H118     1.0000 0.27760  0.11270  0.87700  Biso   1.000  H
  C195     1.0000 0.35750  0.16556  0.88960  Biso   1.000  C
  C196     1.0000 0.23320  0.18656  0.88480  Biso   1.000  C
  C197     1.0000 0.47370  0.18501  0.89540  Biso   1.000  C
  H119     1.0000 0.47600  0.21230  0.89960  Biso   1.000  H
  C198     1.0000 0.11110  0.87664  0.49500  Biso   1.000  C
  C199     1.0000 0.23240  0.85545  0.49320  Biso   1.000  C
  C200     1.0000 0.10930  0.91601  0.49350  Biso   1.000  C
  H120     1.0000 0.18440  0.92940  0.48780  Biso   1.000  H
  C201     1.0000 0.93130  0.00012  0.54500  Biso   1.000  C
  H121     1.0000 0.88350  0.98680  0.57630  Biso   1.000  H
  C202     1.0000 0.93190  0.03995  0.54470  Biso   1.000  C
  H122     1.0000 0.88440  0.05340  0.57590  Biso   1.000  H
  O68      1.0000 0.08240  0.24420  0.47000  Biso   1.000  O
  C203     1.0000 0.90920  0.12400  0.52880  Biso   1.000  C
  H123     1.0000 0.84590  0.11050  0.54880  Biso   1.000  H
  C204     1.0000 0.90940  0.16380  0.52870  Biso   1.000  C
  H124     1.0000 0.84620  0.17740  0.54870  Biso   1.000  H
  La1      1.0000 0.00000  0.31756  0.50000  Biso   1.000  La
  La2      1.0000 0.50000  0.81756  0.50000  Biso   1.000  La
  O69      1.0000 0.00000  0.20349  0.00000  Biso   1.000  O
  O70      1.0000 0.50000  0.70349  0.00000  Biso   1.000  O
  C205     1.0000 0.50000  0.68391  0.50000  Biso   1.000  C
  C206     1.0000 0.50000  0.72760  0.50000  Biso   1.000  C
  C207     1.0000 0.50000  0.35636  0.50000  Biso   1.000  C
  H125     1.0000 0.50000  0.32900  0.50000  Biso   1.000  H
  C208     1.0000 0.50000  0.43760  0.50000  Biso   1.000  C
  C209     1.0000 0.50000  0.47925  0.50000  Biso   1.000  C
  C210     1.0000 0.50000  0.56070  0.50000  Biso   1.000  C
  C211     1.0000 0.50000  0.60343  0.50000  Biso   1.000  C
  C212     1.0000 0.00000  0.18391  0.50000  Biso   1.000  C
  C213     1.0000 0.00000  0.22760  0.50000  Biso   1.000  C
  C214     1.0000 0.00000  0.85636  0.50000  Biso   1.000  C
  H126     1.0000 0.00000  0.82900  0.50000  Biso   1.000  H
  C215     1.0000 0.00000  0.93760  0.50000  Biso   1.000  C
  C216     1.0000 0.00000  0.97925  0.50000  Biso   1.000  C
  C217     1.0000 0.00000  0.06070  0.50000  Biso   1.000  C
  C218     1.0000 0.00000  0.10343  0.50000  Biso   1.000  C
