data_image0
_cell_length_a       23.5973
_cell_length_b       23.6053
_cell_length_c       28.0515
_cell_angle_alpha    90
_cell_angle_beta     90
_cell_angle_gamma    90

_symmetry_space_group_name_H-M    "P 1"
_symmetry_int_tables_number       1

loop_
  _symmetry_equiv_pos_as_xyz
  'x, y, z'

loop_
  _atom_site_label
  _atom_site_occupancy
  _atom_site_fract_x
  _atom_site_fract_y
  _atom_site_fract_z
  _atom_site_thermal_displace_type
  _atom_site_B_iso_or_equiv
  _atom_site_type_symbol
  O1       1.0000 0.58452  0.46470  0.21067  Biso   1.000  O
  C1       1.0000 0.76079  0.46533  0.20877  Biso   1.000  C
  H1       1.0000 0.78020  0.46580  0.17990  Biso   1.000  H
  C2       1.0000 0.70240  0.46529  0.20832  Biso   1.000  C
  H2       1.0000 0.68330  0.46560  0.17930  Biso   1.000  H
  C3       1.0000 0.53530  0.44231  0.40602  Biso   1.000  C
  C4       1.0000 0.53450  0.45355  0.45610  Biso   1.000  C
  H3       1.0000 0.55770  0.43290  0.47650  Biso   1.000  H
  C5       1.0000 0.46930  0.52470  0.44235  Biso   1.000  C
  H4       1.0000 0.44730  0.55480  0.45290  Biso   1.000  H
  C6       1.0000 0.47084  0.51110  0.39412  Biso   1.000  C
  H5       1.0000 0.44910  0.53290  0.37350  Biso   1.000  H
  C7       1.0000 0.57260  0.39260  0.38643  Biso   1.000  C
  H6       1.0000 0.56790  0.38980  0.35250  Biso   1.000  H
  H7       1.0000 0.56110  0.35770  0.40110  Biso   1.000  H
  H8       1.0000 0.61170  0.39980  0.39370  Biso   1.000  H
  O2       1.0000 0.08452  0.96470  0.21067  Biso   1.000  O
  C8       1.0000 0.26079  0.96533  0.20877  Biso   1.000  C
  H9       1.0000 0.28020  0.96580  0.17990  Biso   1.000  H
  C9       1.0000 0.20240  0.96529  0.20832  Biso   1.000  C
  H10      1.0000 0.18330  0.96560  0.17930  Biso   1.000  H
  C10      1.0000 0.03530  0.94231  0.40602  Biso   1.000  C
  C11      1.0000 0.03450  0.95355  0.45610  Biso   1.000  C
  H11      1.0000 0.05770  0.93290  0.47650  Biso   1.000  H
  C12      1.0000 0.96930  0.02470  0.44235  Biso   1.000  C
  H12      1.0000 0.94730  0.05480  0.45290  Biso   1.000  H
  C13      1.0000 0.97084  0.01110  0.39412  Biso   1.000  C
  H13      1.0000 0.94910  0.03290  0.37350  Biso   1.000  H
  C14      1.0000 0.07260  0.89260  0.38643  Biso   1.000  C
  H14      1.0000 0.06790  0.88980  0.35250  Biso   1.000  H
  H15      1.0000 0.06110  0.85770  0.40110  Biso   1.000  H
  H16      1.0000 0.11170  0.89980  0.39370  Biso   1.000  H
  O3       1.0000 0.41548  0.53530  0.71067  Biso   1.000  O
  C15      1.0000 0.23921  0.53467  0.70877  Biso   1.000  C
  H17      1.0000 0.21980  0.53420  0.67990  Biso   1.000  H
  C16      1.0000 0.29760  0.53471  0.70832  Biso   1.000  C
  H18      1.0000 0.31670  0.53440  0.67930  Biso   1.000  H
  C17      1.0000 0.46470  0.55769  0.90602  Biso   1.000  C
  C18      1.0000 0.46550  0.54645  0.95610  Biso   1.000  C
  H19      1.0000 0.44230  0.56710  0.97650  Biso   1.000  H
  C19      1.0000 0.53070  0.47530  0.94235  Biso   1.000  C
  H20      1.0000 0.55270  0.44520  0.95290  Biso   1.000  H
  C20      1.0000 0.52916  0.48890  0.89412  Biso   1.000  C
  H21      1.0000 0.55090  0.46710  0.87350  Biso   1.000  H
  C21      1.0000 0.42740  0.60740  0.88643  Biso   1.000  C
  H22      1.0000 0.43210  0.61020  0.85250  Biso   1.000  H
  H23      1.0000 0.43890  0.64230  0.90110  Biso   1.000  H
  H24      1.0000 0.38830  0.60020  0.89370  Biso   1.000  H
  O4       1.0000 0.91548  0.03530  0.71067  Biso   1.000  O
  C22      1.0000 0.73921  0.03467  0.70877  Biso   1.000  C
  H25      1.0000 0.71980  0.03420  0.67990  Biso   1.000  H
  C23      1.0000 0.79760  0.03471  0.70832  Biso   1.000  C
  H26      1.0000 0.81670  0.03440  0.67930  Biso   1.000  H
  C24      1.0000 0.96470  0.05769  0.90602  Biso   1.000  C
  C25      1.0000 0.96550  0.04645  0.95610  Biso   1.000  C
  H27      1.0000 0.94230  0.06710  0.97650  Biso   1.000  H
  C26      1.0000 0.03070  0.97530  0.94235  Biso   1.000  C
  H28      1.0000 0.05270  0.94520  0.95290  Biso   1.000  H
  C27      1.0000 0.02916  0.98890  0.89412  Biso   1.000  C
  H29      1.0000 0.05090  0.96710  0.87350  Biso   1.000  H
  C28      1.0000 0.92740  0.10740  0.88643  Biso   1.000  C
  H30      1.0000 0.93210  0.11020  0.85250  Biso   1.000  H
  H31      1.0000 0.93890  0.14230  0.90110  Biso   1.000  H
  H32      1.0000 0.88830  0.10020  0.89370  Biso   1.000  H
  O5       1.0000 0.41548  0.46470  0.28933  Biso   1.000  O
  C29      1.0000 0.23921  0.46533  0.29123  Biso   1.000  C
  H33      1.0000 0.21980  0.46580  0.32010  Biso   1.000  H
  C30      1.0000 0.29760  0.46529  0.29168  Biso   1.000  C
  H34      1.0000 0.31670  0.46560  0.32070  Biso   1.000  H
  C31      1.0000 0.46470  0.44231  0.09398  Biso   1.000  C
  C32      1.0000 0.46550  0.45355  0.04390  Biso   1.000  C
  H35      1.0000 0.44230  0.43290  0.02350  Biso   1.000  H
  C33      1.0000 0.53070  0.52470  0.05765  Biso   1.000  C
  H36      1.0000 0.55270  0.55480  0.04710  Biso   1.000  H
  C34      1.0000 0.52916  0.51110  0.10588  Biso   1.000  C
  H37      1.0000 0.55090  0.53290  0.12650  Biso   1.000  H
  C35      1.0000 0.42740  0.39260  0.11357  Biso   1.000  C
  H38      1.0000 0.43210  0.38980  0.14750  Biso   1.000  H
  H39      1.0000 0.43890  0.35770  0.09890  Biso   1.000  H
  H40      1.0000 0.38830  0.39980  0.10630  Biso   1.000  H
  O6       1.0000 0.91548  0.96470  0.28933  Biso   1.000  O
  C36      1.0000 0.73921  0.96533  0.29123  Biso   1.000  C
  H41      1.0000 0.71980  0.96580  0.32010  Biso   1.000  H
  C37      1.0000 0.79760  0.96529  0.29168  Biso   1.000  C
  H42      1.0000 0.81670  0.96560  0.32070  Biso   1.000  H
  C38      1.0000 0.96470  0.94231  0.09398  Biso   1.000  C
  C39      1.0000 0.96550  0.95355  0.04390  Biso   1.000  C
  H43      1.0000 0.94230  0.93290  0.02350  Biso   1.000  H
  C40      1.0000 0.03070  0.02470  0.05765  Biso   1.000  C
  H44      1.0000 0.05270  0.05480  0.04710  Biso   1.000  H
  C41      1.0000 0.02916  0.01110  0.10588  Biso   1.000  C
  H45      1.0000 0.05090  0.03290  0.12650  Biso   1.000  H
  C42      1.0000 0.92740  0.89260  0.11357  Biso   1.000  C
  H46      1.0000 0.93210  0.88980  0.14750  Biso   1.000  H
  H47      1.0000 0.93890  0.85770  0.09890  Biso   1.000  H
  H48      1.0000 0.88830  0.89980  0.10630  Biso   1.000  H
  O7       1.0000 0.58452  0.53530  0.78933  Biso   1.000  O
  C43      1.0000 0.76079  0.53467  0.79123  Biso   1.000  C
  H49      1.0000 0.78020  0.53420  0.82010  Biso   1.000  H
  C44      1.0000 0.70240  0.53471  0.79168  Biso   1.000  C
  H50      1.0000 0.68330  0.53440  0.82070  Biso   1.000  H
  C45      1.0000 0.53530  0.55769  0.59398  Biso   1.000  C
  C46      1.0000 0.53450  0.54645  0.54390  Biso   1.000  C
  H51      1.0000 0.55770  0.56710  0.52350  Biso   1.000  H
  C47      1.0000 0.46930  0.47530  0.55765  Biso   1.000  C
  H52      1.0000 0.44730  0.44520  0.54710  Biso   1.000  H
  C48      1.0000 0.47084  0.48890  0.60588  Biso   1.000  C
  H53      1.0000 0.44910  0.46710  0.62650  Biso   1.000  H
  C49      1.0000 0.57260  0.60740  0.61357  Biso   1.000  C
  H54      1.0000 0.56790  0.61020  0.64750  Biso   1.000  H
  H55      1.0000 0.56110  0.64230  0.59890  Biso   1.000  H
  H56      1.0000 0.61170  0.60020  0.60630  Biso   1.000  H
  O8       1.0000 0.08452  0.03530  0.78933  Biso   1.000  O
  C50      1.0000 0.26079  0.03467  0.79123  Biso   1.000  C
  H57      1.0000 0.28020  0.03420  0.82010  Biso   1.000  H
  C51      1.0000 0.20240  0.03471  0.79168  Biso   1.000  C
  H58      1.0000 0.18330  0.03440  0.82070  Biso   1.000  H
  C52      1.0000 0.03530  0.05769  0.59398  Biso   1.000  C
  C53      1.0000 0.03450  0.04645  0.54390  Biso   1.000  C
  H59      1.0000 0.05770  0.06710  0.52350  Biso   1.000  H
  C54      1.0000 0.96930  0.97530  0.55765  Biso   1.000  C
  H60      1.0000 0.94730  0.94520  0.54710  Biso   1.000  H
  C55      1.0000 0.97084  0.98890  0.60588  Biso   1.000  C
  H61      1.0000 0.94910  0.96710  0.62650  Biso   1.000  H
  C56      1.0000 0.07260  0.10740  0.61357  Biso   1.000  C
  H62      1.0000 0.06790  0.11020  0.64750  Biso   1.000  H
  H63      1.0000 0.06110  0.14230  0.59890  Biso   1.000  H
  H64      1.0000 0.11170  0.10020  0.60630  Biso   1.000  H
  O9       1.0000 0.41548  0.53530  0.78933  Biso   1.000  O
  C57      1.0000 0.23921  0.53467  0.79123  Biso   1.000  C
  H65      1.0000 0.21980  0.53420  0.82010  Biso   1.000  H
  C58      1.0000 0.29760  0.53471  0.79168  Biso   1.000  C
  H66      1.0000 0.31670  0.53440  0.82070  Biso   1.000  H
  C59      1.0000 0.46470  0.55769  0.59398  Biso   1.000  C
  C60      1.0000 0.46550  0.54645  0.54390  Biso   1.000  C
  H67      1.0000 0.44230  0.56710  0.52350  Biso   1.000  H
  C61      1.0000 0.53070  0.47530  0.55765  Biso   1.000  C
  H68      1.0000 0.55270  0.44520  0.54710  Biso   1.000  H
  C62      1.0000 0.52916  0.48890  0.60588  Biso   1.000  C
  H69      1.0000 0.55090  0.46710  0.62650  Biso   1.000  H
  C63      1.0000 0.42740  0.60740  0.61357  Biso   1.000  C
  H70      1.0000 0.43210  0.61020  0.64750  Biso   1.000  H
  H71      1.0000 0.43890  0.64230  0.59890  Biso   1.000  H
  H72      1.0000 0.38830  0.60020  0.60630  Biso   1.000  H
  O10      1.0000 0.91548  0.03530  0.78933  Biso   1.000  O
  C64      1.0000 0.73921  0.03467  0.79123  Biso   1.000  C
  H73      1.0000 0.71980  0.03420  0.82010  Biso   1.000  H
  C65      1.0000 0.79760  0.03471  0.79168  Biso   1.000  C
  H74      1.0000 0.81670  0.03440  0.82070  Biso   1.000  H
  C66      1.0000 0.96470  0.05769  0.59398  Biso   1.000  C
  C67      1.0000 0.96550  0.04645  0.54390  Biso   1.000  C
  H75      1.0000 0.94230  0.06710  0.52350  Biso   1.000  H
  C68      1.0000 0.03070  0.97530  0.55765  Biso   1.000  C
  H76      1.0000 0.05270  0.94520  0.54710  Biso   1.000  H
  C69      1.0000 0.02916  0.98890  0.60588  Biso   1.000  C
  H77      1.0000 0.05090  0.96710  0.62650  Biso   1.000  H
  C70      1.0000 0.92740  0.10740  0.61357  Biso   1.000  C
  H78      1.0000 0.93210  0.11020  0.64750  Biso   1.000  H
  H79      1.0000 0.93890  0.14230  0.59890  Biso   1.000  H
  H80      1.0000 0.88830  0.10020  0.60630  Biso   1.000  H
  O11      1.0000 0.58452  0.46470  0.28933  Biso   1.000  O
  C71      1.0000 0.76079  0.46533  0.29123  Biso   1.000  C
  H81      1.0000 0.78020  0.46580  0.32010  Biso   1.000  H
  C72      1.0000 0.70240  0.46529  0.29168  Biso   1.000  C
  H82      1.0000 0.68330  0.46560  0.32070  Biso   1.000  H
  C73      1.0000 0.53530  0.44231  0.09398  Biso   1.000  C
  C74      1.0000 0.53450  0.45355  0.04390  Biso   1.000  C
  H83      1.0000 0.55770  0.43290  0.02350  Biso   1.000  H
  C75      1.0000 0.46930  0.52470  0.05765  Biso   1.000  C
  H84      1.0000 0.44730  0.55480  0.04710  Biso   1.000  H
  C76      1.0000 0.47084  0.51110  0.10588  Biso   1.000  C
  H85      1.0000 0.44910  0.53290  0.12650  Biso   1.000  H
  C77      1.0000 0.57260  0.39260  0.11357  Biso   1.000  C
  H86      1.0000 0.56790  0.38980  0.14750  Biso   1.000  H
  H87      1.0000 0.56110  0.35770  0.09890  Biso   1.000  H
  H88      1.0000 0.61170  0.39980  0.10630  Biso   1.000  H
  O12      1.0000 0.08452  0.96470  0.28933  Biso   1.000  O
  C78      1.0000 0.26079  0.96533  0.29123  Biso   1.000  C
  H89      1.0000 0.28020  0.96580  0.32010  Biso   1.000  H
  C79      1.0000 0.20240  0.96529  0.29168  Biso   1.000  C
  H90      1.0000 0.18330  0.96560  0.32070  Biso   1.000  H
  C80      1.0000 0.03530  0.94231  0.09398  Biso   1.000  C
  C81      1.0000 0.03450  0.95355  0.04390  Biso   1.000  C
  H91      1.0000 0.05770  0.93290  0.02350  Biso   1.000  H
  C82      1.0000 0.96930  0.02470  0.05765  Biso   1.000  C
  H92      1.0000 0.94730  0.05480  0.04710  Biso   1.000  H
  C83      1.0000 0.97084  0.01110  0.10588  Biso   1.000  C
  H93      1.0000 0.94910  0.03290  0.12650  Biso   1.000  H
  C84      1.0000 0.07260  0.89260  0.11357  Biso   1.000  C
  H94      1.0000 0.06790  0.88980  0.14750  Biso   1.000  H
  H95      1.0000 0.06110  0.85770  0.09890  Biso   1.000  H
  H96      1.0000 0.11170  0.89980  0.10630  Biso   1.000  H
  O13      1.0000 0.58452  0.53530  0.71067  Biso   1.000  O
  C85      1.0000 0.76079  0.53467  0.70877  Biso   1.000  C
  H97      1.0000 0.78020  0.53420  0.67990  Biso   1.000  H
  C86      1.0000 0.70240  0.53471  0.70832  Biso   1.000  C
  H98      1.0000 0.68330  0.53440  0.67930  Biso   1.000  H
  C87      1.0000 0.53530  0.55769  0.90602  Biso   1.000  C
  C88      1.0000 0.53450  0.54645  0.95610  Biso   1.000  C
  H99      1.0000 0.55770  0.56710  0.97650  Biso   1.000  H
  C89      1.0000 0.46930  0.47530  0.94235  Biso   1.000  C
  H100     1.0000 0.44730  0.44520  0.95290  Biso   1.000  H
  C90      1.0000 0.47084  0.48890  0.89412  Biso   1.000  C
  H101     1.0000 0.44910  0.46710  0.87350  Biso   1.000  H
  C91      1.0000 0.57260  0.60740  0.88643  Biso   1.000  C
  H102     1.0000 0.56790  0.61020  0.85250  Biso   1.000  H
  H103     1.0000 0.56110  0.64230  0.90110  Biso   1.000  H
  H104     1.0000 0.61170  0.60020  0.89370  Biso   1.000  H
  O14      1.0000 0.08452  0.03530  0.71067  Biso   1.000  O
  C92      1.0000 0.26079  0.03467  0.70877  Biso   1.000  C
  H105     1.0000 0.28020  0.03420  0.67990  Biso   1.000  H
  C93      1.0000 0.20240  0.03471  0.70832  Biso   1.000  C
  H106     1.0000 0.18330  0.03440  0.67930  Biso   1.000  H
  C94      1.0000 0.03530  0.05769  0.90602  Biso   1.000  C
  C95      1.0000 0.03450  0.04645  0.95610  Biso   1.000  C
  H107     1.0000 0.05770  0.06710  0.97650  Biso   1.000  H
  C96      1.0000 0.96930  0.97530  0.94235  Biso   1.000  C
  H108     1.0000 0.94730  0.94520  0.95290  Biso   1.000  H
  C97      1.0000 0.97084  0.98890  0.89412  Biso   1.000  C
  H109     1.0000 0.94910  0.96710  0.87350  Biso   1.000  H
  C98      1.0000 0.07260  0.10740  0.88643  Biso   1.000  C
  H110     1.0000 0.06790  0.11020  0.85250  Biso   1.000  H
  H111     1.0000 0.06110  0.14230  0.90110  Biso   1.000  H
  H112     1.0000 0.11170  0.10020  0.89370  Biso   1.000  H
  O15      1.0000 0.41548  0.46470  0.21067  Biso   1.000  O
  C99      1.0000 0.23921  0.46533  0.20877  Biso   1.000  C
  H113     1.0000 0.21980  0.46580  0.17990  Biso   1.000  H
  C100     1.0000 0.29760  0.46529  0.20832  Biso   1.000  C
  H114     1.0000 0.31670  0.46560  0.17930  Biso   1.000  H
  C101     1.0000 0.46470  0.44231  0.40602  Biso   1.000  C
  C102     1.0000 0.46550  0.45355  0.45610  Biso   1.000  C
  H115     1.0000 0.44230  0.43290  0.47650  Biso   1.000  H
  C103     1.0000 0.53070  0.52470  0.44235  Biso   1.000  C
  H116     1.0000 0.55270  0.55480  0.45290  Biso   1.000  H
  C104     1.0000 0.52916  0.51110  0.39412  Biso   1.000  C
  H117     1.0000 0.55090  0.53290  0.37350  Biso   1.000  H
  C105     1.0000 0.42740  0.39260  0.38643  Biso   1.000  C
  H118     1.0000 0.43210  0.38980  0.35250  Biso   1.000  H
  H119     1.0000 0.43890  0.35770  0.40110  Biso   1.000  H
  H120     1.0000 0.38830  0.39980  0.39370  Biso   1.000  H
  O16      1.0000 0.91548  0.96470  0.21067  Biso   1.000  O
  C106     1.0000 0.73921  0.96533  0.20877  Biso   1.000  C
  H121     1.0000 0.71980  0.96580  0.17990  Biso   1.000  H
  C107     1.0000 0.79760  0.96529  0.20832  Biso   1.000  C
  H122     1.0000 0.81670  0.96560  0.17930  Biso   1.000  H
  C108     1.0000 0.96470  0.94231  0.40602  Biso   1.000  C
  C109     1.0000 0.96550  0.95355  0.45610  Biso   1.000  C
  H123     1.0000 0.94230  0.93290  0.47650  Biso   1.000  H
  C110     1.0000 0.03070  0.02470  0.44235  Biso   1.000  C
  H124     1.0000 0.05270  0.05480  0.45290  Biso   1.000  H
  C111     1.0000 0.02916  0.01110  0.39412  Biso   1.000  C
  H125     1.0000 0.05090  0.03290  0.37350  Biso   1.000  H
  C112     1.0000 0.92740  0.89260  0.38643  Biso   1.000  C
  H126     1.0000 0.93210  0.88980  0.35250  Biso   1.000  H
  H127     1.0000 0.93890  0.85770  0.40110  Biso   1.000  H
  H128     1.0000 0.88830  0.89980  0.39370  Biso   1.000  H
  Zn1      1.0000 0.00000  0.46475  0.23716  Biso   1.000  Zn
  O17      1.0000 0.00000  0.04919  0.28937  Biso   1.000  O
  O18      1.0000 0.00000  0.87999  0.28913  Biso   1.000  O
  C113     1.0000 0.00000  0.22554  0.29155  Biso   1.000  C
  H129     1.0000 0.00000  0.24510  0.32030  Biso   1.000  H
  C114     1.0000 0.00000  0.16660  0.29195  Biso   1.000  C
  H130     1.0000 0.00000  0.14730  0.32090  Biso   1.000  H
  C115     1.0000 0.00000  0.70370  0.29108  Biso   1.000  C
  H131     1.0000 0.00000  0.68420  0.31990  Biso   1.000  H
  C116     1.0000 0.00000  0.76228  0.29197  Biso   1.000  C
  H132     1.0000 0.00000  0.78150  0.32090  Biso   1.000  H
  Zn2      1.0000 0.50000  0.96475  0.23716  Biso   1.000  Zn
  O19      1.0000 0.50000  0.54919  0.28937  Biso   1.000  O
  O20      1.0000 0.50000  0.37999  0.28913  Biso   1.000  O
  C117     1.0000 0.50000  0.72554  0.29155  Biso   1.000  C
  H133     1.0000 0.50000  0.74510  0.32030  Biso   1.000  H
  C118     1.0000 0.50000  0.66660  0.29195  Biso   1.000  C
  H134     1.0000 0.50000  0.64730  0.32090  Biso   1.000  H
  C119     1.0000 0.50000  0.20370  0.29108  Biso   1.000  C
  H135     1.0000 0.50000  0.18420  0.31990  Biso   1.000  H
  C120     1.0000 0.50000  0.26228  0.29197  Biso   1.000  C
  H136     1.0000 0.50000  0.28150  0.32090  Biso   1.000  H
  Zn3      1.0000 0.00000  0.53525  0.73716  Biso   1.000  Zn
  O21      1.0000 0.00000  0.95081  0.78937  Biso   1.000  O
  O22      1.0000 0.00000  0.12001  0.78913  Biso   1.000  O
  C121     1.0000 0.00000  0.77446  0.79155  Biso   1.000  C
  H137     1.0000 0.00000  0.75490  0.82030  Biso   1.000  H
  C122     1.0000 0.00000  0.83340  0.79195  Biso   1.000  C
  H138     1.0000 0.00000  0.85270  0.82090  Biso   1.000  H
  C123     1.0000 0.00000  0.29630  0.79108  Biso   1.000  C
  H139     1.0000 0.00000  0.31580  0.81990  Biso   1.000  H
  C124     1.0000 0.00000  0.23772  0.79197  Biso   1.000  C
  H140     1.0000 0.00000  0.21850  0.82090  Biso   1.000  H
  Zn4      1.0000 0.50000  0.03525  0.73716  Biso   1.000  Zn
  O23      1.0000 0.50000  0.45081  0.78937  Biso   1.000  O
  O24      1.0000 0.50000  0.62001  0.78913  Biso   1.000  O
  C125     1.0000 0.50000  0.27446  0.79155  Biso   1.000  C
  H141     1.0000 0.50000  0.25490  0.82030  Biso   1.000  H
  C126     1.0000 0.50000  0.33340  0.79195  Biso   1.000  C
  H142     1.0000 0.50000  0.35270  0.82090  Biso   1.000  H
  C127     1.0000 0.50000  0.79630  0.79108  Biso   1.000  C
  H143     1.0000 0.50000  0.81580  0.81990  Biso   1.000  H
  C128     1.0000 0.50000  0.73772  0.79197  Biso   1.000  C
  H144     1.0000 0.50000  0.71850  0.82090  Biso   1.000  H
  Zn5      1.0000 0.00000  0.46475  0.26284  Biso   1.000  Zn
  O25      1.0000 0.00000  0.04919  0.21063  Biso   1.000  O
  O26      1.0000 0.00000  0.87999  0.21087  Biso   1.000  O
  C129     1.0000 0.00000  0.22554  0.20845  Biso   1.000  C
  H145     1.0000 0.00000  0.24510  0.17970  Biso   1.000  H
  C130     1.0000 0.00000  0.16660  0.20805  Biso   1.000  C
  H146     1.0000 0.00000  0.14730  0.17910  Biso   1.000  H
  C131     1.0000 0.00000  0.70370  0.20892  Biso   1.000  C
  H147     1.0000 0.00000  0.68420  0.18010  Biso   1.000  H
  C132     1.0000 0.00000  0.76228  0.20803  Biso   1.000  C
  H148     1.0000 0.00000  0.78150  0.17910  Biso   1.000  H
  Zn6      1.0000 0.50000  0.96475  0.26284  Biso   1.000  Zn
  O27      1.0000 0.50000  0.54919  0.21063  Biso   1.000  O
  O28      1.0000 0.50000  0.37999  0.21087  Biso   1.000  O
  C133     1.0000 0.50000  0.72554  0.20845  Biso   1.000  C
  H149     1.0000 0.50000  0.74510  0.17970  Biso   1.000  H
  C134     1.0000 0.50000  0.66660  0.20805  Biso   1.000  C
  H150     1.0000 0.50000  0.64730  0.17910  Biso   1.000  H
  C135     1.0000 0.50000  0.20370  0.20892  Biso   1.000  C
  H151     1.0000 0.50000  0.18420  0.18010  Biso   1.000  H
  C136     1.0000 0.50000  0.26228  0.20803  Biso   1.000  C
  H152     1.0000 0.50000  0.28150  0.17910  Biso   1.000  H
  Zn7      1.0000 0.00000  0.53525  0.76284  Biso   1.000  Zn
  O29      1.0000 0.00000  0.95081  0.71063  Biso   1.000  O
  O30      1.0000 0.00000  0.12001  0.71087  Biso   1.000  O
  C137     1.0000 0.00000  0.77446  0.70845  Biso   1.000  C
  H153     1.0000 0.00000  0.75490  0.67970  Biso   1.000  H
  C138     1.0000 0.00000  0.83340  0.70805  Biso   1.000  C
  H154     1.0000 0.00000  0.85270  0.67910  Biso   1.000  H
  C139     1.0000 0.00000  0.29630  0.70892  Biso   1.000  C
  H155     1.0000 0.00000  0.31580  0.68010  Biso   1.000  H
  C140     1.0000 0.00000  0.23772  0.70803  Biso   1.000  C
  H156     1.0000 0.00000  0.21850  0.67910  Biso   1.000  H
  Zn8      1.0000 0.50000  0.03525  0.76284  Biso   1.000  Zn
  O31      1.0000 0.50000  0.45081  0.71063  Biso   1.000  O
  O32      1.0000 0.50000  0.62001  0.71087  Biso   1.000  O
  C141     1.0000 0.50000  0.27446  0.70845  Biso   1.000  C
  H157     1.0000 0.50000  0.25490  0.67970  Biso   1.000  H
  C142     1.0000 0.50000  0.33340  0.70805  Biso   1.000  C
  H158     1.0000 0.50000  0.35270  0.67910  Biso   1.000  H
  C143     1.0000 0.50000  0.79630  0.70892  Biso   1.000  C
  H159     1.0000 0.50000  0.81580  0.68010  Biso   1.000  H
  C144     1.0000 0.50000  0.73772  0.70803  Biso   1.000  C
  H160     1.0000 0.50000  0.71850  0.67910  Biso   1.000  H
  Zn9      1.0000 0.50000  0.46414  0.30335  Biso   1.000  Zn
  N1       1.0000 0.50000  0.47072  0.37609  Biso   1.000  N
  C145     1.0000 0.50000  0.49411  0.47399  Biso   1.000  C
  Zn10     1.0000 0.00000  0.96414  0.30335  Biso   1.000  Zn
  N2       1.0000 0.00000  0.97072  0.37609  Biso   1.000  N
  C146     1.0000 0.00000  0.99411  0.47399  Biso   1.000  C
  Zn11     1.0000 0.50000  0.53586  0.80335  Biso   1.000  Zn
  N3       1.0000 0.50000  0.52928  0.87609  Biso   1.000  N
  C147     1.0000 0.50000  0.50589  0.97399  Biso   1.000  C
  Zn12     1.0000 0.00000  0.03586  0.80335  Biso   1.000  Zn
  N4       1.0000 0.00000  0.02928  0.87609  Biso   1.000  N
  C148     1.0000 0.00000  0.00589  0.97399  Biso   1.000  C
  Zn13     1.0000 0.50000  0.46414  0.19665  Biso   1.000  Zn
  N5       1.0000 0.50000  0.47072  0.12391  Biso   1.000  N
  C149     1.0000 0.50000  0.49411  0.02601  Biso   1.000  C
  Zn14     1.0000 0.00000  0.96414  0.19665  Biso   1.000  Zn
  N6       1.0000 0.00000  0.97072  0.12391  Biso   1.000  N
  C150     1.0000 0.00000  0.99411  0.02601  Biso   1.000  C
  Zn15     1.0000 0.50000  0.53586  0.69665  Biso   1.000  Zn
  N7       1.0000 0.50000  0.52928  0.62391  Biso   1.000  N
  C151     1.0000 0.50000  0.50589  0.52601  Biso   1.000  C
  Zn16     1.0000 0.00000  0.03586  0.69665  Biso   1.000  Zn
  N8       1.0000 0.00000  0.02928  0.62391  Biso   1.000  N
  C152     1.0000 0.00000  0.00589  0.52601  Biso   1.000  C
  N9       1.0000 0.93883  0.40368  0.25000  Biso   1.000  N
  N10      1.0000 0.93891  0.52560  0.25000  Biso   1.000  N
  C153     1.0000 0.94738  0.34578  0.25000  Biso   1.000  C
  C154     1.0000 0.89334  0.31793  0.25000  Biso   1.000  C
  H161     1.0000 0.88730  0.27900  0.25000  Biso   1.000  H
  C155     1.0000 0.85328  0.35799  0.25000  Biso   1.000  C
  H162     1.0000 0.81430  0.35210  0.25000  Biso   1.000  H
  C156     1.0000 0.88180  0.41197  0.25000  Biso   1.000  C
  C157     1.0000 0.85438  0.46467  0.25000  Biso   1.000  C
  C158     1.0000 0.88129  0.51716  0.25000  Biso   1.000  C
  C159     1.0000 0.85286  0.57135  0.25000  Biso   1.000  C
  H163     1.0000 0.81390  0.57750  0.25000  Biso   1.000  H
  C160     1.0000 0.89369  0.61142  0.25000  Biso   1.000  C
  H164     1.0000 0.88810  0.65040  0.25000  Biso   1.000  H
  C161     1.0000 0.94742  0.58274  0.25000  Biso   1.000  C
  C162     1.0000 0.79084  0.46477  0.25000  Biso   1.000  C
  C163     1.0000 0.67222  0.46475  0.25000  Biso   1.000  C
  C164     1.0000 0.60867  0.46494  0.25000  Biso   1.000  C
  N11      1.0000 0.43883  0.90368  0.25000  Biso   1.000  N
  N12      1.0000 0.43891  0.02560  0.25000  Biso   1.000  N
  C165     1.0000 0.44738  0.84578  0.25000  Biso   1.000  C
  C166     1.0000 0.39334  0.81793  0.25000  Biso   1.000  C
  H165     1.0000 0.38730  0.77900  0.25000  Biso   1.000  H
  C167     1.0000 0.35328  0.85799  0.25000  Biso   1.000  C
  H166     1.0000 0.31430  0.85210  0.25000  Biso   1.000  H
  C168     1.0000 0.38180  0.91197  0.25000  Biso   1.000  C
  C169     1.0000 0.35438  0.96467  0.25000  Biso   1.000  C
  C170     1.0000 0.38129  0.01716  0.25000  Biso   1.000  C
  C171     1.0000 0.35286  0.07135  0.25000  Biso   1.000  C
  H167     1.0000 0.31390  0.07750  0.25000  Biso   1.000  H
  C172     1.0000 0.39369  0.11142  0.25000  Biso   1.000  C
  H168     1.0000 0.38810  0.15040  0.25000  Biso   1.000  H
  C173     1.0000 0.44742  0.08274  0.25000  Biso   1.000  C
  C174     1.0000 0.29084  0.96477  0.25000  Biso   1.000  C
  C175     1.0000 0.17222  0.96475  0.25000  Biso   1.000  C
  C176     1.0000 0.10867  0.96494  0.25000  Biso   1.000  C
  N13      1.0000 0.06117  0.59632  0.75000  Biso   1.000  N
  N14      1.0000 0.06109  0.47440  0.75000  Biso   1.000  N
  C177     1.0000 0.05262  0.65422  0.75000  Biso   1.000  C
  C178     1.0000 0.10666  0.68207  0.75000  Biso   1.000  C
  H169     1.0000 0.11270  0.72100  0.75000  Biso   1.000  H
  C179     1.0000 0.14672  0.64201  0.75000  Biso   1.000  C
  H170     1.0000 0.18570  0.64790  0.75000  Biso   1.000  H
  C180     1.0000 0.11820  0.58803  0.75000  Biso   1.000  C
  C181     1.0000 0.14562  0.53533  0.75000  Biso   1.000  C
  C182     1.0000 0.11871  0.48284  0.75000  Biso   1.000  C
  C183     1.0000 0.14714  0.42865  0.75000  Biso   1.000  C
  H171     1.0000 0.18610  0.42250  0.75000  Biso   1.000  H
  C184     1.0000 0.10631  0.38858  0.75000  Biso   1.000  C
  H172     1.0000 0.11190  0.34960  0.75000  Biso   1.000  H
  C185     1.0000 0.05258  0.41726  0.75000  Biso   1.000  C
  C186     1.0000 0.20916  0.53523  0.75000  Biso   1.000  C
  C187     1.0000 0.32778  0.53525  0.75000  Biso   1.000  C
  C188     1.0000 0.39133  0.53506  0.75000  Biso   1.000  C
  N15      1.0000 0.56117  0.09632  0.75000  Biso   1.000  N
  N16      1.0000 0.56109  0.97440  0.75000  Biso   1.000  N
  C189     1.0000 0.55262  0.15422  0.75000  Biso   1.000  C
  C190     1.0000 0.60666  0.18207  0.75000  Biso   1.000  C
  H173     1.0000 0.61270  0.22100  0.75000  Biso   1.000  H
  C191     1.0000 0.64672  0.14201  0.75000  Biso   1.000  C
  H174     1.0000 0.68570  0.14790  0.75000  Biso   1.000  H
  C192     1.0000 0.61820  0.08803  0.75000  Biso   1.000  C
  C193     1.0000 0.64562  0.03533  0.75000  Biso   1.000  C
  C194     1.0000 0.61871  0.98284  0.75000  Biso   1.000  C
  C195     1.0000 0.64714  0.92865  0.75000  Biso   1.000  C
  H175     1.0000 0.68610  0.92250  0.75000  Biso   1.000  H
  C196     1.0000 0.60631  0.88858  0.75000  Biso   1.000  C
  H176     1.0000 0.61190  0.84960  0.75000  Biso   1.000  H
  C197     1.0000 0.55258  0.91726  0.75000  Biso   1.000  C
  C198     1.0000 0.70916  0.03523  0.75000  Biso   1.000  C
  C199     1.0000 0.82778  0.03525  0.75000  Biso   1.000  C
  C200     1.0000 0.89133  0.03506  0.75000  Biso   1.000  C
  N17      1.0000 0.06117  0.40368  0.25000  Biso   1.000  N
  N18      1.0000 0.06109  0.52560  0.25000  Biso   1.000  N
  C201     1.0000 0.05262  0.34578  0.25000  Biso   1.000  C
  C202     1.0000 0.10666  0.31793  0.25000  Biso   1.000  C
  H177     1.0000 0.11270  0.27900  0.25000  Biso   1.000  H
  C203     1.0000 0.14672  0.35799  0.25000  Biso   1.000  C
  H178     1.0000 0.18570  0.35210  0.25000  Biso   1.000  H
  C204     1.0000 0.11820  0.41197  0.25000  Biso   1.000  C
  C205     1.0000 0.14562  0.46467  0.25000  Biso   1.000  C
  C206     1.0000 0.11871  0.51716  0.25000  Biso   1.000  C
  C207     1.0000 0.14714  0.57135  0.25000  Biso   1.000  C
  H179     1.0000 0.18610  0.57750  0.25000  Biso   1.000  H
  C208     1.0000 0.10631  0.61142  0.25000  Biso   1.000  C
  H180     1.0000 0.11190  0.65040  0.25000  Biso   1.000  H
  C209     1.0000 0.05258  0.58274  0.25000  Biso   1.000  C
  C210     1.0000 0.20916  0.46477  0.25000  Biso   1.000  C
  C211     1.0000 0.32778  0.46475  0.25000  Biso   1.000  C
  C212     1.0000 0.39133  0.46494  0.25000  Biso   1.000  C
  N19      1.0000 0.56117  0.90368  0.25000  Biso   1.000  N
  N20      1.0000 0.56109  0.02560  0.25000  Biso   1.000  N
  C213     1.0000 0.55262  0.84578  0.25000  Biso   1.000  C
  C214     1.0000 0.60666  0.81793  0.25000  Biso   1.000  C
  H181     1.0000 0.61270  0.77900  0.25000  Biso   1.000  H
  C215     1.0000 0.64672  0.85799  0.25000  Biso   1.000  C
  H182     1.0000 0.68570  0.85210  0.25000  Biso   1.000  H
  C216     1.0000 0.61820  0.91197  0.25000  Biso   1.000  C
  C217     1.0000 0.64562  0.96467  0.25000  Biso   1.000  C
  C218     1.0000 0.61871  0.01716  0.25000  Biso   1.000  C
  C219     1.0000 0.64714  0.07135  0.25000  Biso   1.000  C
  H183     1.0000 0.68610  0.07750  0.25000  Biso   1.000  H
  C220     1.0000 0.60631  0.11142  0.25000  Biso   1.000  C
  H184     1.0000 0.61190  0.15040  0.25000  Biso   1.000  H
  C221     1.0000 0.55258  0.08274  0.25000  Biso   1.000  C
  C222     1.0000 0.70916  0.96477  0.25000  Biso   1.000  C
  C223     1.0000 0.82778  0.96475  0.25000  Biso   1.000  C
  C224     1.0000 0.89133  0.96494  0.25000  Biso   1.000  C
  N21      1.0000 0.93883  0.59632  0.75000  Biso   1.000  N
  N22      1.0000 0.93891  0.47440  0.75000  Biso   1.000  N
  C225     1.0000 0.94738  0.65422  0.75000  Biso   1.000  C
  C226     1.0000 0.89334  0.68207  0.75000  Biso   1.000  C
  H185     1.0000 0.88730  0.72100  0.75000  Biso   1.000  H
  C227     1.0000 0.85328  0.64201  0.75000  Biso   1.000  C
  H186     1.0000 0.81430  0.64790  0.75000  Biso   1.000  H
  C228     1.0000 0.88180  0.58803  0.75000  Biso   1.000  C
  C229     1.0000 0.85438  0.53533  0.75000  Biso   1.000  C
  C230     1.0000 0.88129  0.48284  0.75000  Biso   1.000  C
  C231     1.0000 0.85286  0.42865  0.75000  Biso   1.000  C
  H187     1.0000 0.81390  0.42250  0.75000  Biso   1.000  H
  C232     1.0000 0.89369  0.38858  0.75000  Biso   1.000  C
  H188     1.0000 0.88810  0.34960  0.75000  Biso   1.000  H
  C233     1.0000 0.94742  0.41726  0.75000  Biso   1.000  C
  C234     1.0000 0.79084  0.53523  0.75000  Biso   1.000  C
  C235     1.0000 0.67222  0.53525  0.75000  Biso   1.000  C
  C236     1.0000 0.60867  0.53506  0.75000  Biso   1.000  C
  N23      1.0000 0.43883  0.09632  0.75000  Biso   1.000  N
  N24      1.0000 0.43891  0.97440  0.75000  Biso   1.000  N
  C237     1.0000 0.44738  0.15422  0.75000  Biso   1.000  C
  C238     1.0000 0.39334  0.18207  0.75000  Biso   1.000  C
  H189     1.0000 0.38730  0.22100  0.75000  Biso   1.000  H
  C239     1.0000 0.35328  0.14201  0.75000  Biso   1.000  C
  H190     1.0000 0.31430  0.14790  0.75000  Biso   1.000  H
  C240     1.0000 0.38180  0.08803  0.75000  Biso   1.000  C
  C241     1.0000 0.35438  0.03533  0.75000  Biso   1.000  C
  C242     1.0000 0.38129  0.98284  0.75000  Biso   1.000  C
  C243     1.0000 0.35286  0.92865  0.75000  Biso   1.000  C
  H191     1.0000 0.31390  0.92250  0.75000  Biso   1.000  H
  C244     1.0000 0.39369  0.88858  0.75000  Biso   1.000  C
  H192     1.0000 0.38810  0.84960  0.75000  Biso   1.000  H
  C245     1.0000 0.44742  0.91726  0.75000  Biso   1.000  C
  C246     1.0000 0.29084  0.03523  0.75000  Biso   1.000  C
  C247     1.0000 0.17222  0.03525  0.75000  Biso   1.000  C
  C248     1.0000 0.10867  0.03506  0.75000  Biso   1.000  C
  C249     1.0000 0.00000  0.31942  0.25000  Biso   1.000  C
  C250     1.0000 0.00000  0.25509  0.25000  Biso   1.000  C
  C251     1.0000 0.00000  0.13671  0.25000  Biso   1.000  C
  C252     1.0000 0.00000  0.07319  0.25000  Biso   1.000  C
  C253     1.0000 0.00000  0.61081  0.25000  Biso   1.000  C
  C254     1.0000 0.00000  0.67349  0.25000  Biso   1.000  C
  C255     1.0000 0.00000  0.79186  0.25000  Biso   1.000  C
  C256     1.0000 0.00000  0.85562  0.25000  Biso   1.000  C
  C257     1.0000 0.50000  0.81942  0.25000  Biso   1.000  C
  C258     1.0000 0.50000  0.75509  0.25000  Biso   1.000  C
  C259     1.0000 0.50000  0.63671  0.25000  Biso   1.000  C
  C260     1.0000 0.50000  0.57319  0.25000  Biso   1.000  C
  C261     1.0000 0.50000  0.11081  0.25000  Biso   1.000  C
  C262     1.0000 0.50000  0.17349  0.25000  Biso   1.000  C
  C263     1.0000 0.50000  0.29186  0.25000  Biso   1.000  C
  C264     1.0000 0.50000  0.35562  0.25000  Biso   1.000  C
  C265     1.0000 0.00000  0.68058  0.75000  Biso   1.000  C
  C266     1.0000 0.00000  0.74491  0.75000  Biso   1.000  C
  C267     1.0000 0.00000  0.86329  0.75000  Biso   1.000  C
  C268     1.0000 0.00000  0.92681  0.75000  Biso   1.000  C
  C269     1.0000 0.00000  0.38919  0.75000  Biso   1.000  C
  C270     1.0000 0.00000  0.32651  0.75000  Biso   1.000  C
  C271     1.0000 0.00000  0.20814  0.75000  Biso   1.000  C
  C272     1.0000 0.00000  0.14438  0.75000  Biso   1.000  C
  C273     1.0000 0.50000  0.18058  0.75000  Biso   1.000  C
  C274     1.0000 0.50000  0.24491  0.75000  Biso   1.000  C
  C275     1.0000 0.50000  0.36329  0.75000  Biso   1.000  C
  C276     1.0000 0.50000  0.42681  0.75000  Biso   1.000  C
  C277     1.0000 0.50000  0.88919  0.75000  Biso   1.000  C
  C278     1.0000 0.50000  0.82651  0.75000  Biso   1.000  C
  C279     1.0000 0.50000  0.70814  0.75000  Biso   1.000  C
  C280     1.0000 0.50000  0.64438  0.75000  Biso   1.000  C
