data_image0
_cell_length_a       18.504
_cell_length_b       19.802
_cell_length_c       8.657
_cell_angle_alpha    90
_cell_angle_beta     99.74
_cell_angle_gamma    90

_symmetry_space_group_name_H-M    "P 1"
_symmetry_int_tables_number       1

loop_
  _symmetry_equiv_pos_as_xyz
  'x, y, z'

loop_
  _atom_site_label
  _atom_site_occupancy
  _atom_site_fract_x
  _atom_site_fract_y
  _atom_site_fract_z
  _atom_site_thermal_displace_type
  _atom_site_B_iso_or_equiv
  _atom_site_type_symbol
  C1       1.0000 0.24530  0.45090  0.66790  Biso   1.000  C
  H1       1.0000 0.19860  0.47240  0.62960  Biso   1.000  H
  H2       1.0000 0.25460  0.41860  0.58940  Biso   1.000  H
  N1       1.0000 0.07885  0.25620  0.77580  Biso   1.000  N
  C2       1.0000 0.30560  0.50470  0.68660  Biso   1.000  C
  N2       1.0000 0.41440  0.60380  0.71600  Biso   1.000  N
  C3       1.0000 0.18270  0.35980  0.79450  Biso   1.000  C
  C4       1.0000 0.12960  0.26510  0.90300  Biso   1.000  C
  H3       1.0000 0.13000  0.23600  0.98740  Biso   1.000  H
  C5       1.0000 0.23990  0.41610  0.80610  Biso   1.000  C
  H4       1.0000 0.22930  0.44860  0.88290  Biso   1.000  H
  H5       1.0000 0.28750  0.39660  0.84610  Biso   1.000  H
  C6       1.0000 0.12850  0.35220  0.66410  Biso   1.000  C
  H6       1.0000 0.12590  0.38190  0.58020  Biso   1.000  H
  C7       1.0000 0.35260  0.61370  0.77220  Biso   1.000  C
  H7       1.0000 0.34660  0.65400  0.82400  Biso   1.000  H
  C8       1.0000 0.36980  0.49540  0.62980  Biso   1.000  C
  H8       1.0000 0.37820  0.45490  0.58140  Biso   1.000  H
  C9       1.0000 0.07860  0.30010  0.65930  Biso   1.000  C
  H9       1.0000 0.04300  0.29540  0.57020  Biso   1.000  H
  C10      1.0000 0.42180  0.54540  0.64390  Biso   1.000  C
  H10      1.0000 0.46400  0.53820  0.60130  Biso   1.000  H
  C11      1.0000 0.18200  0.31590  0.91510  Biso   1.000  C
  H11      1.0000 0.21670  0.32000  0.00580  Biso   1.000  H
  N3       1.0000 0.00017  0.17220  0.51040  Biso   1.000  N
  C12      1.0000 0.99980  0.15730  0.38300  Biso   1.000  C
  N4       1.0000 0.02110  0.13300  0.26230  Biso   1.000  N
  C13      1.0000 0.29620  0.56580  0.75610  Biso   1.000  C
  H12      1.0000 0.25280  0.57520  0.79230  Biso   1.000  H
  C14      1.0000 0.74530  0.95090  0.66790  Biso   1.000  C
  H13      1.0000 0.69860  0.97240  0.62960  Biso   1.000  H
  H14      1.0000 0.75460  0.91860  0.58940  Biso   1.000  H
  N5       1.0000 0.57885  0.75620  0.77580  Biso   1.000  N
  C15      1.0000 0.80560  0.00470  0.68660  Biso   1.000  C
  N6       1.0000 0.91440  0.10380  0.71600  Biso   1.000  N
  C16      1.0000 0.68270  0.85980  0.79450  Biso   1.000  C
  C17      1.0000 0.62960  0.76510  0.90300  Biso   1.000  C
  H15      1.0000 0.63000  0.73600  0.98740  Biso   1.000  H
  C18      1.0000 0.73990  0.91610  0.80610  Biso   1.000  C
  H16      1.0000 0.72930  0.94860  0.88290  Biso   1.000  H
  H17      1.0000 0.78750  0.89660  0.84610  Biso   1.000  H
  C19      1.0000 0.62850  0.85220  0.66410  Biso   1.000  C
  H18      1.0000 0.62590  0.88190  0.58020  Biso   1.000  H
  C20      1.0000 0.85260  0.11370  0.77220  Biso   1.000  C
  H19      1.0000 0.84660  0.15400  0.82400  Biso   1.000  H
  C21      1.0000 0.86980  0.99540  0.62980  Biso   1.000  C
  H20      1.0000 0.87820  0.95490  0.58140  Biso   1.000  H
  C22      1.0000 0.57860  0.80010  0.65930  Biso   1.000  C
  H21      1.0000 0.54300  0.79540  0.57020  Biso   1.000  H
  C23      1.0000 0.92180  0.04540  0.64390  Biso   1.000  C
  H22      1.0000 0.96400  0.03820  0.60130  Biso   1.000  H
  C24      1.0000 0.68200  0.81590  0.91510  Biso   1.000  C
  H23      1.0000 0.71670  0.82000  0.00580  Biso   1.000  H
  N7       1.0000 0.50017  0.67220  0.51040  Biso   1.000  N
  C25      1.0000 0.49980  0.65730  0.38300  Biso   1.000  C
  N8       1.0000 0.52110  0.63300  0.26230  Biso   1.000  N
  C26      1.0000 0.79620  0.06580  0.75610  Biso   1.000  C
  H24      1.0000 0.75280  0.07520  0.79230  Biso   1.000  H
  C27      1.0000 0.75470  0.45090  0.83210  Biso   1.000  C
  H25      1.0000 0.80140  0.47240  0.87040  Biso   1.000  H
  H26      1.0000 0.74540  0.41860  0.91060  Biso   1.000  H
  N9       1.0000 0.92115  0.25620  0.72420  Biso   1.000  N
  C28      1.0000 0.69440  0.50470  0.81340  Biso   1.000  C
  N10      1.0000 0.58560  0.60380  0.78400  Biso   1.000  N
  C29      1.0000 0.81730  0.35980  0.70550  Biso   1.000  C
  C30      1.0000 0.87040  0.26510  0.59700  Biso   1.000  C
  H27      1.0000 0.87000  0.23600  0.51260  Biso   1.000  H
  C31      1.0000 0.76010  0.41610  0.69390  Biso   1.000  C
  H28      1.0000 0.77070  0.44860  0.61710  Biso   1.000  H
  H29      1.0000 0.71250  0.39660  0.65390  Biso   1.000  H
  C32      1.0000 0.87150  0.35220  0.83590  Biso   1.000  C
  H30      1.0000 0.87410  0.38190  0.91980  Biso   1.000  H
  C33      1.0000 0.64740  0.61370  0.72780  Biso   1.000  C
  H31      1.0000 0.65340  0.65400  0.67600  Biso   1.000  H
  C34      1.0000 0.63020  0.49540  0.87020  Biso   1.000  C
  H32      1.0000 0.62180  0.45490  0.91860  Biso   1.000  H
  C35      1.0000 0.92140  0.30010  0.84070  Biso   1.000  C
  H33      1.0000 0.95700  0.29540  0.92980  Biso   1.000  H
  C36      1.0000 0.57820  0.54540  0.85610  Biso   1.000  C
  H34      1.0000 0.53600  0.53820  0.89870  Biso   1.000  H
  C37      1.0000 0.81800  0.31590  0.58490  Biso   1.000  C
  H35      1.0000 0.78330  0.32000  0.49420  Biso   1.000  H
  N11      1.0000 0.99983  0.17220  0.98960  Biso   1.000  N
  C38      1.0000 0.00020  0.15730  0.11700  Biso   1.000  C
  N12      1.0000 0.97890  0.13300  0.23770  Biso   1.000  N
  C39      1.0000 0.70380  0.56580  0.74390  Biso   1.000  C
  H36      1.0000 0.74720  0.57520  0.70770  Biso   1.000  H
  C40      1.0000 0.25470  0.95090  0.83210  Biso   1.000  C
  H37      1.0000 0.30140  0.97240  0.87040  Biso   1.000  H
  H38      1.0000 0.24540  0.91860  0.91060  Biso   1.000  H
  N13      1.0000 0.42115  0.75620  0.72420  Biso   1.000  N
  C41      1.0000 0.19440  0.00470  0.81340  Biso   1.000  C
  N14      1.0000 0.08560  0.10380  0.78400  Biso   1.000  N
  C42      1.0000 0.31730  0.85980  0.70550  Biso   1.000  C
  C43      1.0000 0.37040  0.76510  0.59700  Biso   1.000  C
  H39      1.0000 0.37000  0.73600  0.51260  Biso   1.000  H
  C44      1.0000 0.26010  0.91610  0.69390  Biso   1.000  C
  H40      1.0000 0.27070  0.94860  0.61710  Biso   1.000  H
  H41      1.0000 0.21250  0.89660  0.65390  Biso   1.000  H
  C45      1.0000 0.37150  0.85220  0.83590  Biso   1.000  C
  H42      1.0000 0.37410  0.88190  0.91980  Biso   1.000  H
  C46      1.0000 0.14740  0.11370  0.72780  Biso   1.000  C
  H43      1.0000 0.15340  0.15400  0.67600  Biso   1.000  H
  C47      1.0000 0.13020  0.99540  0.87020  Biso   1.000  C
  H44      1.0000 0.12180  0.95490  0.91860  Biso   1.000  H
  C48      1.0000 0.42140  0.80010  0.84070  Biso   1.000  C
  H45      1.0000 0.45700  0.79540  0.92980  Biso   1.000  H
  C49      1.0000 0.07820  0.04540  0.85610  Biso   1.000  C
  H46      1.0000 0.03600  0.03820  0.89870  Biso   1.000  H
  C50      1.0000 0.31800  0.81590  0.58490  Biso   1.000  C
  H47      1.0000 0.28330  0.82000  0.49420  Biso   1.000  H
  N15      1.0000 0.49983  0.67220  0.98960  Biso   1.000  N
  C51      1.0000 0.50020  0.65730  0.11700  Biso   1.000  C
  N16      1.0000 0.47890  0.63300  0.23770  Biso   1.000  N
  C52      1.0000 0.20380  0.06580  0.74390  Biso   1.000  C
  H48      1.0000 0.24720  0.07520  0.70770  Biso   1.000  H
  Ni1      1.0000 0.00000  0.17885  0.75000  Biso   1.000  Ni
  Ni2      1.0000 0.50000  0.67885  0.75000  Biso   1.000  Ni
  C53      1.0000 0.75470  0.54910  0.33210  Biso   1.000  C
  H49      1.0000 0.80140  0.52760  0.37040  Biso   1.000  H
  H50      1.0000 0.74540  0.58140  0.41060  Biso   1.000  H
  N17      1.0000 0.92115  0.74380  0.22420  Biso   1.000  N
  C54      1.0000 0.69440  0.49530  0.31340  Biso   1.000  C
  N18      1.0000 0.58560  0.39620  0.28400  Biso   1.000  N
  C55      1.0000 0.81730  0.64020  0.20550  Biso   1.000  C
  C56      1.0000 0.87040  0.73490  0.09700  Biso   1.000  C
  H51      1.0000 0.87000  0.76400  0.01260  Biso   1.000  H
  C57      1.0000 0.76010  0.58390  0.19390  Biso   1.000  C
  H52      1.0000 0.77070  0.55140  0.11710  Biso   1.000  H
  H53      1.0000 0.71250  0.60340  0.15390  Biso   1.000  H
  C58      1.0000 0.87150  0.64780  0.33590  Biso   1.000  C
  H54      1.0000 0.87410  0.61810  0.41980  Biso   1.000  H
  C59      1.0000 0.64740  0.38630  0.22780  Biso   1.000  C
  H55      1.0000 0.65340  0.34600  0.17600  Biso   1.000  H
  C60      1.0000 0.63020  0.50460  0.37020  Biso   1.000  C
  H56      1.0000 0.62180  0.54510  0.41860  Biso   1.000  H
  C61      1.0000 0.92140  0.69990  0.34070  Biso   1.000  C
  H57      1.0000 0.95700  0.70460  0.42980  Biso   1.000  H
  C62      1.0000 0.57820  0.45460  0.35610  Biso   1.000  C
  H58      1.0000 0.53600  0.46180  0.39870  Biso   1.000  H
  C63      1.0000 0.81800  0.68410  0.08490  Biso   1.000  C
  H59      1.0000 0.78330  0.68000  0.99420  Biso   1.000  H
  N19      1.0000 0.99983  0.82780  0.48960  Biso   1.000  N
  C64      1.0000 0.00020  0.84270  0.61700  Biso   1.000  C
  N20      1.0000 0.97890  0.86700  0.73770  Biso   1.000  N
  C65      1.0000 0.70380  0.43420  0.24390  Biso   1.000  C
  H60      1.0000 0.74720  0.42480  0.20770  Biso   1.000  H
  C66      1.0000 0.25470  0.04910  0.33210  Biso   1.000  C
  H61      1.0000 0.30140  0.02760  0.37040  Biso   1.000  H
  H62      1.0000 0.24540  0.08140  0.41060  Biso   1.000  H
  N21      1.0000 0.42115  0.24380  0.22420  Biso   1.000  N
  C67      1.0000 0.19440  0.99530  0.31340  Biso   1.000  C
  N22      1.0000 0.08560  0.89620  0.28400  Biso   1.000  N
  C68      1.0000 0.31730  0.14020  0.20550  Biso   1.000  C
  C69      1.0000 0.37040  0.23490  0.09700  Biso   1.000  C
  H63      1.0000 0.37000  0.26400  0.01260  Biso   1.000  H
  C70      1.0000 0.26010  0.08390  0.19390  Biso   1.000  C
  H64      1.0000 0.27070  0.05140  0.11710  Biso   1.000  H
  H65      1.0000 0.21250  0.10340  0.15390  Biso   1.000  H
  C71      1.0000 0.37150  0.14780  0.33590  Biso   1.000  C
  H66      1.0000 0.37410  0.11810  0.41980  Biso   1.000  H
  C72      1.0000 0.14740  0.88630  0.22780  Biso   1.000  C
  H67      1.0000 0.15340  0.84600  0.17600  Biso   1.000  H
  C73      1.0000 0.13020  0.00460  0.37020  Biso   1.000  C
  H68      1.0000 0.12180  0.04510  0.41860  Biso   1.000  H
  C74      1.0000 0.42140  0.19990  0.34070  Biso   1.000  C
  H69      1.0000 0.45700  0.20460  0.42980  Biso   1.000  H
  C75      1.0000 0.07820  0.95460  0.35610  Biso   1.000  C
  H70      1.0000 0.03600  0.96180  0.39870  Biso   1.000  H
  C76      1.0000 0.31800  0.18410  0.08490  Biso   1.000  C
  H71      1.0000 0.28330  0.18000  0.99420  Biso   1.000  H
  N23      1.0000 0.49983  0.32780  0.48960  Biso   1.000  N
  C77      1.0000 0.50020  0.34270  0.61700  Biso   1.000  C
  N24      1.0000 0.47890  0.36700  0.73770  Biso   1.000  N
  C78      1.0000 0.20380  0.93420  0.24390  Biso   1.000  C
  H72      1.0000 0.24720  0.92480  0.20770  Biso   1.000  H
  C79      1.0000 0.24530  0.54910  0.16790  Biso   1.000  C
  H73      1.0000 0.19860  0.52760  0.12960  Biso   1.000  H
  H74      1.0000 0.25460  0.58140  0.08940  Biso   1.000  H
  N25      1.0000 0.07885  0.74380  0.27580  Biso   1.000  N
  C80      1.0000 0.30560  0.49530  0.18660  Biso   1.000  C
  N26      1.0000 0.41440  0.39620  0.21600  Biso   1.000  N
  C81      1.0000 0.18270  0.64020  0.29450  Biso   1.000  C
  C82      1.0000 0.12960  0.73490  0.40300  Biso   1.000  C
  H75      1.0000 0.13000  0.76400  0.48740  Biso   1.000  H
  C83      1.0000 0.23990  0.58390  0.30610  Biso   1.000  C
  H76      1.0000 0.22930  0.55140  0.38290  Biso   1.000  H
  H77      1.0000 0.28750  0.60340  0.34610  Biso   1.000  H
  C84      1.0000 0.12850  0.64780  0.16410  Biso   1.000  C
  H78      1.0000 0.12590  0.61810  0.08020  Biso   1.000  H
  C85      1.0000 0.35260  0.38630  0.27220  Biso   1.000  C
  H79      1.0000 0.34660  0.34600  0.32400  Biso   1.000  H
  C86      1.0000 0.36980  0.50460  0.12980  Biso   1.000  C
  H80      1.0000 0.37820  0.54510  0.08140  Biso   1.000  H
  C87      1.0000 0.07860  0.69990  0.15930  Biso   1.000  C
  H81      1.0000 0.04300  0.70460  0.07020  Biso   1.000  H
  C88      1.0000 0.42180  0.45460  0.14390  Biso   1.000  C
  H82      1.0000 0.46400  0.46180  0.10130  Biso   1.000  H
  C89      1.0000 0.18200  0.68410  0.41510  Biso   1.000  C
  H83      1.0000 0.21670  0.68000  0.50580  Biso   1.000  H
  N27      1.0000 0.00017  0.82780  0.01040  Biso   1.000  N
  C90      1.0000 0.99980  0.84270  0.88300  Biso   1.000  C
  N28      1.0000 0.02110  0.86700  0.76230  Biso   1.000  N
  C91      1.0000 0.29620  0.43420  0.25610  Biso   1.000  C
  H84      1.0000 0.25280  0.42480  0.29230  Biso   1.000  H
  C92      1.0000 0.74530  0.04910  0.16790  Biso   1.000  C
  H85      1.0000 0.69860  0.02760  0.12960  Biso   1.000  H
  H86      1.0000 0.75460  0.08140  0.08940  Biso   1.000  H
  N29      1.0000 0.57885  0.24380  0.27580  Biso   1.000  N
  C93      1.0000 0.80560  0.99530  0.18660  Biso   1.000  C
  N30      1.0000 0.91440  0.89620  0.21600  Biso   1.000  N
  C94      1.0000 0.68270  0.14020  0.29450  Biso   1.000  C
  C95      1.0000 0.62960  0.23490  0.40300  Biso   1.000  C
  H87      1.0000 0.63000  0.26400  0.48740  Biso   1.000  H
  C96      1.0000 0.73990  0.08390  0.30610  Biso   1.000  C
  H88      1.0000 0.72930  0.05140  0.38290  Biso   1.000  H
  H89      1.0000 0.78750  0.10340  0.34610  Biso   1.000  H
  C97      1.0000 0.62850  0.14780  0.16410  Biso   1.000  C
  H90      1.0000 0.62590  0.11810  0.08020  Biso   1.000  H
  C98      1.0000 0.85260  0.88630  0.27220  Biso   1.000  C
  H91      1.0000 0.84660  0.84600  0.32400  Biso   1.000  H
  C99      1.0000 0.86980  0.00460  0.12980  Biso   1.000  C
  H92      1.0000 0.87820  0.04510  0.08140  Biso   1.000  H
  C100     1.0000 0.57860  0.19990  0.15930  Biso   1.000  C
  H93      1.0000 0.54300  0.20460  0.07020  Biso   1.000  H
  C101     1.0000 0.92180  0.95460  0.14390  Biso   1.000  C
  H94      1.0000 0.96400  0.96180  0.10130  Biso   1.000  H
  C102     1.0000 0.68200  0.18410  0.41510  Biso   1.000  C
  H95      1.0000 0.71670  0.18000  0.50580  Biso   1.000  H
  N31      1.0000 0.50017  0.32780  0.01040  Biso   1.000  N
  C103     1.0000 0.49980  0.34270  0.88300  Biso   1.000  C
  N32      1.0000 0.52110  0.36700  0.76230  Biso   1.000  N
  C104     1.0000 0.79620  0.93420  0.25610  Biso   1.000  C
  H96      1.0000 0.75280  0.92480  0.29230  Biso   1.000  H
  Ni3      1.0000 0.00000  0.82115  0.25000  Biso   1.000  Ni
  Ni4      1.0000 0.50000  0.32115  0.25000  Biso   1.000  Ni
