data_image0
_cell_length_a       18.99
_cell_length_b       18.99
_cell_length_c       19.973
_cell_angle_alpha    90
_cell_angle_beta     90
_cell_angle_gamma    90

_symmetry_space_group_name_H-M    "P 1"
_symmetry_int_tables_number       1

loop_
  _symmetry_equiv_pos_as_xyz
  'x, y, z'

loop_
  _atom_site_label
  _atom_site_occupancy
  _atom_site_fract_x
  _atom_site_fract_y
  _atom_site_fract_z
  _atom_site_thermal_displace_type
  _atom_site_B_iso_or_equiv
  _atom_site_type_symbol
  N1       1.0000 0.36270  0.95820  0.44047  Biso   1.000  N
  N2       1.0000 0.42540  0.99260  0.42942  Biso   1.000  N
  C1       1.0000 0.41740  0.02570  0.37190  Biso   1.000  C
  H1       1.0000 0.45210  0.05490  0.35180  Biso   1.000  H
  C2       1.0000 0.35020  0.01210  0.34440  Biso   1.000  C
  C3       1.0000 0.31780  0.96940  0.38970  Biso   1.000  C
  H2       1.0000 0.27150  0.95090  0.38610  Biso   1.000  H
  C4       1.0000 0.32340  0.03720  0.27950  Biso   1.000  C
  C5       1.0000 0.27170  0.00110  0.24570  Biso   1.000  C
  H3       1.0000 0.25410  0.95830  0.26360  Biso   1.000  H
  C6       1.0000 0.24490  0.02650  0.18550  Biso   1.000  C
  H4       1.0000 0.20790  0.00190  0.16360  Biso   1.000  H
  C7       1.0000 0.27190  0.08730  0.15760  Biso   1.000  C
  C8       1.0000 0.32450  0.12200  0.19090  Biso   1.000  C
  H5       1.0000 0.34360  0.16370  0.17190  Biso   1.000  H
  C9       1.0000 0.35060  0.09810  0.25120  Biso   1.000  C
  H6       1.0000 0.38700  0.12330  0.27330  Biso   1.000  H
  C10      1.0000 0.24170  0.11640  0.09390  Biso   1.000  C
  O1       1.0000 0.18760  0.08650  0.07032  Biso   1.000  O
  O2       1.0000 0.27135  0.17040  0.07030  Biso   1.000  O
  C11      1.0000 0.05120  0.00560  0.05930  Biso   1.000  C
  H7       1.0000 0.97080  0.10860  0.95990  Biso   1.000  H
  H8       1.0000 0.04520  0.03590  0.09920  Biso   1.000  H
  H9       1.0000 0.09810  0.98300  0.06230  Biso   1.000  H
  N3       1.0000 0.63730  0.04180  0.44047  Biso   1.000  N
  N4       1.0000 0.57460  0.00740  0.42942  Biso   1.000  N
  C12      1.0000 0.58260  0.97430  0.37190  Biso   1.000  C
  H10      1.0000 0.54790  0.94510  0.35180  Biso   1.000  H
  C13      1.0000 0.64980  0.98790  0.34440  Biso   1.000  C
  C14      1.0000 0.68220  0.03060  0.38970  Biso   1.000  C
  H11      1.0000 0.72850  0.04910  0.38610  Biso   1.000  H
  C15      1.0000 0.67660  0.96280  0.27950  Biso   1.000  C
  C16      1.0000 0.72830  0.99890  0.24570  Biso   1.000  C
  H12      1.0000 0.74590  0.04170  0.26360  Biso   1.000  H
  C17      1.0000 0.75510  0.97350  0.18550  Biso   1.000  C
  H13      1.0000 0.79210  0.99810  0.16360  Biso   1.000  H
  C18      1.0000 0.72810  0.91270  0.15760  Biso   1.000  C
  C19      1.0000 0.67550  0.87800  0.19090  Biso   1.000  C
  H14      1.0000 0.65640  0.83630  0.17190  Biso   1.000  H
  C20      1.0000 0.64940  0.90190  0.25120  Biso   1.000  C
  H15      1.0000 0.61300  0.87670  0.27330  Biso   1.000  H
  C21      1.0000 0.75830  0.88360  0.09390  Biso   1.000  C
  O3       1.0000 0.81240  0.91350  0.07032  Biso   1.000  O
  O4       1.0000 0.72865  0.82960  0.07030  Biso   1.000  O
  C22      1.0000 0.94880  0.99440  0.05930  Biso   1.000  C
  H16      1.0000 0.02920  0.89140  0.95990  Biso   1.000  H
  H17      1.0000 0.95480  0.96410  0.09920  Biso   1.000  H
  H18      1.0000 0.90190  0.01700  0.06230  Biso   1.000  H
  N5       1.0000 0.95820  0.36270  0.55953  Biso   1.000  N
  N6       1.0000 0.99260  0.42540  0.57058  Biso   1.000  N
  C23      1.0000 0.02570  0.41740  0.62810  Biso   1.000  C
  H19      1.0000 0.05490  0.45210  0.64820  Biso   1.000  H
  C24      1.0000 0.01210  0.35020  0.65560  Biso   1.000  C
  C25      1.0000 0.96940  0.31780  0.61030  Biso   1.000  C
  H20      1.0000 0.95090  0.27150  0.61390  Biso   1.000  H
  C26      1.0000 0.03720  0.32340  0.72050  Biso   1.000  C
  C27      1.0000 0.00110  0.27170  0.75430  Biso   1.000  C
  H21      1.0000 0.95830  0.25410  0.73640  Biso   1.000  H
  C28      1.0000 0.02650  0.24490  0.81450  Biso   1.000  C
  H22      1.0000 0.00190  0.20790  0.83640  Biso   1.000  H
  C29      1.0000 0.08730  0.27190  0.84240  Biso   1.000  C
  C30      1.0000 0.12200  0.32450  0.80910  Biso   1.000  C
  H23      1.0000 0.16370  0.34360  0.82810  Biso   1.000  H
  C31      1.0000 0.09810  0.35060  0.74880  Biso   1.000  C
  H24      1.0000 0.12330  0.38700  0.72670  Biso   1.000  H
  C32      1.0000 0.11640  0.24170  0.90610  Biso   1.000  C
  O5       1.0000 0.08650  0.18760  0.92968  Biso   1.000  O
  O6       1.0000 0.17040  0.27135  0.92970  Biso   1.000  O
  C33      1.0000 0.00560  0.05120  0.94070  Biso   1.000  C
  H25      1.0000 0.10860  0.97080  0.04010  Biso   1.000  H
  H26      1.0000 0.03590  0.04520  0.90080  Biso   1.000  H
  H27      1.0000 0.98300  0.09810  0.93770  Biso   1.000  H
  N7       1.0000 0.04180  0.63730  0.55953  Biso   1.000  N
  N8       1.0000 0.00740  0.57460  0.57058  Biso   1.000  N
  C34      1.0000 0.97430  0.58260  0.62810  Biso   1.000  C
  H28      1.0000 0.94510  0.54790  0.64820  Biso   1.000  H
  C35      1.0000 0.98790  0.64980  0.65560  Biso   1.000  C
  C36      1.0000 0.03060  0.68220  0.61030  Biso   1.000  C
  H29      1.0000 0.04910  0.72850  0.61390  Biso   1.000  H
  C37      1.0000 0.96280  0.67660  0.72050  Biso   1.000  C
  C38      1.0000 0.99890  0.72830  0.75430  Biso   1.000  C
  H30      1.0000 0.04170  0.74590  0.73640  Biso   1.000  H
  C39      1.0000 0.97350  0.75510  0.81450  Biso   1.000  C
  H31      1.0000 0.99810  0.79210  0.83640  Biso   1.000  H
  C40      1.0000 0.91270  0.72810  0.84240  Biso   1.000  C
  C41      1.0000 0.87800  0.67550  0.80910  Biso   1.000  C
  H32      1.0000 0.83630  0.65640  0.82810  Biso   1.000  H
  C42      1.0000 0.90190  0.64940  0.74880  Biso   1.000  C
  H33      1.0000 0.87670  0.61300  0.72670  Biso   1.000  H
  C43      1.0000 0.88360  0.75830  0.90610  Biso   1.000  C
  O7       1.0000 0.91350  0.81240  0.92968  Biso   1.000  O
  O8       1.0000 0.82960  0.72865  0.92970  Biso   1.000  O
  C44      1.0000 0.99440  0.94880  0.94070  Biso   1.000  C
  H34      1.0000 0.89140  0.02920  0.04010  Biso   1.000  H
  H35      1.0000 0.96410  0.95480  0.90080  Biso   1.000  H
  H36      1.0000 0.01700  0.90190  0.93770  Biso   1.000  H
  N9       1.0000 0.63730  0.04180  0.55953  Biso   1.000  N
  N10      1.0000 0.57460  0.00740  0.57058  Biso   1.000  N
  C45      1.0000 0.58260  0.97430  0.62810  Biso   1.000  C
  H37      1.0000 0.54790  0.94510  0.64820  Biso   1.000  H
  C46      1.0000 0.64980  0.98790  0.65560  Biso   1.000  C
  C47      1.0000 0.68220  0.03060  0.61030  Biso   1.000  C
  H38      1.0000 0.72850  0.04910  0.61390  Biso   1.000  H
  C48      1.0000 0.67660  0.96280  0.72050  Biso   1.000  C
  C49      1.0000 0.72830  0.99890  0.75430  Biso   1.000  C
  H39      1.0000 0.74590  0.04170  0.73640  Biso   1.000  H
  C50      1.0000 0.75510  0.97350  0.81450  Biso   1.000  C
  H40      1.0000 0.79210  0.99810  0.83640  Biso   1.000  H
  C51      1.0000 0.72810  0.91270  0.84240  Biso   1.000  C
  C52      1.0000 0.67550  0.87800  0.80910  Biso   1.000  C
  H41      1.0000 0.65640  0.83630  0.82810  Biso   1.000  H
  C53      1.0000 0.64940  0.90190  0.74880  Biso   1.000  C
  H42      1.0000 0.61300  0.87670  0.72670  Biso   1.000  H
  C54      1.0000 0.75830  0.88360  0.90610  Biso   1.000  C
  O9       1.0000 0.81240  0.91350  0.92968  Biso   1.000  O
  O10      1.0000 0.72865  0.82960  0.92970  Biso   1.000  O
  C55      1.0000 0.94880  0.99440  0.94070  Biso   1.000  C
  H43      1.0000 0.02920  0.89140  0.04010  Biso   1.000  H
  H44      1.0000 0.95480  0.96410  0.90080  Biso   1.000  H
  H45      1.0000 0.90190  0.01700  0.93770  Biso   1.000  H
  N11      1.0000 0.36270  0.95820  0.55953  Biso   1.000  N
  N12      1.0000 0.42540  0.99260  0.57058  Biso   1.000  N
  C56      1.0000 0.41740  0.02570  0.62810  Biso   1.000  C
  H46      1.0000 0.45210  0.05490  0.64820  Biso   1.000  H
  C57      1.0000 0.35020  0.01210  0.65560  Biso   1.000  C
  C58      1.0000 0.31780  0.96940  0.61030  Biso   1.000  C
  H47      1.0000 0.27150  0.95090  0.61390  Biso   1.000  H
  C59      1.0000 0.32340  0.03720  0.72050  Biso   1.000  C
  C60      1.0000 0.27170  0.00110  0.75430  Biso   1.000  C
  H48      1.0000 0.25410  0.95830  0.73640  Biso   1.000  H
  C61      1.0000 0.24490  0.02650  0.81450  Biso   1.000  C
  H49      1.0000 0.20790  0.00190  0.83640  Biso   1.000  H
  C62      1.0000 0.27190  0.08730  0.84240  Biso   1.000  C
  C63      1.0000 0.32450  0.12200  0.80910  Biso   1.000  C
  H50      1.0000 0.34360  0.16370  0.82810  Biso   1.000  H
  C64      1.0000 0.35060  0.09810  0.74880  Biso   1.000  C
  H51      1.0000 0.38700  0.12330  0.72670  Biso   1.000  H
  C65      1.0000 0.24170  0.11640  0.90610  Biso   1.000  C
  O11      1.0000 0.18760  0.08650  0.92968  Biso   1.000  O
  O12      1.0000 0.27135  0.17040  0.92970  Biso   1.000  O
  C66      1.0000 0.05120  0.00560  0.94070  Biso   1.000  C
  H52      1.0000 0.97080  0.10860  0.04010  Biso   1.000  H
  H53      1.0000 0.04520  0.03590  0.90080  Biso   1.000  H
  H54      1.0000 0.09810  0.98300  0.93770  Biso   1.000  H
  N13      1.0000 0.04180  0.63730  0.44047  Biso   1.000  N
  N14      1.0000 0.00740  0.57460  0.42942  Biso   1.000  N
  C67      1.0000 0.97430  0.58260  0.37190  Biso   1.000  C
  H55      1.0000 0.94510  0.54790  0.35180  Biso   1.000  H
  C68      1.0000 0.98790  0.64980  0.34440  Biso   1.000  C
  C69      1.0000 0.03060  0.68220  0.38970  Biso   1.000  C
  H56      1.0000 0.04910  0.72850  0.38610  Biso   1.000  H
  C70      1.0000 0.96280  0.67660  0.27950  Biso   1.000  C
  C71      1.0000 0.99890  0.72830  0.24570  Biso   1.000  C
  H57      1.0000 0.04170  0.74590  0.26360  Biso   1.000  H
  C72      1.0000 0.97350  0.75510  0.18550  Biso   1.000  C
  H58      1.0000 0.99810  0.79210  0.16360  Biso   1.000  H
  C73      1.0000 0.91270  0.72810  0.15760  Biso   1.000  C
  C74      1.0000 0.87800  0.67550  0.19090  Biso   1.000  C
  H59      1.0000 0.83630  0.65640  0.17190  Biso   1.000  H
  C75      1.0000 0.90190  0.64940  0.25120  Biso   1.000  C
  H60      1.0000 0.87670  0.61300  0.27330  Biso   1.000  H
  C76      1.0000 0.88360  0.75830  0.09390  Biso   1.000  C
  O13      1.0000 0.91350  0.81240  0.07032  Biso   1.000  O
  O14      1.0000 0.82960  0.72865  0.07030  Biso   1.000  O
  C77      1.0000 0.99440  0.94880  0.05930  Biso   1.000  C
  H61      1.0000 0.89140  0.02920  0.95990  Biso   1.000  H
  H62      1.0000 0.96410  0.95480  0.09920  Biso   1.000  H
  H63      1.0000 0.01700  0.90190  0.06230  Biso   1.000  H
  N15      1.0000 0.95820  0.36270  0.44047  Biso   1.000  N
  N16      1.0000 0.99260  0.42540  0.42942  Biso   1.000  N
  C78      1.0000 0.02570  0.41740  0.37190  Biso   1.000  C
  H64      1.0000 0.05490  0.45210  0.35180  Biso   1.000  H
  C79      1.0000 0.01210  0.35020  0.34440  Biso   1.000  C
  C80      1.0000 0.96940  0.31780  0.38970  Biso   1.000  C
  H65      1.0000 0.95090  0.27150  0.38610  Biso   1.000  H
  C81      1.0000 0.03720  0.32340  0.27950  Biso   1.000  C
  C82      1.0000 0.00110  0.27170  0.24570  Biso   1.000  C
  H66      1.0000 0.95830  0.25410  0.26360  Biso   1.000  H
  C83      1.0000 0.02650  0.24490  0.18550  Biso   1.000  C
  H67      1.0000 0.00190  0.20790  0.16360  Biso   1.000  H
  C84      1.0000 0.08730  0.27190  0.15760  Biso   1.000  C
  C85      1.0000 0.12200  0.32450  0.19090  Biso   1.000  C
  H68      1.0000 0.16370  0.34360  0.17190  Biso   1.000  H
  C86      1.0000 0.09810  0.35060  0.25120  Biso   1.000  C
  H69      1.0000 0.12330  0.38700  0.27330  Biso   1.000  H
  C87      1.0000 0.11640  0.24170  0.09390  Biso   1.000  C
  O15      1.0000 0.08650  0.18760  0.07032  Biso   1.000  O
  O16      1.0000 0.17040  0.27135  0.07030  Biso   1.000  O
  C88      1.0000 0.00560  0.05120  0.05930  Biso   1.000  C
  H70      1.0000 0.10860  0.97080  0.95990  Biso   1.000  H
  H71      1.0000 0.03590  0.04520  0.09920  Biso   1.000  H
  H72      1.0000 0.98300  0.09810  0.06230  Biso   1.000  H
  Cu1      1.0000 0.12883  0.12883  0.00000  Biso   1.000  Cu
  Cu2      1.0000 0.22742  0.22742  0.00000  Biso   1.000  Cu
  N17      1.0000 0.04840  0.04840  0.00000  Biso   1.000  N
  Cu3      1.0000 0.87117  0.87117  0.00000  Biso   1.000  Cu
  Cu4      1.0000 0.77258  0.77258  0.00000  Biso   1.000  Cu
  N18      1.0000 0.95160  0.95160  0.00000  Biso   1.000  N
  C89      1.0000 0.35500  0.91490  0.50000  Biso   1.000  C
  H73      1.0000 0.30800  0.89230  0.50000  Biso   1.000  H
  H74      1.0000 0.39110  0.87740  0.50000  Biso   1.000  H
  C90      1.0000 0.64500  0.08510  0.50000  Biso   1.000  C
  H75      1.0000 0.69200  0.10770  0.50000  Biso   1.000  H
  H76      1.0000 0.60890  0.12260  0.50000  Biso   1.000  H
  C91      1.0000 0.91490  0.35500  0.50000  Biso   1.000  C
  H77      1.0000 0.89230  0.30800  0.50000  Biso   1.000  H
  H78      1.0000 0.87740  0.39110  0.50000  Biso   1.000  H
  C92      1.0000 0.08510  0.64500  0.50000  Biso   1.000  C
  H79      1.0000 0.10770  0.69200  0.50000  Biso   1.000  H
  H80      1.0000 0.12260  0.60890  0.50000  Biso   1.000  H
  Cu5      1.0000 0.50000  0.00000  0.50000  Biso   1.000  Cu
  Cu6      1.0000 0.00000  0.50000  0.50000  Biso   1.000  Cu
  C93      1.0000 0.97670  0.07850  0.00000  Biso   1.000  C
  C94      1.0000 0.02330  0.92150  0.00000  Biso   1.000  C
  C95      1.0000 0.07850  0.97670  0.00000  Biso   1.000  C
  C96      1.0000 0.92150  0.02330  0.00000  Biso   1.000  C
  N19      1.0000 0.54180  0.86270  0.94047  Biso   1.000  N
  N20      1.0000 0.50740  0.92540  0.92942  Biso   1.000  N
  C97      1.0000 0.47430  0.91740  0.87190  Biso   1.000  C
  H81      1.0000 0.44510  0.95210  0.85180  Biso   1.000  H
  C98      1.0000 0.48790  0.85020  0.84440  Biso   1.000  C
  C99      1.0000 0.53060  0.81780  0.88970  Biso   1.000  C
  H82      1.0000 0.54910  0.77150  0.88610  Biso   1.000  H
  C100     1.0000 0.46280  0.82340  0.77950  Biso   1.000  C
  C101     1.0000 0.49890  0.77170  0.74570  Biso   1.000  C
  H83      1.0000 0.54170  0.75410  0.76360  Biso   1.000  H
  C102     1.0000 0.47350  0.74490  0.68550  Biso   1.000  C
  H84      1.0000 0.49810  0.70790  0.66360  Biso   1.000  H
  C103     1.0000 0.41270  0.77190  0.65760  Biso   1.000  C
  C104     1.0000 0.37800  0.82450  0.69090  Biso   1.000  C
  H85      1.0000 0.33630  0.84360  0.67190  Biso   1.000  H
  C105     1.0000 0.40190  0.85060  0.75120  Biso   1.000  C
  H86      1.0000 0.37670  0.88700  0.77330  Biso   1.000  H
  C106     1.0000 0.38360  0.74170  0.59390  Biso   1.000  C
  O17      1.0000 0.41350  0.68760  0.57032  Biso   1.000  O
  O18      1.0000 0.32960  0.77135  0.57030  Biso   1.000  O
  C107     1.0000 0.49440  0.55120  0.55930  Biso   1.000  C
  H87      1.0000 0.39140  0.47080  0.45990  Biso   1.000  H
  H88      1.0000 0.46410  0.54520  0.59920  Biso   1.000  H
  H89      1.0000 0.51700  0.59810  0.56230  Biso   1.000  H
  N21      1.0000 0.45820  0.13730  0.94047  Biso   1.000  N
  N22      1.0000 0.49260  0.07460  0.92942  Biso   1.000  N
  C108     1.0000 0.52570  0.08260  0.87190  Biso   1.000  C
  H90      1.0000 0.55490  0.04790  0.85180  Biso   1.000  H
  C109     1.0000 0.51210  0.14980  0.84440  Biso   1.000  C
  C110     1.0000 0.46940  0.18220  0.88970  Biso   1.000  C
  H91      1.0000 0.45090  0.22850  0.88610  Biso   1.000  H
  C111     1.0000 0.53720  0.17660  0.77950  Biso   1.000  C
  C112     1.0000 0.50110  0.22830  0.74570  Biso   1.000  C
  H92      1.0000 0.45830  0.24590  0.76360  Biso   1.000  H
  C113     1.0000 0.52650  0.25510  0.68550  Biso   1.000  C
  H93      1.0000 0.50190  0.29210  0.66360  Biso   1.000  H
  C114     1.0000 0.58730  0.22810  0.65760  Biso   1.000  C
  C115     1.0000 0.62200  0.17550  0.69090  Biso   1.000  C
  H94      1.0000 0.66370  0.15640  0.67190  Biso   1.000  H
  C116     1.0000 0.59810  0.14940  0.75120  Biso   1.000  C
  H95      1.0000 0.62330  0.11300  0.77330  Biso   1.000  H
  C117     1.0000 0.61640  0.25830  0.59390  Biso   1.000  C
  O19      1.0000 0.58650  0.31240  0.57032  Biso   1.000  O
  O20      1.0000 0.67040  0.22865  0.57030  Biso   1.000  O
  C118     1.0000 0.50560  0.44880  0.55930  Biso   1.000  C
  H96      1.0000 0.60860  0.52920  0.45990  Biso   1.000  H
  H97      1.0000 0.53590  0.45480  0.59920  Biso   1.000  H
  H98      1.0000 0.48300  0.40190  0.56230  Biso   1.000  H
  N23      1.0000 0.13730  0.45820  0.05953  Biso   1.000  N
  N24      1.0000 0.07460  0.49260  0.07058  Biso   1.000  N
  C119     1.0000 0.08260  0.52570  0.12810  Biso   1.000  C
  H99      1.0000 0.04790  0.55490  0.14820  Biso   1.000  H
  C120     1.0000 0.14980  0.51210  0.15560  Biso   1.000  C
  C121     1.0000 0.18220  0.46940  0.11030  Biso   1.000  C
  H100     1.0000 0.22850  0.45090  0.11390  Biso   1.000  H
  C122     1.0000 0.17660  0.53720  0.22050  Biso   1.000  C
  C123     1.0000 0.22830  0.50110  0.25430  Biso   1.000  C
  H101     1.0000 0.24590  0.45830  0.23640  Biso   1.000  H
  C124     1.0000 0.25510  0.52650  0.31450  Biso   1.000  C
  H102     1.0000 0.29210  0.50190  0.33640  Biso   1.000  H
  C125     1.0000 0.22810  0.58730  0.34240  Biso   1.000  C
  C126     1.0000 0.17550  0.62200  0.30910  Biso   1.000  C
  H103     1.0000 0.15640  0.66370  0.32810  Biso   1.000  H
  C127     1.0000 0.14940  0.59810  0.24880  Biso   1.000  C
  H104     1.0000 0.11300  0.62330  0.22670  Biso   1.000  H
  C128     1.0000 0.25830  0.61640  0.40610  Biso   1.000  C
  O21      1.0000 0.31240  0.58650  0.42968  Biso   1.000  O
  O22      1.0000 0.22865  0.67040  0.42970  Biso   1.000  O
  C129     1.0000 0.44880  0.50560  0.44070  Biso   1.000  C
  H105     1.0000 0.52920  0.60860  0.54010  Biso   1.000  H
  H106     1.0000 0.45480  0.53590  0.40080  Biso   1.000  H
  H107     1.0000 0.40190  0.48300  0.43770  Biso   1.000  H
  N25      1.0000 0.86270  0.54180  0.05953  Biso   1.000  N
  N26      1.0000 0.92540  0.50740  0.07058  Biso   1.000  N
  C130     1.0000 0.91740  0.47430  0.12810  Biso   1.000  C
  H108     1.0000 0.95210  0.44510  0.14820  Biso   1.000  H
  C131     1.0000 0.85020  0.48790  0.15560  Biso   1.000  C
  C132     1.0000 0.81780  0.53060  0.11030  Biso   1.000  C
  H109     1.0000 0.77150  0.54910  0.11390  Biso   1.000  H
  C133     1.0000 0.82340  0.46280  0.22050  Biso   1.000  C
  C134     1.0000 0.77170  0.49890  0.25430  Biso   1.000  C
  H110     1.0000 0.75410  0.54170  0.23640  Biso   1.000  H
  C135     1.0000 0.74490  0.47350  0.31450  Biso   1.000  C
  H111     1.0000 0.70790  0.49810  0.33640  Biso   1.000  H
  C136     1.0000 0.77190  0.41270  0.34240  Biso   1.000  C
  C137     1.0000 0.82450  0.37800  0.30910  Biso   1.000  C
  H112     1.0000 0.84360  0.33630  0.32810  Biso   1.000  H
  C138     1.0000 0.85060  0.40190  0.24880  Biso   1.000  C
  H113     1.0000 0.88700  0.37670  0.22670  Biso   1.000  H
  C139     1.0000 0.74170  0.38360  0.40610  Biso   1.000  C
  O23      1.0000 0.68760  0.41350  0.42968  Biso   1.000  O
  O24      1.0000 0.77135  0.32960  0.42970  Biso   1.000  O
  C140     1.0000 0.55120  0.49440  0.44070  Biso   1.000  C
  H114     1.0000 0.47080  0.39140  0.54010  Biso   1.000  H
  H115     1.0000 0.54520  0.46410  0.40080  Biso   1.000  H
  H116     1.0000 0.59810  0.51700  0.43770  Biso   1.000  H
  N27      1.0000 0.45820  0.13730  0.05953  Biso   1.000  N
  N28      1.0000 0.49260  0.07460  0.07058  Biso   1.000  N
  C141     1.0000 0.52570  0.08260  0.12810  Biso   1.000  C
  H117     1.0000 0.55490  0.04790  0.14820  Biso   1.000  H
  C142     1.0000 0.51210  0.14980  0.15560  Biso   1.000  C
  C143     1.0000 0.46940  0.18220  0.11030  Biso   1.000  C
  H118     1.0000 0.45090  0.22850  0.11390  Biso   1.000  H
  C144     1.0000 0.53720  0.17660  0.22050  Biso   1.000  C
  C145     1.0000 0.50110  0.22830  0.25430  Biso   1.000  C
  H119     1.0000 0.45830  0.24590  0.23640  Biso   1.000  H
  C146     1.0000 0.52650  0.25510  0.31450  Biso   1.000  C
  H120     1.0000 0.50190  0.29210  0.33640  Biso   1.000  H
  C147     1.0000 0.58730  0.22810  0.34240  Biso   1.000  C
  C148     1.0000 0.62200  0.17550  0.30910  Biso   1.000  C
  H121     1.0000 0.66370  0.15640  0.32810  Biso   1.000  H
  C149     1.0000 0.59810  0.14940  0.24880  Biso   1.000  C
  H122     1.0000 0.62330  0.11300  0.22670  Biso   1.000  H
  C150     1.0000 0.61640  0.25830  0.40610  Biso   1.000  C
  O25      1.0000 0.58650  0.31240  0.42968  Biso   1.000  O
  O26      1.0000 0.67040  0.22865  0.42970  Biso   1.000  O
  C151     1.0000 0.50560  0.44880  0.44070  Biso   1.000  C
  H123     1.0000 0.60860  0.52920  0.54010  Biso   1.000  H
  H124     1.0000 0.53590  0.45480  0.40080  Biso   1.000  H
  H125     1.0000 0.48300  0.40190  0.43770  Biso   1.000  H
  N29      1.0000 0.54180  0.86270  0.05953  Biso   1.000  N
  N30      1.0000 0.50740  0.92540  0.07058  Biso   1.000  N
  C152     1.0000 0.47430  0.91740  0.12810  Biso   1.000  C
  H126     1.0000 0.44510  0.95210  0.14820  Biso   1.000  H
  C153     1.0000 0.48790  0.85020  0.15560  Biso   1.000  C
  C154     1.0000 0.53060  0.81780  0.11030  Biso   1.000  C
  H127     1.0000 0.54910  0.77150  0.11390  Biso   1.000  H
  C155     1.0000 0.46280  0.82340  0.22050  Biso   1.000  C
  C156     1.0000 0.49890  0.77170  0.25430  Biso   1.000  C
  H128     1.0000 0.54170  0.75410  0.23640  Biso   1.000  H
  C157     1.0000 0.47350  0.74490  0.31450  Biso   1.000  C
  H129     1.0000 0.49810  0.70790  0.33640  Biso   1.000  H
  C158     1.0000 0.41270  0.77190  0.34240  Biso   1.000  C
  C159     1.0000 0.37800  0.82450  0.30910  Biso   1.000  C
  H130     1.0000 0.33630  0.84360  0.32810  Biso   1.000  H
  C160     1.0000 0.40190  0.85060  0.24880  Biso   1.000  C
  H131     1.0000 0.37670  0.88700  0.22670  Biso   1.000  H
  C161     1.0000 0.38360  0.74170  0.40610  Biso   1.000  C
  O27      1.0000 0.41350  0.68760  0.42968  Biso   1.000  O
  O28      1.0000 0.32960  0.77135  0.42970  Biso   1.000  O
  C162     1.0000 0.49440  0.55120  0.44070  Biso   1.000  C
  H132     1.0000 0.39140  0.47080  0.54010  Biso   1.000  H
  H133     1.0000 0.46410  0.54520  0.40080  Biso   1.000  H
  H134     1.0000 0.51700  0.59810  0.43770  Biso   1.000  H
  N31      1.0000 0.86270  0.54180  0.94047  Biso   1.000  N
  N32      1.0000 0.92540  0.50740  0.92942  Biso   1.000  N
  C163     1.0000 0.91740  0.47430  0.87190  Biso   1.000  C
  H135     1.0000 0.95210  0.44510  0.85180  Biso   1.000  H
  C164     1.0000 0.85020  0.48790  0.84440  Biso   1.000  C
  C165     1.0000 0.81780  0.53060  0.88970  Biso   1.000  C
  H136     1.0000 0.77150  0.54910  0.88610  Biso   1.000  H
  C166     1.0000 0.82340  0.46280  0.77950  Biso   1.000  C
  C167     1.0000 0.77170  0.49890  0.74570  Biso   1.000  C
  H137     1.0000 0.75410  0.54170  0.76360  Biso   1.000  H
  C168     1.0000 0.74490  0.47350  0.68550  Biso   1.000  C
  H138     1.0000 0.70790  0.49810  0.66360  Biso   1.000  H
  C169     1.0000 0.77190  0.41270  0.65760  Biso   1.000  C
  C170     1.0000 0.82450  0.37800  0.69090  Biso   1.000  C
  H139     1.0000 0.84360  0.33630  0.67190  Biso   1.000  H
  C171     1.0000 0.85060  0.40190  0.75120  Biso   1.000  C
  H140     1.0000 0.88700  0.37670  0.77330  Biso   1.000  H
  C172     1.0000 0.74170  0.38360  0.59390  Biso   1.000  C
  O29      1.0000 0.68760  0.41350  0.57032  Biso   1.000  O
  O30      1.0000 0.77135  0.32960  0.57030  Biso   1.000  O
  C173     1.0000 0.55120  0.49440  0.55930  Biso   1.000  C
  H141     1.0000 0.47080  0.39140  0.45990  Biso   1.000  H
  H142     1.0000 0.54520  0.46410  0.59920  Biso   1.000  H
  H143     1.0000 0.59810  0.51700  0.56230  Biso   1.000  H
  N33      1.0000 0.13730  0.45820  0.94047  Biso   1.000  N
  N34      1.0000 0.07460  0.49260  0.92942  Biso   1.000  N
  C174     1.0000 0.08260  0.52570  0.87190  Biso   1.000  C
  H144     1.0000 0.04790  0.55490  0.85180  Biso   1.000  H
  C175     1.0000 0.14980  0.51210  0.84440  Biso   1.000  C
  C176     1.0000 0.18220  0.46940  0.88970  Biso   1.000  C
  H145     1.0000 0.22850  0.45090  0.88610  Biso   1.000  H
  C177     1.0000 0.17660  0.53720  0.77950  Biso   1.000  C
  C178     1.0000 0.22830  0.50110  0.74570  Biso   1.000  C
  H146     1.0000 0.24590  0.45830  0.76360  Biso   1.000  H
  C179     1.0000 0.25510  0.52650  0.68550  Biso   1.000  C
  H147     1.0000 0.29210  0.50190  0.66360  Biso   1.000  H
  C180     1.0000 0.22810  0.58730  0.65760  Biso   1.000  C
  C181     1.0000 0.17550  0.62200  0.69090  Biso   1.000  C
  H148     1.0000 0.15640  0.66370  0.67190  Biso   1.000  H
  C182     1.0000 0.14940  0.59810  0.75120  Biso   1.000  C
  H149     1.0000 0.11300  0.62330  0.77330  Biso   1.000  H
  C183     1.0000 0.25830  0.61640  0.59390  Biso   1.000  C
  O31      1.0000 0.31240  0.58650  0.57032  Biso   1.000  O
  O32      1.0000 0.22865  0.67040  0.57030  Biso   1.000  O
  C184     1.0000 0.44880  0.50560  0.55930  Biso   1.000  C
  H150     1.0000 0.52920  0.60860  0.45990  Biso   1.000  H
  H151     1.0000 0.45480  0.53590  0.59920  Biso   1.000  H
  H152     1.0000 0.40190  0.48300  0.56230  Biso   1.000  H
  Cu7      1.0000 0.37117  0.62883  0.50000  Biso   1.000  Cu
  Cu8      1.0000 0.27258  0.72742  0.50000  Biso   1.000  Cu
  N35      1.0000 0.45160  0.54840  0.50000  Biso   1.000  N
  Cu9      1.0000 0.62883  0.37117  0.50000  Biso   1.000  Cu
  Cu10     1.0000 0.72742  0.27258  0.50000  Biso   1.000  Cu
  N36      1.0000 0.54840  0.45160  0.50000  Biso   1.000  N
  C185     1.0000 0.58510  0.85500  0.00000  Biso   1.000  C
  H153     1.0000 0.60770  0.80800  0.00000  Biso   1.000  H
  H154     1.0000 0.62260  0.89110  0.00000  Biso   1.000  H
  C186     1.0000 0.41490  0.14500  0.00000  Biso   1.000  C
  H155     1.0000 0.39230  0.19200  0.00000  Biso   1.000  H
  H156     1.0000 0.37740  0.10890  0.00000  Biso   1.000  H
  C187     1.0000 0.14500  0.41490  0.00000  Biso   1.000  C
  H157     1.0000 0.19200  0.39230  0.00000  Biso   1.000  H
  H158     1.0000 0.10890  0.37740  0.00000  Biso   1.000  H
  C188     1.0000 0.85500  0.58510  0.00000  Biso   1.000  C
  H159     1.0000 0.80800  0.60770  0.00000  Biso   1.000  H
  H160     1.0000 0.89110  0.62260  0.00000  Biso   1.000  H
  Cu11     1.0000 0.50000  0.00000  0.00000  Biso   1.000  Cu
  Cu12     1.0000 0.00000  0.50000  0.00000  Biso   1.000  Cu
  C189     1.0000 0.42150  0.47670  0.50000  Biso   1.000  C
  C190     1.0000 0.57850  0.52330  0.50000  Biso   1.000  C
  C191     1.0000 0.52330  0.57850  0.50000  Biso   1.000  C
  C192     1.0000 0.47670  0.42150  0.50000  Biso   1.000  C
