data_image0
_cell_length_a       19.5758
_cell_length_b       19.3887
_cell_length_c       27.3461
_cell_angle_alpha    90
_cell_angle_beta     108.49
_cell_angle_gamma    90

_symmetry_space_group_name_H-M    "P 1"
_symmetry_int_tables_number       1

loop_
  _symmetry_equiv_pos_as_xyz
  'x, y, z'

loop_
  _atom_site_label
  _atom_site_occupancy
  _atom_site_fract_x
  _atom_site_fract_y
  _atom_site_fract_z
  _atom_site_thermal_displace_type
  _atom_site_B_iso_or_equiv
  _atom_site_type_symbol
  Co1      1.0000 0.84814  0.97994  0.08221  Biso   1.000  Co
  S1       1.0000 0.02630  0.15370  0.13330  Biso   1.000  S
  S2       1.0000 0.71070  0.77740  0.06150  Biso   1.000  S
  S3       1.0000 0.64260  0.83710  0.06630  Biso   1.000  S
  N1       1.0000 0.77410  0.06800  0.07852  Biso   1.000  N
  N2       1.0000 0.42200  0.39270  0.08598  Biso   1.000  N
  N3       1.0000 0.85110  0.03420  0.66321  Biso   1.000  N
  N4       1.0000 0.84250  0.00270  0.00266  Biso   1.000  N
  N5       1.0000 0.93520  0.04290  0.10540  Biso   1.000  N
  N6       1.0000 0.76260  0.91250  0.05730  Biso   1.000  N
  C1       1.0000 0.78880  0.13220  0.07050  Biso   1.000  C
  H1       1.0000 0.83410  0.14020  0.06740  Biso   1.000  H
  C2       1.0000 0.74610  0.18810  0.06620  Biso   1.000  C
  H2       1.0000 0.76200  0.23160  0.06040  Biso   1.000  H
  C3       1.0000 0.67810  0.17910  0.07060  Biso   1.000  C
  C4       1.0000 0.66010  0.11140  0.07780  Biso   1.000  C
  H3       1.0000 0.61480  0.10150  0.08020  Biso   1.000  H
  C5       1.0000 0.70850  0.05910  0.08160  Biso   1.000  C
  H4       1.0000 0.69440  0.01460  0.08660  Biso   1.000  H
  C6       1.0000 0.62530  0.23790  0.06270  Biso   1.000  C
  C7       1.0000 0.62900  0.29210  0.02540  Biso   1.000  C
  H5       1.0000 0.60060  0.33110  0.02880  Biso   1.000  H
  H6       1.0000 0.61060  0.27420  0.99100  Biso   1.000  H
  H7       1.0000 0.67820  0.30610  0.03220  Biso   1.000  H
  C8       1.0000 0.47950  0.38310  0.12720  Biso   1.000  C
  H8       1.0000 0.48500  0.41150  0.15560  Biso   1.000  H
  C9       1.0000 0.53150  0.33380  0.13050  Biso   1.000  C
  H9       1.0000 0.56990  0.32840  0.16070  Biso   1.000  H
  C10      1.0000 0.52540  0.29230  0.08790  Biso   1.000  C
  C11      1.0000 0.46700  0.30440  0.04500  Biso   1.000  C
  H10      1.0000 0.46100  0.27780  0.01560  Biso   1.000  H
  C12      1.0000 0.41870  0.35350  0.04430  Biso   1.000  C
  H11      1.0000 0.38120  0.36110  0.01390  Biso   1.000  H
  C13      1.0000 0.58140  0.23950  0.09080  Biso   1.000  C
  H12      1.0000 0.58620  0.20430  0.11470  Biso   1.000  H
  C14      1.0000 0.89910  0.00560  0.98730  Biso   1.000  C
  H13      1.0000 0.94420  0.99900  0.01150  Biso   1.000  H
  C15      1.0000 0.89490  0.01800  0.93630  Biso   1.000  C
  H14      1.0000 0.93690  0.01830  0.92730  Biso   1.000  H
  C16      1.0000 0.83030  0.02980  0.89930  Biso   1.000  C
  C17      1.0000 0.77280  0.02570  0.91530  Biso   1.000  C
  H15      1.0000 0.72720  0.03080  0.89140  Biso   1.000  H
  C18      1.0000 0.77870  0.01410  0.96620  Biso   1.000  C
  H16      1.0000 0.73710  0.01410  0.97570  Biso   1.000  H
  C19      1.0000 0.81720  0.05320  0.84540  Biso   1.000  C
  C20      1.0000 0.76460  0.11670  0.81900  Biso   1.000  C
  H17      1.0000 0.77860  0.13470  0.79090  Biso   1.000  H
  H18      1.0000 0.76830  0.15230  0.84410  Biso   1.000  H
  H19      1.0000 0.71580  0.10060  0.80630  Biso   1.000  H
  C21      1.0000 0.88350  0.98970  0.69960  Biso   1.000  C
  H20      1.0000 0.91100  0.95460  0.69210  Biso   1.000  H
  C22      1.0000 0.87760  0.99360  0.74930  Biso   1.000  C
  H21      1.0000 0.90160  0.96060  0.77330  Biso   1.000  H
  C23      1.0000 0.84050  0.04080  0.76410  Biso   1.000  C
  C24      1.0000 0.81440  0.08300  0.67630  Biso   1.000  C
  H22      1.0000 0.79070  0.11570  0.65190  Biso   1.000  H
  C25      1.0000 0.80970  0.08740  0.72660  Biso   1.000  C
  H23      1.0000 0.78420  0.12390  0.73450  Biso   1.000  H
  C26      1.0000 0.83690  0.03790  0.81780  Biso   1.000  C
  H24      1.0000 0.87070  0.00450  0.83380  Biso   1.000  H
  C27      1.0000 0.97300  0.08880  0.11630  Biso   1.000  C
  C28      1.0000 0.71900  0.87040  0.05810  Biso   1.000  C
  Co2      1.0000 0.34814  0.47994  0.08221  Biso   1.000  Co
  S4       1.0000 0.52630  0.65370  0.13330  Biso   1.000  S
  S5       1.0000 0.21070  0.27740  0.06150  Biso   1.000  S
  S6       1.0000 0.14260  0.33710  0.06630  Biso   1.000  S
  N7       1.0000 0.27410  0.56800  0.07852  Biso   1.000  N
  N8       1.0000 0.92200  0.89270  0.08598  Biso   1.000  N
  N9       1.0000 0.35110  0.53420  0.66321  Biso   1.000  N
  N10      1.0000 0.34250  0.50270  0.00266  Biso   1.000  N
  N11      1.0000 0.43520  0.54290  0.10540  Biso   1.000  N
  N12      1.0000 0.26260  0.41250  0.05730  Biso   1.000  N
  C29      1.0000 0.28880  0.63220  0.07050  Biso   1.000  C
  H25      1.0000 0.33410  0.64020  0.06740  Biso   1.000  H
  C30      1.0000 0.24610  0.68810  0.06620  Biso   1.000  C
  H26      1.0000 0.26200  0.73160  0.06040  Biso   1.000  H
  C31      1.0000 0.17810  0.67910  0.07060  Biso   1.000  C
  C32      1.0000 0.16010  0.61140  0.07780  Biso   1.000  C
  H27      1.0000 0.11480  0.60150  0.08020  Biso   1.000  H
  C33      1.0000 0.20850  0.55910  0.08160  Biso   1.000  C
  H28      1.0000 0.19440  0.51460  0.08660  Biso   1.000  H
  C34      1.0000 0.12530  0.73790  0.06270  Biso   1.000  C
  C35      1.0000 0.12900  0.79210  0.02540  Biso   1.000  C
  H29      1.0000 0.10060  0.83110  0.02880  Biso   1.000  H
  H30      1.0000 0.11060  0.77420  0.99100  Biso   1.000  H
  H31      1.0000 0.17820  0.80610  0.03220  Biso   1.000  H
  C36      1.0000 0.97950  0.88310  0.12720  Biso   1.000  C
  H32      1.0000 0.98500  0.91150  0.15560  Biso   1.000  H
  C37      1.0000 0.03150  0.83380  0.13050  Biso   1.000  C
  H33      1.0000 0.06990  0.82840  0.16070  Biso   1.000  H
  C38      1.0000 0.02540  0.79230  0.08790  Biso   1.000  C
  C39      1.0000 0.96700  0.80440  0.04500  Biso   1.000  C
  H34      1.0000 0.96100  0.77780  0.01560  Biso   1.000  H
  C40      1.0000 0.91870  0.85350  0.04430  Biso   1.000  C
  H35      1.0000 0.88120  0.86110  0.01390  Biso   1.000  H
  C41      1.0000 0.08140  0.73950  0.09080  Biso   1.000  C
  H36      1.0000 0.08620  0.70430  0.11470  Biso   1.000  H
  C42      1.0000 0.39910  0.50560  0.98730  Biso   1.000  C
  H37      1.0000 0.44420  0.49900  0.01150  Biso   1.000  H
  C43      1.0000 0.39490  0.51800  0.93630  Biso   1.000  C
  H38      1.0000 0.43690  0.51830  0.92730  Biso   1.000  H
  C44      1.0000 0.33030  0.52980  0.89930  Biso   1.000  C
  C45      1.0000 0.27280  0.52570  0.91530  Biso   1.000  C
  H39      1.0000 0.22720  0.53080  0.89140  Biso   1.000  H
  C46      1.0000 0.27870  0.51410  0.96620  Biso   1.000  C
  H40      1.0000 0.23710  0.51410  0.97570  Biso   1.000  H
  C47      1.0000 0.31720  0.55320  0.84540  Biso   1.000  C
  C48      1.0000 0.26460  0.61670  0.81900  Biso   1.000  C
  H41      1.0000 0.27860  0.63470  0.79090  Biso   1.000  H
  H42      1.0000 0.26830  0.65230  0.84410  Biso   1.000  H
  H43      1.0000 0.21580  0.60060  0.80630  Biso   1.000  H
  C49      1.0000 0.38350  0.48970  0.69960  Biso   1.000  C
  H44      1.0000 0.41100  0.45460  0.69210  Biso   1.000  H
  C50      1.0000 0.37760  0.49360  0.74930  Biso   1.000  C
  H45      1.0000 0.40160  0.46060  0.77330  Biso   1.000  H
  C51      1.0000 0.34050  0.54080  0.76410  Biso   1.000  C
  C52      1.0000 0.31440  0.58300  0.67630  Biso   1.000  C
  H46      1.0000 0.29070  0.61570  0.65190  Biso   1.000  H
  C53      1.0000 0.30970  0.58740  0.72660  Biso   1.000  C
  H47      1.0000 0.28420  0.62390  0.73450  Biso   1.000  H
  C54      1.0000 0.33690  0.53790  0.81780  Biso   1.000  C
  H48      1.0000 0.37070  0.50450  0.83380  Biso   1.000  H
  C55      1.0000 0.47300  0.58880  0.11630  Biso   1.000  C
  C56      1.0000 0.21900  0.37040  0.05810  Biso   1.000  C
  Co3      1.0000 0.84814  0.02006  0.58221  Biso   1.000  Co
  S7       1.0000 0.02630  0.84630  0.63330  Biso   1.000  S
  S8       1.0000 0.71070  0.22260  0.56150  Biso   1.000  S
  S9       1.0000 0.64260  0.16290  0.56630  Biso   1.000  S
  N13      1.0000 0.77410  0.93200  0.57852  Biso   1.000  N
  N14      1.0000 0.42200  0.60730  0.58598  Biso   1.000  N
  N15      1.0000 0.85110  0.96580  0.16321  Biso   1.000  N
  N16      1.0000 0.84250  0.99730  0.50266  Biso   1.000  N
  N17      1.0000 0.93520  0.95710  0.60540  Biso   1.000  N
  N18      1.0000 0.76260  0.08750  0.55730  Biso   1.000  N
  C57      1.0000 0.78880  0.86780  0.57050  Biso   1.000  C
  H49      1.0000 0.83410  0.85980  0.56740  Biso   1.000  H
  C58      1.0000 0.74610  0.81190  0.56620  Biso   1.000  C
  H50      1.0000 0.76200  0.76840  0.56040  Biso   1.000  H
  C59      1.0000 0.67810  0.82090  0.57060  Biso   1.000  C
  C60      1.0000 0.66010  0.88860  0.57780  Biso   1.000  C
  H51      1.0000 0.61480  0.89850  0.58020  Biso   1.000  H
  C61      1.0000 0.70850  0.94090  0.58160  Biso   1.000  C
  H52      1.0000 0.69440  0.98540  0.58660  Biso   1.000  H
  C62      1.0000 0.62530  0.76210  0.56270  Biso   1.000  C
  C63      1.0000 0.62900  0.70790  0.52540  Biso   1.000  C
  H53      1.0000 0.60060  0.66890  0.52880  Biso   1.000  H
  H54      1.0000 0.61060  0.72580  0.49100  Biso   1.000  H
  H55      1.0000 0.67820  0.69390  0.53220  Biso   1.000  H
  C64      1.0000 0.47950  0.61690  0.62720  Biso   1.000  C
  H56      1.0000 0.48500  0.58850  0.65560  Biso   1.000  H
  C65      1.0000 0.53150  0.66620  0.63050  Biso   1.000  C
  H57      1.0000 0.56990  0.67160  0.66070  Biso   1.000  H
  C66      1.0000 0.52540  0.70770  0.58790  Biso   1.000  C
  C67      1.0000 0.46700  0.69560  0.54500  Biso   1.000  C
  H58      1.0000 0.46100  0.72220  0.51560  Biso   1.000  H
  C68      1.0000 0.41870  0.64650  0.54430  Biso   1.000  C
  H59      1.0000 0.38120  0.63890  0.51390  Biso   1.000  H
  C69      1.0000 0.58140  0.76050  0.59080  Biso   1.000  C
  H60      1.0000 0.58620  0.79570  0.61470  Biso   1.000  H
  C70      1.0000 0.89910  0.99440  0.48730  Biso   1.000  C
  H61      1.0000 0.94420  0.00100  0.51150  Biso   1.000  H
  C71      1.0000 0.89490  0.98200  0.43630  Biso   1.000  C
  H62      1.0000 0.93690  0.98170  0.42730  Biso   1.000  H
  C72      1.0000 0.83030  0.97020  0.39930  Biso   1.000  C
  C73      1.0000 0.77280  0.97430  0.41530  Biso   1.000  C
  H63      1.0000 0.72720  0.96920  0.39140  Biso   1.000  H
  C74      1.0000 0.77870  0.98590  0.46620  Biso   1.000  C
  H64      1.0000 0.73710  0.98590  0.47570  Biso   1.000  H
  C75      1.0000 0.81720  0.94680  0.34540  Biso   1.000  C
  C76      1.0000 0.76460  0.88330  0.31900  Biso   1.000  C
  H65      1.0000 0.77860  0.86530  0.29090  Biso   1.000  H
  H66      1.0000 0.76830  0.84770  0.34410  Biso   1.000  H
  H67      1.0000 0.71580  0.89940  0.30630  Biso   1.000  H
  C77      1.0000 0.88350  0.01030  0.19960  Biso   1.000  C
  H68      1.0000 0.91100  0.04540  0.19210  Biso   1.000  H
  C78      1.0000 0.87760  0.00640  0.24930  Biso   1.000  C
  H69      1.0000 0.90160  0.03940  0.27330  Biso   1.000  H
  C79      1.0000 0.84050  0.95920  0.26410  Biso   1.000  C
  C80      1.0000 0.81440  0.91700  0.17630  Biso   1.000  C
  H70      1.0000 0.79070  0.88430  0.15190  Biso   1.000  H
  C81      1.0000 0.80970  0.91260  0.22660  Biso   1.000  C
  H71      1.0000 0.78420  0.87610  0.23450  Biso   1.000  H
  C82      1.0000 0.83690  0.96210  0.31780  Biso   1.000  C
  H72      1.0000 0.87070  0.99550  0.33380  Biso   1.000  H
  C83      1.0000 0.97300  0.91120  0.61630  Biso   1.000  C
  C84      1.0000 0.71900  0.12960  0.55810  Biso   1.000  C
  Co4      1.0000 0.34814  0.52006  0.58221  Biso   1.000  Co
  S10      1.0000 0.52630  0.34630  0.63330  Biso   1.000  S
  S11      1.0000 0.21070  0.72260  0.56150  Biso   1.000  S
  S12      1.0000 0.14260  0.66290  0.56630  Biso   1.000  S
  N19      1.0000 0.27410  0.43200  0.57852  Biso   1.000  N
  N20      1.0000 0.92200  0.10730  0.58598  Biso   1.000  N
  N21      1.0000 0.35110  0.46580  0.16321  Biso   1.000  N
  N22      1.0000 0.34250  0.49730  0.50266  Biso   1.000  N
  N23      1.0000 0.43520  0.45710  0.60540  Biso   1.000  N
  N24      1.0000 0.26260  0.58750  0.55730  Biso   1.000  N
  C85      1.0000 0.28880  0.36780  0.57050  Biso   1.000  C
  H73      1.0000 0.33410  0.35980  0.56740  Biso   1.000  H
  C86      1.0000 0.24610  0.31190  0.56620  Biso   1.000  C
  H74      1.0000 0.26200  0.26840  0.56040  Biso   1.000  H
  C87      1.0000 0.17810  0.32090  0.57060  Biso   1.000  C
  C88      1.0000 0.16010  0.38860  0.57780  Biso   1.000  C
  H75      1.0000 0.11480  0.39850  0.58020  Biso   1.000  H
  C89      1.0000 0.20850  0.44090  0.58160  Biso   1.000  C
  H76      1.0000 0.19440  0.48540  0.58660  Biso   1.000  H
  C90      1.0000 0.12530  0.26210  0.56270  Biso   1.000  C
  C91      1.0000 0.12900  0.20790  0.52540  Biso   1.000  C
  H77      1.0000 0.10060  0.16890  0.52880  Biso   1.000  H
  H78      1.0000 0.11060  0.22580  0.49100  Biso   1.000  H
  H79      1.0000 0.17820  0.19390  0.53220  Biso   1.000  H
  C92      1.0000 0.97950  0.11690  0.62720  Biso   1.000  C
  H80      1.0000 0.98500  0.08850  0.65560  Biso   1.000  H
  C93      1.0000 0.03150  0.16620  0.63050  Biso   1.000  C
  H81      1.0000 0.06990  0.17160  0.66070  Biso   1.000  H
  C94      1.0000 0.02540  0.20770  0.58790  Biso   1.000  C
  C95      1.0000 0.96700  0.19560  0.54500  Biso   1.000  C
  H82      1.0000 0.96100  0.22220  0.51560  Biso   1.000  H
  C96      1.0000 0.91870  0.14650  0.54430  Biso   1.000  C
  H83      1.0000 0.88120  0.13890  0.51390  Biso   1.000  H
  C97      1.0000 0.08140  0.26050  0.59080  Biso   1.000  C
  H84      1.0000 0.08620  0.29570  0.61470  Biso   1.000  H
  C98      1.0000 0.39910  0.49440  0.48730  Biso   1.000  C
  H85      1.0000 0.44420  0.50100  0.51150  Biso   1.000  H
  C99      1.0000 0.39490  0.48200  0.43630  Biso   1.000  C
  H86      1.0000 0.43690  0.48170  0.42730  Biso   1.000  H
  C100     1.0000 0.33030  0.47020  0.39930  Biso   1.000  C
  C101     1.0000 0.27280  0.47430  0.41530  Biso   1.000  C
  H87      1.0000 0.22720  0.46920  0.39140  Biso   1.000  H
  C102     1.0000 0.27870  0.48590  0.46620  Biso   1.000  C
  H88      1.0000 0.23710  0.48590  0.47570  Biso   1.000  H
  C103     1.0000 0.31720  0.44680  0.34540  Biso   1.000  C
  C104     1.0000 0.26460  0.38330  0.31900  Biso   1.000  C
  H89      1.0000 0.27860  0.36530  0.29090  Biso   1.000  H
  H90      1.0000 0.26830  0.34770  0.34410  Biso   1.000  H
  H91      1.0000 0.21580  0.39940  0.30630  Biso   1.000  H
  C105     1.0000 0.38350  0.51030  0.19960  Biso   1.000  C
  H92      1.0000 0.41100  0.54540  0.19210  Biso   1.000  H
  C106     1.0000 0.37760  0.50640  0.24930  Biso   1.000  C
  H93      1.0000 0.40160  0.53940  0.27330  Biso   1.000  H
  C107     1.0000 0.34050  0.45920  0.26410  Biso   1.000  C
  C108     1.0000 0.31440  0.41700  0.17630  Biso   1.000  C
  H94      1.0000 0.29070  0.38430  0.15190  Biso   1.000  H
  C109     1.0000 0.30970  0.41260  0.22660  Biso   1.000  C
  H95      1.0000 0.28420  0.37610  0.23450  Biso   1.000  H
  C110     1.0000 0.33690  0.46210  0.31780  Biso   1.000  C
  H96      1.0000 0.37070  0.49550  0.33380  Biso   1.000  H
  C111     1.0000 0.47300  0.41120  0.61630  Biso   1.000  C
  C112     1.0000 0.21900  0.62960  0.55810  Biso   1.000  C
  Co5      1.0000 0.15186  0.97994  0.41779  Biso   1.000  Co
  S13      1.0000 0.97370  0.15370  0.36670  Biso   1.000  S
  S14      1.0000 0.28930  0.77740  0.43850  Biso   1.000  S
  S15      1.0000 0.35740  0.83710  0.43370  Biso   1.000  S
  N25      1.0000 0.22590  0.06800  0.42148  Biso   1.000  N
  N26      1.0000 0.57800  0.39270  0.41402  Biso   1.000  N
  N27      1.0000 0.14890  0.03420  0.83679  Biso   1.000  N
  N28      1.0000 0.15750  0.00270  0.49734  Biso   1.000  N
  N29      1.0000 0.06480  0.04290  0.39460  Biso   1.000  N
  N30      1.0000 0.23740  0.91250  0.44270  Biso   1.000  N
  C113     1.0000 0.21120  0.13220  0.42950  Biso   1.000  C
  H97      1.0000 0.16590  0.14020  0.43260  Biso   1.000  H
  C114     1.0000 0.25390  0.18810  0.43380  Biso   1.000  C
  H98      1.0000 0.23800  0.23160  0.43960  Biso   1.000  H
  C115     1.0000 0.32190  0.17910  0.42940  Biso   1.000  C
  C116     1.0000 0.33990  0.11140  0.42220  Biso   1.000  C
  H99      1.0000 0.38520  0.10150  0.41980  Biso   1.000  H
  C117     1.0000 0.29150  0.05910  0.41840  Biso   1.000  C
  H100     1.0000 0.30560  0.01460  0.41340  Biso   1.000  H
  C118     1.0000 0.37470  0.23790  0.43730  Biso   1.000  C
  C119     1.0000 0.37100  0.29210  0.47460  Biso   1.000  C
  H101     1.0000 0.39940  0.33110  0.47120  Biso   1.000  H
  H102     1.0000 0.38940  0.27420  0.50900  Biso   1.000  H
  H103     1.0000 0.32180  0.30610  0.46780  Biso   1.000  H
  C120     1.0000 0.52050  0.38310  0.37280  Biso   1.000  C
  H104     1.0000 0.51500  0.41150  0.34440  Biso   1.000  H
  C121     1.0000 0.46850  0.33380  0.36950  Biso   1.000  C
  H105     1.0000 0.43010  0.32840  0.33930  Biso   1.000  H
  C122     1.0000 0.47460  0.29230  0.41210  Biso   1.000  C
  C123     1.0000 0.53300  0.30440  0.45500  Biso   1.000  C
  H106     1.0000 0.53900  0.27780  0.48440  Biso   1.000  H
  C124     1.0000 0.58130  0.35350  0.45570  Biso   1.000  C
  H107     1.0000 0.61880  0.36110  0.48610  Biso   1.000  H
  C125     1.0000 0.41860  0.23950  0.40920  Biso   1.000  C
  H108     1.0000 0.41380  0.20430  0.38530  Biso   1.000  H
  C126     1.0000 0.10090  0.00560  0.51270  Biso   1.000  C
  H109     1.0000 0.05580  0.99900  0.48850  Biso   1.000  H
  C127     1.0000 0.10510  0.01800  0.56370  Biso   1.000  C
  H110     1.0000 0.06310  0.01830  0.57270  Biso   1.000  H
  C128     1.0000 0.16970  0.02980  0.60070  Biso   1.000  C
  C129     1.0000 0.22720  0.02570  0.58470  Biso   1.000  C
  H111     1.0000 0.27280  0.03080  0.60860  Biso   1.000  H
  C130     1.0000 0.22130  0.01410  0.53380  Biso   1.000  C
  H112     1.0000 0.26290  0.01410  0.52430  Biso   1.000  H
  C131     1.0000 0.18280  0.05320  0.65460  Biso   1.000  C
  C132     1.0000 0.23540  0.11670  0.68100  Biso   1.000  C
  H113     1.0000 0.22140  0.13470  0.70910  Biso   1.000  H
  H114     1.0000 0.23170  0.15230  0.65590  Biso   1.000  H
  H115     1.0000 0.28420  0.10060  0.69370  Biso   1.000  H
  C133     1.0000 0.11650  0.98970  0.80040  Biso   1.000  C
  H116     1.0000 0.08900  0.95460  0.80790  Biso   1.000  H
  C134     1.0000 0.12240  0.99360  0.75070  Biso   1.000  C
  H117     1.0000 0.09840  0.96060  0.72670  Biso   1.000  H
  C135     1.0000 0.15950  0.04080  0.73590  Biso   1.000  C
  C136     1.0000 0.18560  0.08300  0.82370  Biso   1.000  C
  H118     1.0000 0.20930  0.11570  0.84810  Biso   1.000  H
  C137     1.0000 0.19030  0.08740  0.77340  Biso   1.000  C
  H119     1.0000 0.21580  0.12390  0.76550  Biso   1.000  H
  C138     1.0000 0.16310  0.03790  0.68220  Biso   1.000  C
  H120     1.0000 0.12930  0.00450  0.66620  Biso   1.000  H
  C139     1.0000 0.02700  0.08880  0.38370  Biso   1.000  C
  C140     1.0000 0.28100  0.87040  0.44190  Biso   1.000  C
  Co6      1.0000 0.65186  0.47994  0.41779  Biso   1.000  Co
  S16      1.0000 0.47370  0.65370  0.36670  Biso   1.000  S
  S17      1.0000 0.78930  0.27740  0.43850  Biso   1.000  S
  S18      1.0000 0.85740  0.33710  0.43370  Biso   1.000  S
  N31      1.0000 0.72590  0.56800  0.42148  Biso   1.000  N
  N32      1.0000 0.07800  0.89270  0.41402  Biso   1.000  N
  N33      1.0000 0.64890  0.53420  0.83679  Biso   1.000  N
  N34      1.0000 0.65750  0.50270  0.49734  Biso   1.000  N
  N35      1.0000 0.56480  0.54290  0.39460  Biso   1.000  N
  N36      1.0000 0.73740  0.41250  0.44270  Biso   1.000  N
  C141     1.0000 0.71120  0.63220  0.42950  Biso   1.000  C
  H121     1.0000 0.66590  0.64020  0.43260  Biso   1.000  H
  C142     1.0000 0.75390  0.68810  0.43380  Biso   1.000  C
  H122     1.0000 0.73800  0.73160  0.43960  Biso   1.000  H
  C143     1.0000 0.82190  0.67910  0.42940  Biso   1.000  C
  C144     1.0000 0.83990  0.61140  0.42220  Biso   1.000  C
  H123     1.0000 0.88520  0.60150  0.41980  Biso   1.000  H
  C145     1.0000 0.79150  0.55910  0.41840  Biso   1.000  C
  H124     1.0000 0.80560  0.51460  0.41340  Biso   1.000  H
  C146     1.0000 0.87470  0.73790  0.43730  Biso   1.000  C
  C147     1.0000 0.87100  0.79210  0.47460  Biso   1.000  C
  H125     1.0000 0.89940  0.83110  0.47120  Biso   1.000  H
  H126     1.0000 0.88940  0.77420  0.50900  Biso   1.000  H
  H127     1.0000 0.82180  0.80610  0.46780  Biso   1.000  H
  C148     1.0000 0.02050  0.88310  0.37280  Biso   1.000  C
  H128     1.0000 0.01500  0.91150  0.34440  Biso   1.000  H
  C149     1.0000 0.96850  0.83380  0.36950  Biso   1.000  C
  H129     1.0000 0.93010  0.82840  0.33930  Biso   1.000  H
  C150     1.0000 0.97460  0.79230  0.41210  Biso   1.000  C
  C151     1.0000 0.03300  0.80440  0.45500  Biso   1.000  C
  H130     1.0000 0.03900  0.77780  0.48440  Biso   1.000  H
  C152     1.0000 0.08130  0.85350  0.45570  Biso   1.000  C
  H131     1.0000 0.11880  0.86110  0.48610  Biso   1.000  H
  C153     1.0000 0.91860  0.73950  0.40920  Biso   1.000  C
  H132     1.0000 0.91380  0.70430  0.38530  Biso   1.000  H
  C154     1.0000 0.60090  0.50560  0.51270  Biso   1.000  C
  H133     1.0000 0.55580  0.49900  0.48850  Biso   1.000  H
  C155     1.0000 0.60510  0.51800  0.56370  Biso   1.000  C
  H134     1.0000 0.56310  0.51830  0.57270  Biso   1.000  H
  C156     1.0000 0.66970  0.52980  0.60070  Biso   1.000  C
  C157     1.0000 0.72720  0.52570  0.58470  Biso   1.000  C
  H135     1.0000 0.77280  0.53080  0.60860  Biso   1.000  H
  C158     1.0000 0.72130  0.51410  0.53380  Biso   1.000  C
  H136     1.0000 0.76290  0.51410  0.52430  Biso   1.000  H
  C159     1.0000 0.68280  0.55320  0.65460  Biso   1.000  C
  C160     1.0000 0.73540  0.61670  0.68100  Biso   1.000  C
  H137     1.0000 0.72140  0.63470  0.70910  Biso   1.000  H
  H138     1.0000 0.73170  0.65230  0.65590  Biso   1.000  H
  H139     1.0000 0.78420  0.60060  0.69370  Biso   1.000  H
  C161     1.0000 0.61650  0.48970  0.80040  Biso   1.000  C
  H140     1.0000 0.58900  0.45460  0.80790  Biso   1.000  H
  C162     1.0000 0.62240  0.49360  0.75070  Biso   1.000  C
  H141     1.0000 0.59840  0.46060  0.72670  Biso   1.000  H
  C163     1.0000 0.65950  0.54080  0.73590  Biso   1.000  C
  C164     1.0000 0.68560  0.58300  0.82370  Biso   1.000  C
  H142     1.0000 0.70930  0.61570  0.84810  Biso   1.000  H
  C165     1.0000 0.69030  0.58740  0.77340  Biso   1.000  C
  H143     1.0000 0.71580  0.62390  0.76550  Biso   1.000  H
  C166     1.0000 0.66310  0.53790  0.68220  Biso   1.000  C
  H144     1.0000 0.62930  0.50450  0.66620  Biso   1.000  H
  C167     1.0000 0.52700  0.58880  0.38370  Biso   1.000  C
  C168     1.0000 0.78100  0.37040  0.44190  Biso   1.000  C
  Co7      1.0000 0.15186  0.02006  0.91779  Biso   1.000  Co
  S19      1.0000 0.97370  0.84630  0.86670  Biso   1.000  S
  S20      1.0000 0.28930  0.22260  0.93850  Biso   1.000  S
  S21      1.0000 0.35740  0.16290  0.93370  Biso   1.000  S
  N37      1.0000 0.22590  0.93200  0.92148  Biso   1.000  N
  N38      1.0000 0.57800  0.60730  0.91402  Biso   1.000  N
  N39      1.0000 0.14890  0.96580  0.33679  Biso   1.000  N
  N40      1.0000 0.15750  0.99730  0.99734  Biso   1.000  N
  N41      1.0000 0.06480  0.95710  0.89460  Biso   1.000  N
  N42      1.0000 0.23740  0.08750  0.94270  Biso   1.000  N
  C169     1.0000 0.21120  0.86780  0.92950  Biso   1.000  C
  H145     1.0000 0.16590  0.85980  0.93260  Biso   1.000  H
  C170     1.0000 0.25390  0.81190  0.93380  Biso   1.000  C
  H146     1.0000 0.23800  0.76840  0.93960  Biso   1.000  H
  C171     1.0000 0.32190  0.82090  0.92940  Biso   1.000  C
  C172     1.0000 0.33990  0.88860  0.92220  Biso   1.000  C
  H147     1.0000 0.38520  0.89850  0.91980  Biso   1.000  H
  C173     1.0000 0.29150  0.94090  0.91840  Biso   1.000  C
  H148     1.0000 0.30560  0.98540  0.91340  Biso   1.000  H
  C174     1.0000 0.37470  0.76210  0.93730  Biso   1.000  C
  C175     1.0000 0.37100  0.70790  0.97460  Biso   1.000  C
  H149     1.0000 0.39940  0.66890  0.97120  Biso   1.000  H
  H150     1.0000 0.38940  0.72580  0.00900  Biso   1.000  H
  H151     1.0000 0.32180  0.69390  0.96780  Biso   1.000  H
  C176     1.0000 0.52050  0.61690  0.87280  Biso   1.000  C
  H152     1.0000 0.51500  0.58850  0.84440  Biso   1.000  H
  C177     1.0000 0.46850  0.66620  0.86950  Biso   1.000  C
  H153     1.0000 0.43010  0.67160  0.83930  Biso   1.000  H
  C178     1.0000 0.47460  0.70770  0.91210  Biso   1.000  C
  C179     1.0000 0.53300  0.69560  0.95500  Biso   1.000  C
  H154     1.0000 0.53900  0.72220  0.98440  Biso   1.000  H
  C180     1.0000 0.58130  0.64650  0.95570  Biso   1.000  C
  H155     1.0000 0.61880  0.63890  0.98610  Biso   1.000  H
  C181     1.0000 0.41860  0.76050  0.90920  Biso   1.000  C
  H156     1.0000 0.41380  0.79570  0.88530  Biso   1.000  H
  C182     1.0000 0.10090  0.99440  0.01270  Biso   1.000  C
  H157     1.0000 0.05580  0.00100  0.98850  Biso   1.000  H
  C183     1.0000 0.10510  0.98200  0.06370  Biso   1.000  C
  H158     1.0000 0.06310  0.98170  0.07270  Biso   1.000  H
  C184     1.0000 0.16970  0.97020  0.10070  Biso   1.000  C
  C185     1.0000 0.22720  0.97430  0.08470  Biso   1.000  C
  H159     1.0000 0.27280  0.96920  0.10860  Biso   1.000  H
  C186     1.0000 0.22130  0.98590  0.03380  Biso   1.000  C
  H160     1.0000 0.26290  0.98590  0.02430  Biso   1.000  H
  C187     1.0000 0.18280  0.94680  0.15460  Biso   1.000  C
  C188     1.0000 0.23540  0.88330  0.18100  Biso   1.000  C
  H161     1.0000 0.22140  0.86530  0.20910  Biso   1.000  H
  H162     1.0000 0.23170  0.84770  0.15590  Biso   1.000  H
  H163     1.0000 0.28420  0.89940  0.19370  Biso   1.000  H
  C189     1.0000 0.11650  0.01030  0.30040  Biso   1.000  C
  H164     1.0000 0.08900  0.04540  0.30790  Biso   1.000  H
  C190     1.0000 0.12240  0.00640  0.25070  Biso   1.000  C
  H165     1.0000 0.09840  0.03940  0.22670  Biso   1.000  H
  C191     1.0000 0.15950  0.95920  0.23590  Biso   1.000  C
  C192     1.0000 0.18560  0.91700  0.32370  Biso   1.000  C
  H166     1.0000 0.20930  0.88430  0.34810  Biso   1.000  H
  C193     1.0000 0.19030  0.91260  0.27340  Biso   1.000  C
  H167     1.0000 0.21580  0.87610  0.26550  Biso   1.000  H
  C194     1.0000 0.16310  0.96210  0.18220  Biso   1.000  C
  H168     1.0000 0.12930  0.99550  0.16620  Biso   1.000  H
  C195     1.0000 0.02700  0.91120  0.88370  Biso   1.000  C
  C196     1.0000 0.28100  0.12960  0.94190  Biso   1.000  C
  Co8      1.0000 0.65186  0.52006  0.91779  Biso   1.000  Co
  S22      1.0000 0.47370  0.34630  0.86670  Biso   1.000  S
  S23      1.0000 0.78930  0.72260  0.93850  Biso   1.000  S
  S24      1.0000 0.85740  0.66290  0.93370  Biso   1.000  S
  N43      1.0000 0.72590  0.43200  0.92148  Biso   1.000  N
  N44      1.0000 0.07800  0.10730  0.91402  Biso   1.000  N
  N45      1.0000 0.64890  0.46580  0.33679  Biso   1.000  N
  N46      1.0000 0.65750  0.49730  0.99734  Biso   1.000  N
  N47      1.0000 0.56480  0.45710  0.89460  Biso   1.000  N
  N48      1.0000 0.73740  0.58750  0.94270  Biso   1.000  N
  C197     1.0000 0.71120  0.36780  0.92950  Biso   1.000  C
  H169     1.0000 0.66590  0.35980  0.93260  Biso   1.000  H
  C198     1.0000 0.75390  0.31190  0.93380  Biso   1.000  C
  H170     1.0000 0.73800  0.26840  0.93960  Biso   1.000  H
  C199     1.0000 0.82190  0.32090  0.92940  Biso   1.000  C
  C200     1.0000 0.83990  0.38860  0.92220  Biso   1.000  C
  H171     1.0000 0.88520  0.39850  0.91980  Biso   1.000  H
  C201     1.0000 0.79150  0.44090  0.91840  Biso   1.000  C
  H172     1.0000 0.80560  0.48540  0.91340  Biso   1.000  H
  C202     1.0000 0.87470  0.26210  0.93730  Biso   1.000  C
  C203     1.0000 0.87100  0.20790  0.97460  Biso   1.000  C
  H173     1.0000 0.89940  0.16890  0.97120  Biso   1.000  H
  H174     1.0000 0.88940  0.22580  0.00900  Biso   1.000  H
  H175     1.0000 0.82180  0.19390  0.96780  Biso   1.000  H
  C204     1.0000 0.02050  0.11690  0.87280  Biso   1.000  C
  H176     1.0000 0.01500  0.08850  0.84440  Biso   1.000  H
  C205     1.0000 0.96850  0.16620  0.86950  Biso   1.000  C
  H177     1.0000 0.93010  0.17160  0.83930  Biso   1.000  H
  C206     1.0000 0.97460  0.20770  0.91210  Biso   1.000  C
  C207     1.0000 0.03300  0.19560  0.95500  Biso   1.000  C
  H178     1.0000 0.03900  0.22220  0.98440  Biso   1.000  H
  C208     1.0000 0.08130  0.14650  0.95570  Biso   1.000  C
  H179     1.0000 0.11880  0.13890  0.98610  Biso   1.000  H
  C209     1.0000 0.91860  0.26050  0.90920  Biso   1.000  C
  H180     1.0000 0.91380  0.29570  0.88530  Biso   1.000  H
  C210     1.0000 0.60090  0.49440  0.01270  Biso   1.000  C
  H181     1.0000 0.55580  0.50100  0.98850  Biso   1.000  H
  C211     1.0000 0.60510  0.48200  0.06370  Biso   1.000  C
  H182     1.0000 0.56310  0.48170  0.07270  Biso   1.000  H
  C212     1.0000 0.66970  0.47020  0.10070  Biso   1.000  C
  C213     1.0000 0.72720  0.47430  0.08470  Biso   1.000  C
  H183     1.0000 0.77280  0.46920  0.10860  Biso   1.000  H
  C214     1.0000 0.72130  0.48590  0.03380  Biso   1.000  C
  H184     1.0000 0.76290  0.48590  0.02430  Biso   1.000  H
  C215     1.0000 0.68280  0.44680  0.15460  Biso   1.000  C
  C216     1.0000 0.73540  0.38330  0.18100  Biso   1.000  C
  H185     1.0000 0.72140  0.36530  0.20910  Biso   1.000  H
  H186     1.0000 0.73170  0.34770  0.15590  Biso   1.000  H
  H187     1.0000 0.78420  0.39940  0.19370  Biso   1.000  H
  C217     1.0000 0.61650  0.51030  0.30040  Biso   1.000  C
  H188     1.0000 0.58900  0.54540  0.30790  Biso   1.000  H
  C218     1.0000 0.62240  0.50640  0.25070  Biso   1.000  C
  H189     1.0000 0.59840  0.53940  0.22670  Biso   1.000  H
  C219     1.0000 0.65950  0.45920  0.23590  Biso   1.000  C
  C220     1.0000 0.68560  0.41700  0.32370  Biso   1.000  C
  H190     1.0000 0.70930  0.38430  0.34810  Biso   1.000  H
  C221     1.0000 0.69030  0.41260  0.27340  Biso   1.000  C
  H191     1.0000 0.71580  0.37610  0.26550  Biso   1.000  H
  C222     1.0000 0.66310  0.46210  0.18220  Biso   1.000  C
  H192     1.0000 0.62930  0.49550  0.16620  Biso   1.000  H
  C223     1.0000 0.52700  0.41120  0.88370  Biso   1.000  C
  C224     1.0000 0.78100  0.62960  0.94190  Biso   1.000  C
