data_image0
_cell_length_a       25.8066
_cell_length_b       25.8066
_cell_length_c       25.8066
_cell_angle_alpha    90
_cell_angle_beta     90
_cell_angle_gamma    90

_symmetry_space_group_name_H-M    "P 1"
_symmetry_int_tables_number       1

loop_
  _symmetry_equiv_pos_as_xyz
  'x, y, z'

loop_
  _atom_site_label
  _atom_site_occupancy
  _atom_site_fract_x
  _atom_site_fract_y
  _atom_site_fract_z
  _atom_site_thermal_displace_type
  _atom_site_B_iso_or_equiv
  _atom_site_type_symbol
  In1      1.0000 0.20020  0.09634  0.11055  Biso   1.000  In
  O1       1.0000 0.23730  0.09100  0.17630  Biso   1.000  O
  O2       1.0000 0.22870  0.02610  0.41700  Biso   1.000  O
  O3       1.0000 0.16690  0.10610  0.02640  Biso   1.000  O
  C1       1.0000 0.24530  0.05750  0.31630  Biso   1.000  C
  C2       1.0000 0.28740  0.04130  0.34890  Biso   1.000  C
  C3       1.0000 0.27060  0.03170  0.40170  Biso   1.000  C
  O4       1.0000 0.30150  0.01960  0.43740  Biso   1.000  O
  In2      1.0000 0.70020  0.59634  0.61055  Biso   1.000  In
  O5       1.0000 0.73730  0.59100  0.67630  Biso   1.000  O
  O6       1.0000 0.72870  0.52610  0.91700  Biso   1.000  O
  O7       1.0000 0.66690  0.60610  0.52640  Biso   1.000  O
  C4       1.0000 0.74530  0.55750  0.81630  Biso   1.000  C
  C5       1.0000 0.78740  0.54130  0.84890  Biso   1.000  C
  C6       1.0000 0.77060  0.53170  0.90170  Biso   1.000  C
  O8       1.0000 0.80150  0.51960  0.93740  Biso   1.000  O
  In3      1.0000 0.79980  0.90366  0.11055  Biso   1.000  In
  O9       1.0000 0.76270  0.90900  0.17630  Biso   1.000  O
  O10      1.0000 0.77130  0.97390  0.41700  Biso   1.000  O
  O11      1.0000 0.83310  0.89390  0.02640  Biso   1.000  O
  C7       1.0000 0.75470  0.94250  0.31630  Biso   1.000  C
  C8       1.0000 0.71260  0.95870  0.34890  Biso   1.000  C
  C9       1.0000 0.72940  0.96830  0.40170  Biso   1.000  C
  O12      1.0000 0.69850  0.98040  0.43740  Biso   1.000  O
  In4      1.0000 0.29980  0.40366  0.61055  Biso   1.000  In
  O13      1.0000 0.26270  0.40900  0.67630  Biso   1.000  O
  O14      1.0000 0.27130  0.47390  0.91700  Biso   1.000  O
  O15      1.0000 0.33310  0.39390  0.52640  Biso   1.000  O
  C10      1.0000 0.25470  0.44250  0.81630  Biso   1.000  C
  C11      1.0000 0.21260  0.45870  0.84890  Biso   1.000  C
  C12      1.0000 0.22940  0.46830  0.90170  Biso   1.000  C
  O16      1.0000 0.19850  0.48040  0.93740  Biso   1.000  O
  In5      1.0000 0.79980  0.09634  0.88945  Biso   1.000  In
  O17      1.0000 0.76270  0.09100  0.82370  Biso   1.000  O
  O18      1.0000 0.77130  0.02610  0.58300  Biso   1.000  O
  O19      1.0000 0.83310  0.10610  0.97360  Biso   1.000  O
  C13      1.0000 0.75470  0.05750  0.68370  Biso   1.000  C
  C14      1.0000 0.71260  0.04130  0.65110  Biso   1.000  C
  C15      1.0000 0.72940  0.03170  0.59830  Biso   1.000  C
  O20      1.0000 0.69850  0.01960  0.56260  Biso   1.000  O
  In6      1.0000 0.29980  0.59634  0.38945  Biso   1.000  In
  O21      1.0000 0.26270  0.59100  0.32370  Biso   1.000  O
  O22      1.0000 0.27130  0.52610  0.08300  Biso   1.000  O
  O23      1.0000 0.33310  0.60610  0.47360  Biso   1.000  O
  C16      1.0000 0.25470  0.55750  0.18370  Biso   1.000  C
  C17      1.0000 0.21260  0.54130  0.15110  Biso   1.000  C
  C18      1.0000 0.22940  0.53170  0.09830  Biso   1.000  C
  O24      1.0000 0.19850  0.51960  0.06260  Biso   1.000  O
  In7      1.0000 0.20020  0.90366  0.88945  Biso   1.000  In
  O25      1.0000 0.23730  0.90900  0.82370  Biso   1.000  O
  O26      1.0000 0.22870  0.97390  0.58300  Biso   1.000  O
  O27      1.0000 0.16690  0.89390  0.97360  Biso   1.000  O
  C19      1.0000 0.24530  0.94250  0.68370  Biso   1.000  C
  C20      1.0000 0.28740  0.95870  0.65110  Biso   1.000  C
  C21      1.0000 0.27060  0.96830  0.59830  Biso   1.000  C
  O28      1.0000 0.30150  0.98040  0.56260  Biso   1.000  O
  In8      1.0000 0.70020  0.40366  0.38945  Biso   1.000  In
  O29      1.0000 0.73730  0.40900  0.32370  Biso   1.000  O
  O30      1.0000 0.72870  0.47390  0.08300  Biso   1.000  O
  O31      1.0000 0.66690  0.39390  0.47360  Biso   1.000  O
  C22      1.0000 0.74530  0.44250  0.18370  Biso   1.000  C
  C23      1.0000 0.78740  0.45870  0.15110  Biso   1.000  C
  C24      1.0000 0.77060  0.46830  0.09830  Biso   1.000  C
  O32      1.0000 0.80150  0.48040  0.06260  Biso   1.000  O
  In9      1.0000 0.11055  0.20020  0.09634  Biso   1.000  In
  O33      1.0000 0.17630  0.23730  0.09100  Biso   1.000  O
  O34      1.0000 0.41700  0.22870  0.02610  Biso   1.000  O
  O35      1.0000 0.02640  0.16690  0.10610  Biso   1.000  O
  C25      1.0000 0.31630  0.24530  0.05750  Biso   1.000  C
  C26      1.0000 0.34890  0.28740  0.04130  Biso   1.000  C
  C27      1.0000 0.40170  0.27060  0.03170  Biso   1.000  C
  O36      1.0000 0.43740  0.30150  0.01960  Biso   1.000  O
  In10     1.0000 0.61055  0.70020  0.59634  Biso   1.000  In
  O37      1.0000 0.67630  0.73730  0.59100  Biso   1.000  O
  O38      1.0000 0.91700  0.72870  0.52610  Biso   1.000  O
  O39      1.0000 0.52640  0.66690  0.60610  Biso   1.000  O
  C28      1.0000 0.81630  0.74530  0.55750  Biso   1.000  C
  C29      1.0000 0.84890  0.78740  0.54130  Biso   1.000  C
  C30      1.0000 0.90170  0.77060  0.53170  Biso   1.000  C
  O40      1.0000 0.93740  0.80150  0.51960  Biso   1.000  O
  In11     1.0000 0.11055  0.79980  0.90366  Biso   1.000  In
  O41      1.0000 0.17630  0.76270  0.90900  Biso   1.000  O
  O42      1.0000 0.41700  0.77130  0.97390  Biso   1.000  O
  O43      1.0000 0.02640  0.83310  0.89390  Biso   1.000  O
  C31      1.0000 0.31630  0.75470  0.94250  Biso   1.000  C
  C32      1.0000 0.34890  0.71260  0.95870  Biso   1.000  C
  C33      1.0000 0.40170  0.72940  0.96830  Biso   1.000  C
  O44      1.0000 0.43740  0.69850  0.98040  Biso   1.000  O
  In12     1.0000 0.61055  0.29980  0.40366  Biso   1.000  In
  O45      1.0000 0.67630  0.26270  0.40900  Biso   1.000  O
  O46      1.0000 0.91700  0.27130  0.47390  Biso   1.000  O
  O47      1.0000 0.52640  0.33310  0.39390  Biso   1.000  O
  C34      1.0000 0.81630  0.25470  0.44250  Biso   1.000  C
  C35      1.0000 0.84890  0.21260  0.45870  Biso   1.000  C
  C36      1.0000 0.90170  0.22940  0.46830  Biso   1.000  C
  O48      1.0000 0.93740  0.19850  0.48040  Biso   1.000  O
  In13     1.0000 0.88945  0.79980  0.09634  Biso   1.000  In
  O49      1.0000 0.82370  0.76270  0.09100  Biso   1.000  O
  O50      1.0000 0.58300  0.77130  0.02610  Biso   1.000  O
  O51      1.0000 0.97360  0.83310  0.10610  Biso   1.000  O
  C37      1.0000 0.68370  0.75470  0.05750  Biso   1.000  C
  C38      1.0000 0.65110  0.71260  0.04130  Biso   1.000  C
  C39      1.0000 0.59830  0.72940  0.03170  Biso   1.000  C
  O52      1.0000 0.56260  0.69850  0.01960  Biso   1.000  O
  In14     1.0000 0.38945  0.29980  0.59634  Biso   1.000  In
  O53      1.0000 0.32370  0.26270  0.59100  Biso   1.000  O
  O54      1.0000 0.08300  0.27130  0.52610  Biso   1.000  O
  O55      1.0000 0.47360  0.33310  0.60610  Biso   1.000  O
  C40      1.0000 0.18370  0.25470  0.55750  Biso   1.000  C
  C41      1.0000 0.15110  0.21260  0.54130  Biso   1.000  C
  C42      1.0000 0.09830  0.22940  0.53170  Biso   1.000  C
  O56      1.0000 0.06260  0.19850  0.51960  Biso   1.000  O
  In15     1.0000 0.88945  0.20020  0.90366  Biso   1.000  In
  O57      1.0000 0.82370  0.23730  0.90900  Biso   1.000  O
  O58      1.0000 0.58300  0.22870  0.97390  Biso   1.000  O
  O59      1.0000 0.97360  0.16690  0.89390  Biso   1.000  O
  C43      1.0000 0.68370  0.24530  0.94250  Biso   1.000  C
  C44      1.0000 0.65110  0.28740  0.95870  Biso   1.000  C
  C45      1.0000 0.59830  0.27060  0.96830  Biso   1.000  C
  O60      1.0000 0.56260  0.30150  0.98040  Biso   1.000  O
  In16     1.0000 0.38945  0.70020  0.40366  Biso   1.000  In
  O61      1.0000 0.32370  0.73730  0.40900  Biso   1.000  O
  O62      1.0000 0.08300  0.72870  0.47390  Biso   1.000  O
  O63      1.0000 0.47360  0.66690  0.39390  Biso   1.000  O
  C46      1.0000 0.18370  0.74530  0.44250  Biso   1.000  C
  C47      1.0000 0.15110  0.78740  0.45870  Biso   1.000  C
  C48      1.0000 0.09830  0.77060  0.46830  Biso   1.000  C
  O64      1.0000 0.06260  0.80150  0.48040  Biso   1.000  O
  In17     1.0000 0.09634  0.11055  0.20020  Biso   1.000  In
  O65      1.0000 0.09100  0.17630  0.23730  Biso   1.000  O
  O66      1.0000 0.02610  0.41700  0.22870  Biso   1.000  O
  O67      1.0000 0.10610  0.02640  0.16690  Biso   1.000  O
  C49      1.0000 0.05750  0.31630  0.24530  Biso   1.000  C
  C50      1.0000 0.04130  0.34890  0.28740  Biso   1.000  C
  C51      1.0000 0.03170  0.40170  0.27060  Biso   1.000  C
  O68      1.0000 0.01960  0.43740  0.30150  Biso   1.000  O
  In18     1.0000 0.59634  0.61055  0.70020  Biso   1.000  In
  O69      1.0000 0.59100  0.67630  0.73730  Biso   1.000  O
  O70      1.0000 0.52610  0.91700  0.72870  Biso   1.000  O
  O71      1.0000 0.60610  0.52640  0.66690  Biso   1.000  O
  C52      1.0000 0.55750  0.81630  0.74530  Biso   1.000  C
  C53      1.0000 0.54130  0.84890  0.78740  Biso   1.000  C
  C54      1.0000 0.53170  0.90170  0.77060  Biso   1.000  C
  O72      1.0000 0.51960  0.93740  0.80150  Biso   1.000  O
  In19     1.0000 0.90366  0.11055  0.79980  Biso   1.000  In
  O73      1.0000 0.90900  0.17630  0.76270  Biso   1.000  O
  O74      1.0000 0.97390  0.41700  0.77130  Biso   1.000  O
  O75      1.0000 0.89390  0.02640  0.83310  Biso   1.000  O
  C55      1.0000 0.94250  0.31630  0.75470  Biso   1.000  C
  C56      1.0000 0.95870  0.34890  0.71260  Biso   1.000  C
  C57      1.0000 0.96830  0.40170  0.72940  Biso   1.000  C
  O76      1.0000 0.98040  0.43740  0.69850  Biso   1.000  O
  In20     1.0000 0.40366  0.61055  0.29980  Biso   1.000  In
  O77      1.0000 0.40900  0.67630  0.26270  Biso   1.000  O
  O78      1.0000 0.47390  0.91700  0.27130  Biso   1.000  O
  O79      1.0000 0.39390  0.52640  0.33310  Biso   1.000  O
  C58      1.0000 0.44250  0.81630  0.25470  Biso   1.000  C
  C59      1.0000 0.45870  0.84890  0.21260  Biso   1.000  C
  C60      1.0000 0.46830  0.90170  0.22940  Biso   1.000  C
  O80      1.0000 0.48040  0.93740  0.19850  Biso   1.000  O
  In21     1.0000 0.09634  0.88945  0.79980  Biso   1.000  In
  O81      1.0000 0.09100  0.82370  0.76270  Biso   1.000  O
  O82      1.0000 0.02610  0.58300  0.77130  Biso   1.000  O
  O83      1.0000 0.10610  0.97360  0.83310  Biso   1.000  O
  C61      1.0000 0.05750  0.68370  0.75470  Biso   1.000  C
  C62      1.0000 0.04130  0.65110  0.71260  Biso   1.000  C
  C63      1.0000 0.03170  0.59830  0.72940  Biso   1.000  C
  O84      1.0000 0.01960  0.56260  0.69850  Biso   1.000  O
  In22     1.0000 0.59634  0.38945  0.29980  Biso   1.000  In
  O85      1.0000 0.59100  0.32370  0.26270  Biso   1.000  O
  O86      1.0000 0.52610  0.08300  0.27130  Biso   1.000  O
  O87      1.0000 0.60610  0.47360  0.33310  Biso   1.000  O
  C64      1.0000 0.55750  0.18370  0.25470  Biso   1.000  C
  C65      1.0000 0.54130  0.15110  0.21260  Biso   1.000  C
  C66      1.0000 0.53170  0.09830  0.22940  Biso   1.000  C
  O88      1.0000 0.51960  0.06260  0.19850  Biso   1.000  O
  In23     1.0000 0.90366  0.88945  0.20020  Biso   1.000  In
  O89      1.0000 0.90900  0.82370  0.23730  Biso   1.000  O
  O90      1.0000 0.97390  0.58300  0.22870  Biso   1.000  O
  O91      1.0000 0.89390  0.97360  0.16690  Biso   1.000  O
  C67      1.0000 0.94250  0.68370  0.24530  Biso   1.000  C
  C68      1.0000 0.95870  0.65110  0.28740  Biso   1.000  C
  C69      1.0000 0.96830  0.59830  0.27060  Biso   1.000  C
  O92      1.0000 0.98040  0.56260  0.30150  Biso   1.000  O
  In24     1.0000 0.40366  0.38945  0.70020  Biso   1.000  In
  O93      1.0000 0.40900  0.32370  0.73730  Biso   1.000  O
  O94      1.0000 0.47390  0.08300  0.72870  Biso   1.000  O
  O95      1.0000 0.39390  0.47360  0.66690  Biso   1.000  O
  C70      1.0000 0.44250  0.18370  0.74530  Biso   1.000  C
  C71      1.0000 0.45870  0.15110  0.78740  Biso   1.000  C
  C72      1.0000 0.46830  0.09830  0.77060  Biso   1.000  C
  O96      1.0000 0.48040  0.06260  0.80150  Biso   1.000  O
  In25     1.0000 0.09634  0.20020  0.11055  Biso   1.000  In
  O97      1.0000 0.09100  0.23730  0.17630  Biso   1.000  O
  O98      1.0000 0.02610  0.22870  0.41700  Biso   1.000  O
  O99      1.0000 0.10610  0.16690  0.02640  Biso   1.000  O
  C73      1.0000 0.05750  0.24530  0.31630  Biso   1.000  C
  C74      1.0000 0.04130  0.28740  0.34890  Biso   1.000  C
  C75      1.0000 0.03170  0.27060  0.40170  Biso   1.000  C
  O100     1.0000 0.01960  0.30150  0.43740  Biso   1.000  O
  In26     1.0000 0.59634  0.70020  0.61055  Biso   1.000  In
  O101     1.0000 0.59100  0.73730  0.67630  Biso   1.000  O
  O102     1.0000 0.52610  0.72870  0.91700  Biso   1.000  O
  O103     1.0000 0.60610  0.66690  0.52640  Biso   1.000  O
  C76      1.0000 0.55750  0.74530  0.81630  Biso   1.000  C
  C77      1.0000 0.54130  0.78740  0.84890  Biso   1.000  C
  C78      1.0000 0.53170  0.77060  0.90170  Biso   1.000  C
  O104     1.0000 0.51960  0.80150  0.93740  Biso   1.000  O
  In27     1.0000 0.90366  0.79980  0.11055  Biso   1.000  In
  O105     1.0000 0.90900  0.76270  0.17630  Biso   1.000  O
  O106     1.0000 0.97390  0.77130  0.41700  Biso   1.000  O
  O107     1.0000 0.89390  0.83310  0.02640  Biso   1.000  O
  C79      1.0000 0.94250  0.75470  0.31630  Biso   1.000  C
  C80      1.0000 0.95870  0.71260  0.34890  Biso   1.000  C
  C81      1.0000 0.96830  0.72940  0.40170  Biso   1.000  C
  O108     1.0000 0.98040  0.69850  0.43740  Biso   1.000  O
  In28     1.0000 0.40366  0.29980  0.61055  Biso   1.000  In
  O109     1.0000 0.40900  0.26270  0.67630  Biso   1.000  O
  O110     1.0000 0.47390  0.27130  0.91700  Biso   1.000  O
  O111     1.0000 0.39390  0.33310  0.52640  Biso   1.000  O
  C82      1.0000 0.44250  0.25470  0.81630  Biso   1.000  C
  C83      1.0000 0.45870  0.21260  0.84890  Biso   1.000  C
  C84      1.0000 0.46830  0.22940  0.90170  Biso   1.000  C
  O112     1.0000 0.48040  0.19850  0.93740  Biso   1.000  O
  In29     1.0000 0.09634  0.79980  0.88945  Biso   1.000  In
  O113     1.0000 0.09100  0.76270  0.82370  Biso   1.000  O
  O114     1.0000 0.02610  0.77130  0.58300  Biso   1.000  O
  O115     1.0000 0.10610  0.83310  0.97360  Biso   1.000  O
  C85      1.0000 0.05750  0.75470  0.68370  Biso   1.000  C
  C86      1.0000 0.04130  0.71260  0.65110  Biso   1.000  C
  C87      1.0000 0.03170  0.72940  0.59830  Biso   1.000  C
  O116     1.0000 0.01960  0.69850  0.56260  Biso   1.000  O
  In30     1.0000 0.59634  0.29980  0.38945  Biso   1.000  In
  O117     1.0000 0.59100  0.26270  0.32370  Biso   1.000  O
  O118     1.0000 0.52610  0.27130  0.08300  Biso   1.000  O
  O119     1.0000 0.60610  0.33310  0.47360  Biso   1.000  O
  C88      1.0000 0.55750  0.25470  0.18370  Biso   1.000  C
  C89      1.0000 0.54130  0.21260  0.15110  Biso   1.000  C
  C90      1.0000 0.53170  0.22940  0.09830  Biso   1.000  C
  O120     1.0000 0.51960  0.19850  0.06260  Biso   1.000  O
  In31     1.0000 0.90366  0.20020  0.88945  Biso   1.000  In
  O121     1.0000 0.90900  0.23730  0.82370  Biso   1.000  O
  O122     1.0000 0.97390  0.22870  0.58300  Biso   1.000  O
  O123     1.0000 0.89390  0.16690  0.97360  Biso   1.000  O
  C91      1.0000 0.94250  0.24530  0.68370  Biso   1.000  C
  C92      1.0000 0.95870  0.28740  0.65110  Biso   1.000  C
  C93      1.0000 0.96830  0.27060  0.59830  Biso   1.000  C
  O124     1.0000 0.98040  0.30150  0.56260  Biso   1.000  O
  In32     1.0000 0.40366  0.70020  0.38945  Biso   1.000  In
  O125     1.0000 0.40900  0.73730  0.32370  Biso   1.000  O
  O126     1.0000 0.47390  0.72870  0.08300  Biso   1.000  O
  O127     1.0000 0.39390  0.66690  0.47360  Biso   1.000  O
  C94      1.0000 0.44250  0.74530  0.18370  Biso   1.000  C
  C95      1.0000 0.45870  0.78740  0.15110  Biso   1.000  C
  C96      1.0000 0.46830  0.77060  0.09830  Biso   1.000  C
  O128     1.0000 0.48040  0.80150  0.06260  Biso   1.000  O
  In33     1.0000 0.20020  0.11055  0.09634  Biso   1.000  In
  O129     1.0000 0.23730  0.17630  0.09100  Biso   1.000  O
  O130     1.0000 0.22870  0.41700  0.02610  Biso   1.000  O
  O131     1.0000 0.16690  0.02640  0.10610  Biso   1.000  O
  C97      1.0000 0.24530  0.31630  0.05750  Biso   1.000  C
  C98      1.0000 0.28740  0.34890  0.04130  Biso   1.000  C
  C99      1.0000 0.27060  0.40170  0.03170  Biso   1.000  C
  O132     1.0000 0.30150  0.43740  0.01960  Biso   1.000  O
  In34     1.0000 0.70020  0.61055  0.59634  Biso   1.000  In
  O133     1.0000 0.73730  0.67630  0.59100  Biso   1.000  O
  O134     1.0000 0.72870  0.91700  0.52610  Biso   1.000  O
  O135     1.0000 0.66690  0.52640  0.60610  Biso   1.000  O
  C100     1.0000 0.74530  0.81630  0.55750  Biso   1.000  C
  C101     1.0000 0.78740  0.84890  0.54130  Biso   1.000  C
  C102     1.0000 0.77060  0.90170  0.53170  Biso   1.000  C
  O136     1.0000 0.80150  0.93740  0.51960  Biso   1.000  O
  In35     1.0000 0.79980  0.11055  0.90366  Biso   1.000  In
  O137     1.0000 0.76270  0.17630  0.90900  Biso   1.000  O
  O138     1.0000 0.77130  0.41700  0.97390  Biso   1.000  O
  O139     1.0000 0.83310  0.02640  0.89390  Biso   1.000  O
  C103     1.0000 0.75470  0.31630  0.94250  Biso   1.000  C
  C104     1.0000 0.71260  0.34890  0.95870  Biso   1.000  C
  C105     1.0000 0.72940  0.40170  0.96830  Biso   1.000  C
  O140     1.0000 0.69850  0.43740  0.98040  Biso   1.000  O
  In36     1.0000 0.29980  0.61055  0.40366  Biso   1.000  In
  O141     1.0000 0.26270  0.67630  0.40900  Biso   1.000  O
  O142     1.0000 0.27130  0.91700  0.47390  Biso   1.000  O
  O143     1.0000 0.33310  0.52640  0.39390  Biso   1.000  O
  C106     1.0000 0.25470  0.81630  0.44250  Biso   1.000  C
  C107     1.0000 0.21260  0.84890  0.45870  Biso   1.000  C
  C108     1.0000 0.22940  0.90170  0.46830  Biso   1.000  C
  O144     1.0000 0.19850  0.93740  0.48040  Biso   1.000  O
  In37     1.0000 0.79980  0.88945  0.09634  Biso   1.000  In
  O145     1.0000 0.76270  0.82370  0.09100  Biso   1.000  O
  O146     1.0000 0.77130  0.58300  0.02610  Biso   1.000  O
  O147     1.0000 0.83310  0.97360  0.10610  Biso   1.000  O
  C109     1.0000 0.75470  0.68370  0.05750  Biso   1.000  C
  C110     1.0000 0.71260  0.65110  0.04130  Biso   1.000  C
  C111     1.0000 0.72940  0.59830  0.03170  Biso   1.000  C
  O148     1.0000 0.69850  0.56260  0.01960  Biso   1.000  O
  In38     1.0000 0.29980  0.38945  0.59634  Biso   1.000  In
  O149     1.0000 0.26270  0.32370  0.59100  Biso   1.000  O
  O150     1.0000 0.27130  0.08300  0.52610  Biso   1.000  O
  O151     1.0000 0.33310  0.47360  0.60610  Biso   1.000  O
  C112     1.0000 0.25470  0.18370  0.55750  Biso   1.000  C
  C113     1.0000 0.21260  0.15110  0.54130  Biso   1.000  C
  C114     1.0000 0.22940  0.09830  0.53170  Biso   1.000  C
  O152     1.0000 0.19850  0.06260  0.51960  Biso   1.000  O
  In39     1.0000 0.20020  0.88945  0.90366  Biso   1.000  In
  O153     1.0000 0.23730  0.82370  0.90900  Biso   1.000  O
  O154     1.0000 0.22870  0.58300  0.97390  Biso   1.000  O
  O155     1.0000 0.16690  0.97360  0.89390  Biso   1.000  O
  C115     1.0000 0.24530  0.68370  0.94250  Biso   1.000  C
  C116     1.0000 0.28740  0.65110  0.95870  Biso   1.000  C
  C117     1.0000 0.27060  0.59830  0.96830  Biso   1.000  C
  O156     1.0000 0.30150  0.56260  0.98040  Biso   1.000  O
  In40     1.0000 0.70020  0.38945  0.40366  Biso   1.000  In
  O157     1.0000 0.73730  0.32370  0.40900  Biso   1.000  O
  O158     1.0000 0.72870  0.08300  0.47390  Biso   1.000  O
  O159     1.0000 0.66690  0.47360  0.39390  Biso   1.000  O
  C118     1.0000 0.74530  0.18370  0.44250  Biso   1.000  C
  C119     1.0000 0.78740  0.15110  0.45870  Biso   1.000  C
  C120     1.0000 0.77060  0.09830  0.46830  Biso   1.000  C
  O160     1.0000 0.80150  0.06260  0.48040  Biso   1.000  O
  In41     1.0000 0.11055  0.09634  0.20020  Biso   1.000  In
  O161     1.0000 0.17630  0.09100  0.23730  Biso   1.000  O
  O162     1.0000 0.41700  0.02610  0.22870  Biso   1.000  O
  O163     1.0000 0.02640  0.10610  0.16690  Biso   1.000  O
  C121     1.0000 0.31630  0.05750  0.24530  Biso   1.000  C
  C122     1.0000 0.34890  0.04130  0.28740  Biso   1.000  C
  C123     1.0000 0.40170  0.03170  0.27060  Biso   1.000  C
  O164     1.0000 0.43740  0.01960  0.30150  Biso   1.000  O
  In42     1.0000 0.61055  0.59634  0.70020  Biso   1.000  In
  O165     1.0000 0.67630  0.59100  0.73730  Biso   1.000  O
  O166     1.0000 0.91700  0.52610  0.72870  Biso   1.000  O
  O167     1.0000 0.52640  0.60610  0.66690  Biso   1.000  O
  C124     1.0000 0.81630  0.55750  0.74530  Biso   1.000  C
  C125     1.0000 0.84890  0.54130  0.78740  Biso   1.000  C
  C126     1.0000 0.90170  0.53170  0.77060  Biso   1.000  C
  O168     1.0000 0.93740  0.51960  0.80150  Biso   1.000  O
  In43     1.0000 0.11055  0.90366  0.79980  Biso   1.000  In
  O169     1.0000 0.17630  0.90900  0.76270  Biso   1.000  O
  O170     1.0000 0.41700  0.97390  0.77130  Biso   1.000  O
  O171     1.0000 0.02640  0.89390  0.83310  Biso   1.000  O
  C127     1.0000 0.31630  0.94250  0.75470  Biso   1.000  C
  C128     1.0000 0.34890  0.95870  0.71260  Biso   1.000  C
  C129     1.0000 0.40170  0.96830  0.72940  Biso   1.000  C
  O172     1.0000 0.43740  0.98040  0.69850  Biso   1.000  O
  In44     1.0000 0.61055  0.40366  0.29980  Biso   1.000  In
  O173     1.0000 0.67630  0.40900  0.26270  Biso   1.000  O
  O174     1.0000 0.91700  0.47390  0.27130  Biso   1.000  O
  O175     1.0000 0.52640  0.39390  0.33310  Biso   1.000  O
  C130     1.0000 0.81630  0.44250  0.25470  Biso   1.000  C
  C131     1.0000 0.84890  0.45870  0.21260  Biso   1.000  C
  C132     1.0000 0.90170  0.46830  0.22940  Biso   1.000  C
  O176     1.0000 0.93740  0.48040  0.19850  Biso   1.000  O
  In45     1.0000 0.88945  0.09634  0.79980  Biso   1.000  In
  O177     1.0000 0.82370  0.09100  0.76270  Biso   1.000  O
  O178     1.0000 0.58300  0.02610  0.77130  Biso   1.000  O
  O179     1.0000 0.97360  0.10610  0.83310  Biso   1.000  O
  C133     1.0000 0.68370  0.05750  0.75470  Biso   1.000  C
  C134     1.0000 0.65110  0.04130  0.71260  Biso   1.000  C
  C135     1.0000 0.59830  0.03170  0.72940  Biso   1.000  C
  O180     1.0000 0.56260  0.01960  0.69850  Biso   1.000  O
  In46     1.0000 0.38945  0.59634  0.29980  Biso   1.000  In
  O181     1.0000 0.32370  0.59100  0.26270  Biso   1.000  O
  O182     1.0000 0.08300  0.52610  0.27130  Biso   1.000  O
  O183     1.0000 0.47360  0.60610  0.33310  Biso   1.000  O
  C136     1.0000 0.18370  0.55750  0.25470  Biso   1.000  C
  C137     1.0000 0.15110  0.54130  0.21260  Biso   1.000  C
  C138     1.0000 0.09830  0.53170  0.22940  Biso   1.000  C
  O184     1.0000 0.06260  0.51960  0.19850  Biso   1.000  O
  In47     1.0000 0.88945  0.90366  0.20020  Biso   1.000  In
  O185     1.0000 0.82370  0.90900  0.23730  Biso   1.000  O
  O186     1.0000 0.58300  0.97390  0.22870  Biso   1.000  O
  O187     1.0000 0.97360  0.89390  0.16690  Biso   1.000  O
  C139     1.0000 0.68370  0.94250  0.24530  Biso   1.000  C
  C140     1.0000 0.65110  0.95870  0.28740  Biso   1.000  C
  C141     1.0000 0.59830  0.96830  0.27060  Biso   1.000  C
  O188     1.0000 0.56260  0.98040  0.30150  Biso   1.000  O
  In48     1.0000 0.38945  0.40366  0.70020  Biso   1.000  In
  O189     1.0000 0.32370  0.40900  0.73730  Biso   1.000  O
  O190     1.0000 0.08300  0.47390  0.72870  Biso   1.000  O
  O191     1.0000 0.47360  0.39390  0.66690  Biso   1.000  O
  C142     1.0000 0.18370  0.44250  0.74530  Biso   1.000  C
  C143     1.0000 0.15110  0.45870  0.78740  Biso   1.000  C
  C144     1.0000 0.09830  0.46830  0.77060  Biso   1.000  C
  O192     1.0000 0.06260  0.48040  0.80150  Biso   1.000  O
  In49     1.0000 0.21100  0.00000  0.50000  Biso   1.000  In
  In50     1.0000 0.25950  0.00000  0.50000  Biso   1.000  In
  In51     1.0000 0.71100  0.50000  0.00000  Biso   1.000  In
  In52     1.0000 0.75950  0.50000  0.00000  Biso   1.000  In
  In53     1.0000 0.78900  0.00000  0.50000  Biso   1.000  In
  In54     1.0000 0.74050  0.00000  0.50000  Biso   1.000  In
  In55     1.0000 0.28900  0.50000  0.00000  Biso   1.000  In
  In56     1.0000 0.24050  0.50000  0.00000  Biso   1.000  In
  In57     1.0000 0.50000  0.21100  0.00000  Biso   1.000  In
  In58     1.0000 0.50000  0.25950  0.00000  Biso   1.000  In
  In59     1.0000 0.00000  0.71100  0.50000  Biso   1.000  In
  In60     1.0000 0.00000  0.75950  0.50000  Biso   1.000  In
  In61     1.0000 0.50000  0.78900  0.00000  Biso   1.000  In
  In62     1.0000 0.50000  0.74050  0.00000  Biso   1.000  In
  In63     1.0000 0.00000  0.28900  0.50000  Biso   1.000  In
  In64     1.0000 0.00000  0.24050  0.50000  Biso   1.000  In
  In65     1.0000 0.00000  0.50000  0.21100  Biso   1.000  In
  In66     1.0000 0.00000  0.50000  0.25950  Biso   1.000  In
  In67     1.0000 0.50000  0.00000  0.71100  Biso   1.000  In
  In68     1.0000 0.50000  0.00000  0.75950  Biso   1.000  In
  In69     1.0000 0.00000  0.50000  0.78900  Biso   1.000  In
  In70     1.0000 0.00000  0.50000  0.74050  Biso   1.000  In
  In71     1.0000 0.50000  0.00000  0.28900  Biso   1.000  In
  In72     1.0000 0.50000  0.00000  0.24050  Biso   1.000  In
  In73     1.0000 0.00000  0.21100  0.50000  Biso   1.000  In
  In74     1.0000 0.00000  0.25950  0.50000  Biso   1.000  In
  In75     1.0000 0.50000  0.71100  0.00000  Biso   1.000  In
  In76     1.0000 0.50000  0.75950  0.00000  Biso   1.000  In
  In77     1.0000 0.00000  0.78900  0.50000  Biso   1.000  In
  In78     1.0000 0.00000  0.74050  0.50000  Biso   1.000  In
  In79     1.0000 0.50000  0.28900  0.00000  Biso   1.000  In
  In80     1.0000 0.50000  0.24050  0.00000  Biso   1.000  In
  In81     1.0000 0.21100  0.50000  0.00000  Biso   1.000  In
  In82     1.0000 0.25950  0.50000  0.00000  Biso   1.000  In
  In83     1.0000 0.71100  0.00000  0.50000  Biso   1.000  In
  In84     1.0000 0.75950  0.00000  0.50000  Biso   1.000  In
  In85     1.0000 0.78900  0.50000  0.00000  Biso   1.000  In
  In86     1.0000 0.74050  0.50000  0.00000  Biso   1.000  In
  In87     1.0000 0.28900  0.00000  0.50000  Biso   1.000  In
  In88     1.0000 0.24050  0.00000  0.50000  Biso   1.000  In
  In89     1.0000 0.50000  0.00000  0.21100  Biso   1.000  In
  In90     1.0000 0.50000  0.00000  0.25950  Biso   1.000  In
  In91     1.0000 0.00000  0.50000  0.71100  Biso   1.000  In
  In92     1.0000 0.00000  0.50000  0.75950  Biso   1.000  In
  In93     1.0000 0.50000  0.00000  0.78900  Biso   1.000  In
  In94     1.0000 0.50000  0.00000  0.74050  Biso   1.000  In
  In95     1.0000 0.00000  0.50000  0.28900  Biso   1.000  In
  In96     1.0000 0.00000  0.50000  0.24050  Biso   1.000  In
  O193     1.0000 0.26470  0.07020  0.07020  Biso   1.000  O
  O194     1.0000 0.76470  0.57020  0.57020  Biso   1.000  O
  O195     1.0000 0.73530  0.92980  0.07020  Biso   1.000  O
  O196     1.0000 0.23530  0.42980  0.57020  Biso   1.000  O
  O197     1.0000 0.73530  0.07020  0.92980  Biso   1.000  O
  O198     1.0000 0.23530  0.57020  0.42980  Biso   1.000  O
  O199     1.0000 0.26470  0.92980  0.92980  Biso   1.000  O
  O200     1.0000 0.76470  0.42980  0.42980  Biso   1.000  O
  O201     1.0000 0.07020  0.26470  0.07020  Biso   1.000  O
  O202     1.0000 0.57020  0.76470  0.57020  Biso   1.000  O
  O203     1.0000 0.07020  0.73530  0.92980  Biso   1.000  O
  O204     1.0000 0.57020  0.23530  0.42980  Biso   1.000  O
  O205     1.0000 0.92980  0.73530  0.07020  Biso   1.000  O
  O206     1.0000 0.42980  0.23530  0.57020  Biso   1.000  O
  O207     1.0000 0.92980  0.26470  0.92980  Biso   1.000  O
  O208     1.0000 0.42980  0.76470  0.42980  Biso   1.000  O
  O209     1.0000 0.07020  0.07020  0.26470  Biso   1.000  O
  O210     1.0000 0.57020  0.57020  0.76470  Biso   1.000  O
  O211     1.0000 0.92980  0.07020  0.73530  Biso   1.000  O
  O212     1.0000 0.42980  0.57020  0.23530  Biso   1.000  O
  O213     1.0000 0.07020  0.92980  0.73530  Biso   1.000  O
  O214     1.0000 0.57020  0.42980  0.23530  Biso   1.000  O
  O215     1.0000 0.92980  0.92980  0.26470  Biso   1.000  O
  O216     1.0000 0.42980  0.42980  0.76470  Biso   1.000  O
  O217     1.0000 0.13700  0.13700  0.13700  Biso   1.000  O
  O218     1.0000 0.63700  0.63700  0.63700  Biso   1.000  O
  O219     1.0000 0.86300  0.86300  0.13700  Biso   1.000  O
  O220     1.0000 0.36300  0.36300  0.63700  Biso   1.000  O
  O221     1.0000 0.86300  0.13700  0.86300  Biso   1.000  O
  O222     1.0000 0.36300  0.63700  0.36300  Biso   1.000  O
  O223     1.0000 0.13700  0.86300  0.86300  Biso   1.000  O
  O224     1.0000 0.63700  0.36300  0.36300  Biso   1.000  O
  C145     1.0000 0.10870  0.10870  0.95810  Biso   1.000  C
  C146     1.0000 0.13060  0.13060  0.00670  Biso   1.000  C
  C147     1.0000 0.60870  0.60870  0.45810  Biso   1.000  C
  C148     1.0000 0.63060  0.63060  0.50670  Biso   1.000  C
  C149     1.0000 0.89130  0.89130  0.95810  Biso   1.000  C
  C150     1.0000 0.86940  0.86940  0.00670  Biso   1.000  C
  C151     1.0000 0.39130  0.39130  0.45810  Biso   1.000  C
  C152     1.0000 0.36940  0.36940  0.50670  Biso   1.000  C
  C153     1.0000 0.89130  0.10870  0.04190  Biso   1.000  C
  C154     1.0000 0.86940  0.13060  0.99330  Biso   1.000  C
  C155     1.0000 0.39130  0.60870  0.54190  Biso   1.000  C
  C156     1.0000 0.36940  0.63060  0.49330  Biso   1.000  C
  C157     1.0000 0.10870  0.89130  0.04190  Biso   1.000  C
  C158     1.0000 0.13060  0.86940  0.99330  Biso   1.000  C
  C159     1.0000 0.60870  0.39130  0.54190  Biso   1.000  C
  C160     1.0000 0.63060  0.36940  0.49330  Biso   1.000  C
  C161     1.0000 0.95810  0.10870  0.10870  Biso   1.000  C
  C162     1.0000 0.00670  0.13060  0.13060  Biso   1.000  C
  C163     1.0000 0.45810  0.60870  0.60870  Biso   1.000  C
  C164     1.0000 0.50670  0.63060  0.63060  Biso   1.000  C
  C165     1.0000 0.95810  0.89130  0.89130  Biso   1.000  C
  C166     1.0000 0.00670  0.86940  0.86940  Biso   1.000  C
  C167     1.0000 0.45810  0.39130  0.39130  Biso   1.000  C
  C168     1.0000 0.50670  0.36940  0.36940  Biso   1.000  C
  C169     1.0000 0.04190  0.89130  0.10870  Biso   1.000  C
  C170     1.0000 0.99330  0.86940  0.13060  Biso   1.000  C
  C171     1.0000 0.54190  0.39130  0.60870  Biso   1.000  C
  C172     1.0000 0.49330  0.36940  0.63060  Biso   1.000  C
  C173     1.0000 0.04190  0.10870  0.89130  Biso   1.000  C
  C174     1.0000 0.99330  0.13060  0.86940  Biso   1.000  C
  C175     1.0000 0.54190  0.60870  0.39130  Biso   1.000  C
  C176     1.0000 0.49330  0.63060  0.36940  Biso   1.000  C
  C177     1.0000 0.10870  0.95810  0.10870  Biso   1.000  C
  C178     1.0000 0.13060  0.00670  0.13060  Biso   1.000  C
  C179     1.0000 0.60870  0.45810  0.60870  Biso   1.000  C
  C180     1.0000 0.63060  0.50670  0.63060  Biso   1.000  C
  C181     1.0000 0.89130  0.95810  0.89130  Biso   1.000  C
  C182     1.0000 0.86940  0.00670  0.86940  Biso   1.000  C
  C183     1.0000 0.39130  0.45810  0.39130  Biso   1.000  C
  C184     1.0000 0.36940  0.50670  0.36940  Biso   1.000  C
  C185     1.0000 0.10870  0.04190  0.89130  Biso   1.000  C
  C186     1.0000 0.13060  0.99330  0.86940  Biso   1.000  C
  C187     1.0000 0.60870  0.54190  0.39130  Biso   1.000  C
  C188     1.0000 0.63060  0.49330  0.36940  Biso   1.000  C
  C189     1.0000 0.89130  0.04190  0.10870  Biso   1.000  C
  C190     1.0000 0.86940  0.99330  0.13060  Biso   1.000  C
  C191     1.0000 0.39130  0.54190  0.60870  Biso   1.000  C
  C192     1.0000 0.36940  0.49330  0.63060  Biso   1.000  C
  C193     1.0000 0.06330  0.13170  0.93670  Biso   1.000  C
  C194     1.0000 0.56330  0.63170  0.43670  Biso   1.000  C
  C195     1.0000 0.93670  0.86830  0.93670  Biso   1.000  C
  C196     1.0000 0.43670  0.36830  0.43670  Biso   1.000  C
  C197     1.0000 0.93670  0.13170  0.06330  Biso   1.000  C
  C198     1.0000 0.43670  0.63170  0.56330  Biso   1.000  C
  C199     1.0000 0.06330  0.86830  0.06330  Biso   1.000  C
  C200     1.0000 0.56330  0.36830  0.56330  Biso   1.000  C
  C201     1.0000 0.93670  0.06330  0.13170  Biso   1.000  C
  C202     1.0000 0.43670  0.56330  0.63170  Biso   1.000  C
  C203     1.0000 0.93670  0.93670  0.86830  Biso   1.000  C
  C204     1.0000 0.43670  0.43670  0.36830  Biso   1.000  C
  C205     1.0000 0.06330  0.93670  0.13170  Biso   1.000  C
  C206     1.0000 0.56330  0.43670  0.63170  Biso   1.000  C
  C207     1.0000 0.06330  0.06330  0.86830  Biso   1.000  C
  C208     1.0000 0.56330  0.56330  0.36830  Biso   1.000  C
  C209     1.0000 0.13170  0.93670  0.06330  Biso   1.000  C
  C210     1.0000 0.63170  0.43670  0.56330  Biso   1.000  C
  C211     1.0000 0.86830  0.93670  0.93670  Biso   1.000  C
  C212     1.0000 0.36830  0.43670  0.43670  Biso   1.000  C
  C213     1.0000 0.13170  0.06330  0.93670  Biso   1.000  C
  C214     1.0000 0.63170  0.56330  0.43670  Biso   1.000  C
  C215     1.0000 0.86830  0.06330  0.06330  Biso   1.000  C
  C216     1.0000 0.36830  0.56330  0.56330  Biso   1.000  C
  C217     1.0000 0.22210  0.08340  0.22210  Biso   1.000  C
  C218     1.0000 0.26270  0.07030  0.26270  Biso   1.000  C
  C219     1.0000 0.33060  0.03920  0.33060  Biso   1.000  C
  C220     1.0000 0.72210  0.58340  0.72210  Biso   1.000  C
  C221     1.0000 0.76270  0.57030  0.76270  Biso   1.000  C
  C222     1.0000 0.83060  0.53920  0.83060  Biso   1.000  C
  C223     1.0000 0.77790  0.91660  0.22210  Biso   1.000  C
  C224     1.0000 0.73730  0.92970  0.26270  Biso   1.000  C
  C225     1.0000 0.66940  0.96080  0.33060  Biso   1.000  C
  C226     1.0000 0.27790  0.41660  0.72210  Biso   1.000  C
  C227     1.0000 0.23730  0.42970  0.76270  Biso   1.000  C
  C228     1.0000 0.16940  0.46080  0.83060  Biso   1.000  C
  C229     1.0000 0.77790  0.08340  0.77790  Biso   1.000  C
  C230     1.0000 0.73730  0.07030  0.73730  Biso   1.000  C
  C231     1.0000 0.66940  0.03920  0.66940  Biso   1.000  C
  C232     1.0000 0.27790  0.58340  0.27790  Biso   1.000  C
  C233     1.0000 0.23730  0.57030  0.23730  Biso   1.000  C
  C234     1.0000 0.16940  0.53920  0.16940  Biso   1.000  C
  C235     1.0000 0.22210  0.91660  0.77790  Biso   1.000  C
  C236     1.0000 0.26270  0.92970  0.73730  Biso   1.000  C
  C237     1.0000 0.33060  0.96080  0.66940  Biso   1.000  C
  C238     1.0000 0.72210  0.41660  0.27790  Biso   1.000  C
  C239     1.0000 0.76270  0.42970  0.23730  Biso   1.000  C
  C240     1.0000 0.83060  0.46080  0.16940  Biso   1.000  C
  C241     1.0000 0.22210  0.22210  0.08340  Biso   1.000  C
  C242     1.0000 0.26270  0.26270  0.07030  Biso   1.000  C
  C243     1.0000 0.33060  0.33060  0.03920  Biso   1.000  C
  C244     1.0000 0.72210  0.72210  0.58340  Biso   1.000  C
  C245     1.0000 0.76270  0.76270  0.57030  Biso   1.000  C
  C246     1.0000 0.83060  0.83060  0.53920  Biso   1.000  C
  C247     1.0000 0.22210  0.77790  0.91660  Biso   1.000  C
  C248     1.0000 0.26270  0.73730  0.92970  Biso   1.000  C
  C249     1.0000 0.33060  0.66940  0.96080  Biso   1.000  C
  C250     1.0000 0.72210  0.27790  0.41660  Biso   1.000  C
  C251     1.0000 0.76270  0.23730  0.42970  Biso   1.000  C
  C252     1.0000 0.83060  0.16940  0.46080  Biso   1.000  C
  C253     1.0000 0.77790  0.77790  0.08340  Biso   1.000  C
  C254     1.0000 0.73730  0.73730  0.07030  Biso   1.000  C
  C255     1.0000 0.66940  0.66940  0.03920  Biso   1.000  C
  C256     1.0000 0.27790  0.27790  0.58340  Biso   1.000  C
  C257     1.0000 0.23730  0.23730  0.57030  Biso   1.000  C
  C258     1.0000 0.16940  0.16940  0.53920  Biso   1.000  C
  C259     1.0000 0.77790  0.22210  0.91660  Biso   1.000  C
  C260     1.0000 0.73730  0.26270  0.92970  Biso   1.000  C
  C261     1.0000 0.66940  0.33060  0.96080  Biso   1.000  C
  C262     1.0000 0.27790  0.72210  0.41660  Biso   1.000  C
  C263     1.0000 0.23730  0.76270  0.42970  Biso   1.000  C
  C264     1.0000 0.16940  0.83060  0.46080  Biso   1.000  C
  C265     1.0000 0.08340  0.22210  0.22210  Biso   1.000  C
  C266     1.0000 0.07030  0.26270  0.26270  Biso   1.000  C
  C267     1.0000 0.03920  0.33060  0.33060  Biso   1.000  C
  C268     1.0000 0.58340  0.72210  0.72210  Biso   1.000  C
  C269     1.0000 0.57030  0.76270  0.76270  Biso   1.000  C
  C270     1.0000 0.53920  0.83060  0.83060  Biso   1.000  C
  C271     1.0000 0.91660  0.22210  0.77790  Biso   1.000  C
  C272     1.0000 0.92970  0.26270  0.73730  Biso   1.000  C
  C273     1.0000 0.96080  0.33060  0.66940  Biso   1.000  C
  C274     1.0000 0.41660  0.72210  0.27790  Biso   1.000  C
  C275     1.0000 0.42970  0.76270  0.23730  Biso   1.000  C
  C276     1.0000 0.46080  0.83060  0.16940  Biso   1.000  C
  C277     1.0000 0.08340  0.77790  0.77790  Biso   1.000  C
  C278     1.0000 0.07030  0.73730  0.73730  Biso   1.000  C
  C279     1.0000 0.03920  0.66940  0.66940  Biso   1.000  C
  C280     1.0000 0.58340  0.27790  0.27790  Biso   1.000  C
  C281     1.0000 0.57030  0.23730  0.23730  Biso   1.000  C
  C282     1.0000 0.53920  0.16940  0.16940  Biso   1.000  C
  C283     1.0000 0.91660  0.77790  0.22210  Biso   1.000  C
  C284     1.0000 0.92970  0.73730  0.26270  Biso   1.000  C
  C285     1.0000 0.96080  0.66940  0.33060  Biso   1.000  C
  C286     1.0000 0.41660  0.27790  0.72210  Biso   1.000  C
  C287     1.0000 0.42970  0.23730  0.76270  Biso   1.000  C
  C288     1.0000 0.46080  0.16940  0.83060  Biso   1.000  C
