data_image0
_cell_length_a       18.5283
_cell_length_b       14.2219
_cell_length_c       21.9146
_cell_angle_alpha    90
_cell_angle_beta     93.897
_cell_angle_gamma    90

_symmetry_space_group_name_H-M    "P 1"
_symmetry_int_tables_number       1

loop_
  _symmetry_equiv_pos_as_xyz
  'x, y, z'

loop_
  _atom_site_label
  _atom_site_occupancy
  _atom_site_fract_x
  _atom_site_fract_y
  _atom_site_fract_z
  _atom_site_thermal_displace_type
  _atom_site_B_iso_or_equiv
  _atom_site_type_symbol
  C1       1.0000 0.36020  0.42870  0.50039  Biso   1.000  C
  C2       1.0000 0.40550  0.51160  0.52148  Biso   1.000  C
  C3       1.0000 0.40510  0.59250  0.48576  Biso   1.000  C
  H1       1.0000 0.37770  0.59520  0.44750  Biso   1.000  H
  C4       1.0000 0.44560  0.66960  0.50733  Biso   1.000  C
  C5       1.0000 0.49030  0.66430  0.56001  Biso   1.000  C
  H2       1.0000 0.51830  0.71730  0.57340  Biso   1.000  H
  C6       1.0000 0.49440  0.58290  0.59306  Biso   1.000  C
  C7       1.0000 0.45000  0.50750  0.57473  Biso   1.000  C
  H3       1.0000 0.45020  0.45230  0.59920  Biso   1.000  H
  C8       1.0000 0.54490  0.57230  0.64890  Biso   1.000  C
  C9       1.0000 0.43890  0.90920  0.46260  Biso   1.000  C
  C10      1.0000 0.48250  0.91640  0.41370  Biso   1.000  C
  H4       1.0000 0.51030  0.86400  0.40230  Biso   1.000  H
  C11      1.0000 0.48530  0.99980  0.38170  Biso   1.000  C
  C12      1.0000 0.44250  0.07490  0.39650  Biso   1.000  C
  H5       1.0000 0.44290  0.13110  0.37320  Biso   1.000  H
  C13      1.0000 0.39890  0.06830  0.44550  Biso   1.000  C
  C14      1.0000 0.39800  0.98540  0.47940  Biso   1.000  C
  H6       1.0000 0.36960  0.98110  0.51380  Biso   1.000  H
  C15      1.0000 0.35620  0.15100  0.46260  Biso   1.000  C
  C16      1.0000 0.53970  0.01120  0.33190  Biso   1.000  C
  C17      1.0000 0.26490  0.53270  0.31080  Biso   1.000  C
  C18      1.0000 0.21910  0.61160  0.33210  Biso   1.000  C
  C19      1.0000 0.22050  0.70000  0.30340  Biso   1.000  C
  H7       1.0000 0.25000  0.71050  0.27030  Biso   1.000  H
  C20      1.0000 0.17760  0.77180  0.32440  Biso   1.000  C
  C21      1.0000 0.13390  0.75680  0.37120  Biso   1.000  C
  H8       1.0000 0.10560  0.80700  0.38550  Biso   1.000  H
  C22      1.0000 0.13050  0.67010  0.39760  Biso   1.000  C
  C23      1.0000 0.17420  0.59700  0.37900  Biso   1.000  C
  H9       1.0000 0.17300  0.53750  0.39850  Biso   1.000  H
  C24      1.0000 0.17710  0.86700  0.29480  Biso   1.000  C
  C25      1.0000 0.02850  0.61120  0.52140  Biso   1.000  C
  C26      1.0000 0.05060  0.57550  0.57780  Biso   1.000  C
  H10      1.0000 0.09810  0.55120  0.58510  Biso   1.000  H
  C27      1.0000 0.00390  0.57520  0.62340  Biso   1.000  C
  C28      1.0000 0.93370  0.60910  0.61290  Biso   1.000  C
  H11      1.0000 0.90170  0.60930  0.64500  Biso   1.000  H
  C29      1.0000 0.91070  0.64200  0.55600  Biso   1.000  C
  C30      1.0000 0.95820  0.64380  0.50960  Biso   1.000  C
  H12      1.0000 0.94280  0.66700  0.47020  Biso   1.000  H
  C31      1.0000 0.83380  0.67420  0.54410  Biso   1.000  C
  C32      1.0000 0.02750  0.53990  0.68580  Biso   1.000  C
  N1       1.0000 0.30950  0.32430  0.21880  Biso   1.000  N
  C33      1.0000 0.30230  0.31210  0.15810  Biso   1.000  C
  H13      1.0000 0.32590  0.35650  0.13400  Biso   1.000  H
  N2       1.0000 0.26540  0.24410  0.12810  Biso   1.000  N
  C34      1.0000 0.22680  0.17950  0.15910  Biso   1.000  C
  C35      1.0000 0.23210  0.18550  0.22260  Biso   1.000  C
  C36      1.0000 0.27480  0.25790  0.25080  Biso   1.000  C
  N3       1.0000 0.27320  0.24840  0.31160  Biso   1.000  N
  C37      1.0000 0.23260  0.17330  0.31970  Biso   1.000  C
  H14      1.0000 0.22250  0.15110  0.35910  Biso   1.000  H
  N4       1.0000 0.20640  0.13080  0.26740  Biso   1.000  N
  N5       1.0000 0.18120  0.11830  0.12920  Biso   1.000  N
  H15      1.0000 0.17580  0.11940  0.08900  Biso   1.000  H
  H16      1.0000 0.15690  0.07740  0.14990  Biso   1.000  H
  N6       1.0000 0.44230  0.75190  0.46918  Biso   1.000  N
  N7       1.0000 0.43670  0.82570  0.49956  Biso   1.000  N
  N8       1.0000 0.06970  0.66750  0.44540  Biso   1.000  N
  N9       1.0000 0.08440  0.60750  0.47690  Biso   1.000  N
  O1       1.0000 0.33446  0.42962  0.44686  Biso   1.000  O
  O2       1.0000 0.35250  0.36520  0.53976  Biso   1.000  O
  O3       1.0000 0.54140  0.50140  0.68131  Biso   1.000  O
  O4       1.0000 0.59207  0.63560  0.66186  Biso   1.000  O
  O5       1.0000 0.32740  0.14820  0.51292  Biso   1.000  O
  O6       1.0000 0.35100  0.21870  0.42645  Biso   1.000  O
  O7       1.0000 0.55530  0.08960  0.31610  Biso   1.000  O
  O8       1.0000 0.56450  0.93870  0.31330  Biso   1.000  O
  O9       1.0000 0.30910  0.55330  0.27010  Biso   1.000  O
  O10      1.0000 0.25750  0.45380  0.33213  Biso   1.000  O
  O11      1.0000 0.21030  0.87940  0.24890  Biso   1.000  O
  O12      1.0000 0.14380  0.93140  0.32120  Biso   1.000  O
  O13      1.0000 0.81190  0.68400  0.48897  Biso   1.000  O
  O14      1.0000 0.79828  0.69040  0.58813  Biso   1.000  O
  O15      1.0000 0.99300  0.55800  0.72810  Biso   1.000  O
  O16      1.0000 0.08520  0.48970  0.68940  Biso   1.000  O
  Zn1      1.0000 0.30438  0.33512  0.38042  Biso   1.000  Zn
  Zn2      1.0000 0.28090  0.26241  0.53712  Biso   1.000  Zn
  Zn3      1.0000 0.37288  0.44588  0.25451  Biso   1.000  Zn
  Zn4      1.0000 0.12409  0.03962  0.27130  Biso   1.000  Zn
  N10      1.0000 0.27290  0.26080  0.29170  Biso   1.000  N
  C38      1.0000 0.23020  0.18440  0.29610  Biso   1.000  C
  H17      1.0000 0.21960  0.16510  0.33600  Biso   1.000  H
  N11      1.0000 0.20080  0.13250  0.24810  Biso   1.000  N
  C39      1.0000 0.21850  0.15120  0.19150  Biso   1.000  C
  C40      1.0000 0.26100  0.23030  0.18240  Biso   1.000  C
  C41      1.0000 0.28790  0.28160  0.23220  Biso   1.000  C
  N12      1.0000 0.32520  0.35750  0.21350  Biso   1.000  N
  C42      1.0000 0.32080  0.34550  0.15120  Biso   1.000  C
  H18      1.0000 0.34290  0.38820  0.12480  Biso   1.000  H
  N13      1.0000 0.28340  0.26970  0.12940  Biso   1.000  N
  N14      1.0000 0.20090  0.09360  0.13990  Biso   1.000  N
  H19      1.0000 0.17650  0.04110  0.14410  Biso   1.000  H
  H20      1.0000 0.21430  0.11020  0.10370  Biso   1.000  H
  C43      1.0000 0.63980  0.92870  0.99961  Biso   1.000  C
  C44      1.0000 0.59450  0.01160  0.97852  Biso   1.000  C
  C45      1.0000 0.59490  0.09250  0.01424  Biso   1.000  C
  H21      1.0000 0.62230  0.09520  0.05250  Biso   1.000  H
  C46      1.0000 0.55440  0.16960  0.99267  Biso   1.000  C
  C47      1.0000 0.50970  0.16430  0.93999  Biso   1.000  C
  H22      1.0000 0.48170  0.21730  0.92660  Biso   1.000  H
  C48      1.0000 0.50560  0.08290  0.90694  Biso   1.000  C
  C49      1.0000 0.55000  0.00750  0.92527  Biso   1.000  C
  H23      1.0000 0.54980  0.95230  0.90080  Biso   1.000  H
  C50      1.0000 0.45510  0.07230  0.85110  Biso   1.000  C
  C51      1.0000 0.56110  0.40920  0.03740  Biso   1.000  C
  C52      1.0000 0.51750  0.41640  0.08630  Biso   1.000  C
  H24      1.0000 0.48970  0.36400  0.09770  Biso   1.000  H
  C53      1.0000 0.51470  0.49980  0.11830  Biso   1.000  C
  C54      1.0000 0.55750  0.57490  0.10350  Biso   1.000  C
  H25      1.0000 0.55710  0.63110  0.12680  Biso   1.000  H
  C55      1.0000 0.60110  0.56830  0.05450  Biso   1.000  C
  C56      1.0000 0.60200  0.48540  0.02060  Biso   1.000  C
  H26      1.0000 0.63040  0.48110  0.98620  Biso   1.000  H
  C57      1.0000 0.64380  0.65100  0.03740  Biso   1.000  C
  C58      1.0000 0.46030  0.51120  0.16810  Biso   1.000  C
  C59      1.0000 0.73510  0.03270  0.18920  Biso   1.000  C
  C60      1.0000 0.78090  0.11160  0.16790  Biso   1.000  C
  C61      1.0000 0.77950  0.20000  0.19660  Biso   1.000  C
  H27      1.0000 0.75000  0.21050  0.22970  Biso   1.000  H
  C62      1.0000 0.82240  0.27180  0.17560  Biso   1.000  C
  C63      1.0000 0.86610  0.25680  0.12880  Biso   1.000  C
  H28      1.0000 0.89440  0.30700  0.11450  Biso   1.000  H
  C64      1.0000 0.86950  0.17010  0.10240  Biso   1.000  C
  C65      1.0000 0.82580  0.09700  0.12100  Biso   1.000  C
  H29      1.0000 0.82700  0.03750  0.10150  Biso   1.000  H
  C66      1.0000 0.82290  0.36700  0.20520  Biso   1.000  C
  C67      1.0000 0.97150  0.11120  0.97860  Biso   1.000  C
  C68      1.0000 0.94940  0.07550  0.92220  Biso   1.000  C
  H30      1.0000 0.90190  0.05120  0.91490  Biso   1.000  H
  C69      1.0000 0.99610  0.07520  0.87660  Biso   1.000  C
  C70      1.0000 0.06630  0.10910  0.88710  Biso   1.000  C
  H31      1.0000 0.09830  0.10930  0.85500  Biso   1.000  H
  C71      1.0000 0.08930  0.14200  0.94400  Biso   1.000  C
  C72      1.0000 0.04180  0.14380  0.99040  Biso   1.000  C
  H32      1.0000 0.05720  0.16700  0.02980  Biso   1.000  H
  C73      1.0000 0.16620  0.17420  0.95590  Biso   1.000  C
  C74      1.0000 0.97250  0.03990  0.81420  Biso   1.000  C
  N15      1.0000 0.69050  0.82430  0.28120  Biso   1.000  N
  C75      1.0000 0.69770  0.81210  0.34190  Biso   1.000  C
  H33      1.0000 0.67410  0.85650  0.36600  Biso   1.000  H
  N16      1.0000 0.73460  0.74410  0.37190  Biso   1.000  N
  C76      1.0000 0.77320  0.67950  0.34090  Biso   1.000  C
  C77      1.0000 0.76790  0.68550  0.27740  Biso   1.000  C
  C78      1.0000 0.72520  0.75790  0.24920  Biso   1.000  C
  N17      1.0000 0.72680  0.74840  0.18840  Biso   1.000  N
  C79      1.0000 0.76740  0.67330  0.18030  Biso   1.000  C
  H34      1.0000 0.77750  0.65110  0.14090  Biso   1.000  H
  N18      1.0000 0.79360  0.63080  0.23260  Biso   1.000  N
  N19      1.0000 0.81880  0.61830  0.37080  Biso   1.000  N
  H35      1.0000 0.82420  0.61940  0.41100  Biso   1.000  H
  H36      1.0000 0.84310  0.57740  0.35010  Biso   1.000  H
  N20      1.0000 0.55770  0.25190  0.03082  Biso   1.000  N
  N21      1.0000 0.56330  0.32570  0.00044  Biso   1.000  N
  N22      1.0000 0.93030  0.16750  0.05460  Biso   1.000  N
  N23      1.0000 0.91560  0.10750  0.02310  Biso   1.000  N
  O17      1.0000 0.66554  0.92962  0.05314  Biso   1.000  O
  O18      1.0000 0.64750  0.86520  0.96024  Biso   1.000  O
  O19      1.0000 0.45860  0.00140  0.81869  Biso   1.000  O
  O20      1.0000 0.40793  0.13560  0.83814  Biso   1.000  O
  O21      1.0000 0.67260  0.64820  0.98708  Biso   1.000  O
  O22      1.0000 0.64900  0.71870  0.07355  Biso   1.000  O
  O23      1.0000 0.44470  0.58960  0.18390  Biso   1.000  O
  O24      1.0000 0.43550  0.43870  0.18670  Biso   1.000  O
  O25      1.0000 0.69090  0.05330  0.22990  Biso   1.000  O
  O26      1.0000 0.74250  0.95380  0.16787  Biso   1.000  O
  O27      1.0000 0.78970  0.37940  0.25110  Biso   1.000  O
  O28      1.0000 0.85620  0.43140  0.17880  Biso   1.000  O
  O29      1.0000 0.18810  0.18400  0.01103  Biso   1.000  O
  O30      1.0000 0.20172  0.19040  0.91187  Biso   1.000  O
  O31      1.0000 0.00700  0.05800  0.77190  Biso   1.000  O
  O32      1.0000 0.91480  0.98970  0.81060  Biso   1.000  O
  Zn5      1.0000 0.69562  0.83512  0.11958  Biso   1.000  Zn
  Zn6      1.0000 0.71910  0.76241  0.96288  Biso   1.000  Zn
  Zn7      1.0000 0.62712  0.94588  0.24549  Biso   1.000  Zn
  Zn8      1.0000 0.87591  0.53962  0.22870  Biso   1.000  Zn
  N24      1.0000 0.72710  0.76080  0.20830  Biso   1.000  N
  C80      1.0000 0.76980  0.68440  0.20390  Biso   1.000  C
  H37      1.0000 0.78040  0.66510  0.16400  Biso   1.000  H
  N25      1.0000 0.79920  0.63250  0.25190  Biso   1.000  N
  C81      1.0000 0.78150  0.65120  0.30850  Biso   1.000  C
  C82      1.0000 0.73900  0.73030  0.31760  Biso   1.000  C
  C83      1.0000 0.71210  0.78160  0.26780  Biso   1.000  C
  N26      1.0000 0.67480  0.85750  0.28650  Biso   1.000  N
  C84      1.0000 0.67920  0.84550  0.34880  Biso   1.000  C
  H38      1.0000 0.65710  0.88820  0.37520  Biso   1.000  H
  N27      1.0000 0.71660  0.76970  0.37060  Biso   1.000  N
  N28      1.0000 0.79910  0.59360  0.36010  Biso   1.000  N
  H39      1.0000 0.82350  0.54110  0.35590  Biso   1.000  H
  H40      1.0000 0.78570  0.61020  0.39630  Biso   1.000  H
  C85      1.0000 0.63980  0.57130  0.49961  Biso   1.000  C
  C86      1.0000 0.59450  0.48840  0.47852  Biso   1.000  C
  C87      1.0000 0.59490  0.40750  0.51424  Biso   1.000  C
  H41      1.0000 0.62230  0.40480  0.55250  Biso   1.000  H
  C88      1.0000 0.55440  0.33040  0.49267  Biso   1.000  C
  C89      1.0000 0.50970  0.33570  0.43999  Biso   1.000  C
  H42      1.0000 0.48170  0.28270  0.42660  Biso   1.000  H
  C90      1.0000 0.50560  0.41710  0.40694  Biso   1.000  C
  C91      1.0000 0.55000  0.49250  0.42527  Biso   1.000  C
  H43      1.0000 0.54980  0.54770  0.40080  Biso   1.000  H
  C92      1.0000 0.45510  0.42770  0.35110  Biso   1.000  C
  C93      1.0000 0.56110  0.09080  0.53740  Biso   1.000  C
  C94      1.0000 0.51750  0.08360  0.58630  Biso   1.000  C
  H44      1.0000 0.48970  0.13600  0.59770  Biso   1.000  H
  C95      1.0000 0.51470  0.00020  0.61830  Biso   1.000  C
  C96      1.0000 0.55750  0.92510  0.60350  Biso   1.000  C
  H45      1.0000 0.55710  0.86890  0.62680  Biso   1.000  H
  C97      1.0000 0.60110  0.93170  0.55450  Biso   1.000  C
  C98      1.0000 0.60200  0.01460  0.52060  Biso   1.000  C
  H46      1.0000 0.63040  0.01890  0.48620  Biso   1.000  H
  C99      1.0000 0.64380  0.84900  0.53740  Biso   1.000  C
  C100     1.0000 0.46030  0.98880  0.66810  Biso   1.000  C
  C101     1.0000 0.73510  0.46730  0.68920  Biso   1.000  C
  C102     1.0000 0.78090  0.38840  0.66790  Biso   1.000  C
  C103     1.0000 0.77950  0.30000  0.69660  Biso   1.000  C
  H47      1.0000 0.75000  0.28950  0.72970  Biso   1.000  H
  C104     1.0000 0.82240  0.22820  0.67560  Biso   1.000  C
  C105     1.0000 0.86610  0.24320  0.62880  Biso   1.000  C
  H48      1.0000 0.89440  0.19300  0.61450  Biso   1.000  H
  C106     1.0000 0.86950  0.32990  0.60240  Biso   1.000  C
  C107     1.0000 0.82580  0.40300  0.62100  Biso   1.000  C
  H49      1.0000 0.82700  0.46250  0.60150  Biso   1.000  H
  C108     1.0000 0.82290  0.13300  0.70520  Biso   1.000  C
  C109     1.0000 0.97150  0.38880  0.47860  Biso   1.000  C
  C110     1.0000 0.94940  0.42450  0.42220  Biso   1.000  C
  H50      1.0000 0.90190  0.44880  0.41490  Biso   1.000  H
  C111     1.0000 0.99610  0.42480  0.37660  Biso   1.000  C
  C112     1.0000 0.06630  0.39090  0.38710  Biso   1.000  C
  H51      1.0000 0.09830  0.39070  0.35500  Biso   1.000  H
  C113     1.0000 0.08930  0.35800  0.44400  Biso   1.000  C
  C114     1.0000 0.04180  0.35620  0.49040  Biso   1.000  C
  H52      1.0000 0.05720  0.33300  0.52980  Biso   1.000  H
  C115     1.0000 0.16620  0.32580  0.45590  Biso   1.000  C
  C116     1.0000 0.97250  0.46010  0.31420  Biso   1.000  C
  N29      1.0000 0.69050  0.67570  0.78120  Biso   1.000  N
  C117     1.0000 0.69770  0.68790  0.84190  Biso   1.000  C
  H53      1.0000 0.67410  0.64350  0.86600  Biso   1.000  H
  N30      1.0000 0.73460  0.75590  0.87190  Biso   1.000  N
  C118     1.0000 0.77320  0.82050  0.84090  Biso   1.000  C
  C119     1.0000 0.76790  0.81450  0.77740  Biso   1.000  C
  C120     1.0000 0.72520  0.74210  0.74920  Biso   1.000  C
  N31      1.0000 0.72680  0.75160  0.68840  Biso   1.000  N
  C121     1.0000 0.76740  0.82670  0.68030  Biso   1.000  C
  H54      1.0000 0.77750  0.84890  0.64090  Biso   1.000  H
  N32      1.0000 0.79360  0.86920  0.73260  Biso   1.000  N
  N33      1.0000 0.81880  0.88170  0.87080  Biso   1.000  N
  H55      1.0000 0.82420  0.88060  0.91100  Biso   1.000  H
  H56      1.0000 0.84310  0.92260  0.85010  Biso   1.000  H
  N34      1.0000 0.55770  0.24810  0.53082  Biso   1.000  N
  N35      1.0000 0.56330  0.17430  0.50044  Biso   1.000  N
  N36      1.0000 0.93030  0.33250  0.55460  Biso   1.000  N
  N37      1.0000 0.91560  0.39250  0.52310  Biso   1.000  N
  O33      1.0000 0.66554  0.57038  0.55314  Biso   1.000  O
  O34      1.0000 0.64750  0.63480  0.46024  Biso   1.000  O
  O35      1.0000 0.45860  0.49860  0.31869  Biso   1.000  O
  O36      1.0000 0.40793  0.36440  0.33814  Biso   1.000  O
  O37      1.0000 0.67260  0.85180  0.48708  Biso   1.000  O
  O38      1.0000 0.64900  0.78130  0.57355  Biso   1.000  O
  O39      1.0000 0.44470  0.91040  0.68390  Biso   1.000  O
  O40      1.0000 0.43550  0.06130  0.68670  Biso   1.000  O
  O41      1.0000 0.69090  0.44670  0.72990  Biso   1.000  O
  O42      1.0000 0.74250  0.54620  0.66787  Biso   1.000  O
  O43      1.0000 0.78970  0.12060  0.75110  Biso   1.000  O
  O44      1.0000 0.85620  0.06860  0.67880  Biso   1.000  O
  O45      1.0000 0.18810  0.31600  0.51103  Biso   1.000  O
  O46      1.0000 0.20172  0.30960  0.41187  Biso   1.000  O
  O47      1.0000 0.00700  0.44200  0.27190  Biso   1.000  O
  O48      1.0000 0.91480  0.51030  0.31060  Biso   1.000  O
  Zn9      1.0000 0.69562  0.66488  0.61958  Biso   1.000  Zn
  Zn10     1.0000 0.71910  0.73759  0.46288  Biso   1.000  Zn
  Zn11     1.0000 0.62712  0.55412  0.74549  Biso   1.000  Zn
  Zn12     1.0000 0.87591  0.96038  0.72870  Biso   1.000  Zn
  N38      1.0000 0.72710  0.73920  0.70830  Biso   1.000  N
  C122     1.0000 0.76980  0.81560  0.70390  Biso   1.000  C
  H57      1.0000 0.78040  0.83490  0.66400  Biso   1.000  H
  N39      1.0000 0.79920  0.86750  0.75190  Biso   1.000  N
  C123     1.0000 0.78150  0.84880  0.80850  Biso   1.000  C
  C124     1.0000 0.73900  0.76970  0.81760  Biso   1.000  C
  C125     1.0000 0.71210  0.71840  0.76780  Biso   1.000  C
  N40      1.0000 0.67480  0.64250  0.78650  Biso   1.000  N
  C126     1.0000 0.67920  0.65450  0.84880  Biso   1.000  C
  H58      1.0000 0.65710  0.61180  0.87520  Biso   1.000  H
  N41      1.0000 0.71660  0.73030  0.87060  Biso   1.000  N
  N42      1.0000 0.79910  0.90640  0.86010  Biso   1.000  N
  H59      1.0000 0.82350  0.95890  0.85590  Biso   1.000  H
  H60      1.0000 0.78570  0.88980  0.89630  Biso   1.000  H
  C127     1.0000 0.36020  0.07130  0.00039  Biso   1.000  C
  C128     1.0000 0.40550  0.98840  0.02148  Biso   1.000  C
  C129     1.0000 0.40510  0.90750  0.98576  Biso   1.000  C
  H61      1.0000 0.37770  0.90480  0.94750  Biso   1.000  H
  C130     1.0000 0.44560  0.83040  0.00733  Biso   1.000  C
  C131     1.0000 0.49030  0.83570  0.06001  Biso   1.000  C
  H62      1.0000 0.51830  0.78270  0.07340  Biso   1.000  H
  C132     1.0000 0.49440  0.91710  0.09306  Biso   1.000  C
  C133     1.0000 0.45000  0.99250  0.07473  Biso   1.000  C
  H63      1.0000 0.45020  0.04770  0.09920  Biso   1.000  H
  C134     1.0000 0.54490  0.92770  0.14890  Biso   1.000  C
  C135     1.0000 0.43890  0.59080  0.96260  Biso   1.000  C
  C136     1.0000 0.48250  0.58360  0.91370  Biso   1.000  C
  H64      1.0000 0.51030  0.63600  0.90230  Biso   1.000  H
  C137     1.0000 0.48530  0.50020  0.88170  Biso   1.000  C
  C138     1.0000 0.44250  0.42510  0.89650  Biso   1.000  C
  H65      1.0000 0.44290  0.36890  0.87320  Biso   1.000  H
  C139     1.0000 0.39890  0.43170  0.94550  Biso   1.000  C
  C140     1.0000 0.39800  0.51460  0.97940  Biso   1.000  C
  H66      1.0000 0.36960  0.51890  0.01380  Biso   1.000  H
  C141     1.0000 0.35620  0.34900  0.96260  Biso   1.000  C
  C142     1.0000 0.53970  0.48880  0.83190  Biso   1.000  C
  C143     1.0000 0.26490  0.96730  0.81080  Biso   1.000  C
  C144     1.0000 0.21910  0.88840  0.83210  Biso   1.000  C
  C145     1.0000 0.22050  0.80000  0.80340  Biso   1.000  C
  H67      1.0000 0.25000  0.78950  0.77030  Biso   1.000  H
  C146     1.0000 0.17760  0.72820  0.82440  Biso   1.000  C
  C147     1.0000 0.13390  0.74320  0.87120  Biso   1.000  C
  H68      1.0000 0.10560  0.69300  0.88550  Biso   1.000  H
  C148     1.0000 0.13050  0.82990  0.89760  Biso   1.000  C
  C149     1.0000 0.17420  0.90300  0.87900  Biso   1.000  C
  H69      1.0000 0.17300  0.96250  0.89850  Biso   1.000  H
  C150     1.0000 0.17710  0.63300  0.79480  Biso   1.000  C
  C151     1.0000 0.02850  0.88880  0.02140  Biso   1.000  C
  C152     1.0000 0.05060  0.92450  0.07780  Biso   1.000  C
  H70      1.0000 0.09810  0.94880  0.08510  Biso   1.000  H
  C153     1.0000 0.00390  0.92480  0.12340  Biso   1.000  C
  C154     1.0000 0.93370  0.89090  0.11290  Biso   1.000  C
  H71      1.0000 0.90170  0.89070  0.14500  Biso   1.000  H
  C155     1.0000 0.91070  0.85800  0.05600  Biso   1.000  C
  C156     1.0000 0.95820  0.85620  0.00960  Biso   1.000  C
  H72      1.0000 0.94280  0.83300  0.97020  Biso   1.000  H
  C157     1.0000 0.83380  0.82580  0.04410  Biso   1.000  C
  C158     1.0000 0.02750  0.96010  0.18580  Biso   1.000  C
  N43      1.0000 0.30950  0.17570  0.71880  Biso   1.000  N
  C159     1.0000 0.30230  0.18790  0.65810  Biso   1.000  C
  H73      1.0000 0.32590  0.14350  0.63400  Biso   1.000  H
  N44      1.0000 0.26540  0.25590  0.62810  Biso   1.000  N
  C160     1.0000 0.22680  0.32050  0.65910  Biso   1.000  C
  C161     1.0000 0.23210  0.31450  0.72260  Biso   1.000  C
  C162     1.0000 0.27480  0.24210  0.75080  Biso   1.000  C
  N45      1.0000 0.27320  0.25160  0.81160  Biso   1.000  N
  C163     1.0000 0.23260  0.32670  0.81970  Biso   1.000  C
  H74      1.0000 0.22250  0.34890  0.85910  Biso   1.000  H
  N46      1.0000 0.20640  0.36920  0.76740  Biso   1.000  N
  N47      1.0000 0.18120  0.38170  0.62920  Biso   1.000  N
  H75      1.0000 0.17580  0.38060  0.58900  Biso   1.000  H
  H76      1.0000 0.15690  0.42260  0.64990  Biso   1.000  H
  N48      1.0000 0.44230  0.74810  0.96918  Biso   1.000  N
  N49      1.0000 0.43670  0.67430  0.99956  Biso   1.000  N
  N50      1.0000 0.06970  0.83250  0.94540  Biso   1.000  N
  N51      1.0000 0.08440  0.89250  0.97690  Biso   1.000  N
  O49      1.0000 0.33446  0.07038  0.94686  Biso   1.000  O
  O50      1.0000 0.35250  0.13480  0.03976  Biso   1.000  O
  O51      1.0000 0.54140  0.99860  0.18131  Biso   1.000  O
  O52      1.0000 0.59207  0.86440  0.16186  Biso   1.000  O
  O53      1.0000 0.32740  0.35180  0.01292  Biso   1.000  O
  O54      1.0000 0.35100  0.28130  0.92645  Biso   1.000  O
  O55      1.0000 0.55530  0.41040  0.81610  Biso   1.000  O
  O56      1.0000 0.56450  0.56130  0.81330  Biso   1.000  O
  O57      1.0000 0.30910  0.94670  0.77010  Biso   1.000  O
  O58      1.0000 0.25750  0.04620  0.83213  Biso   1.000  O
  O59      1.0000 0.21030  0.62060  0.74890  Biso   1.000  O
  O60      1.0000 0.14380  0.56860  0.82120  Biso   1.000  O
  O61      1.0000 0.81190  0.81600  0.98897  Biso   1.000  O
  O62      1.0000 0.79828  0.80960  0.08813  Biso   1.000  O
  O63      1.0000 0.99300  0.94200  0.22810  Biso   1.000  O
  O64      1.0000 0.08520  0.01030  0.18940  Biso   1.000  O
  Zn13     1.0000 0.30438  0.16488  0.88042  Biso   1.000  Zn
  Zn14     1.0000 0.28090  0.23759  0.03712  Biso   1.000  Zn
  Zn15     1.0000 0.37288  0.05412  0.75451  Biso   1.000  Zn
  Zn16     1.0000 0.12409  0.46038  0.77130  Biso   1.000  Zn
  N52      1.0000 0.27290  0.23920  0.79170  Biso   1.000  N
  C164     1.0000 0.23020  0.31560  0.79610  Biso   1.000  C
  H77      1.0000 0.21960  0.33490  0.83600  Biso   1.000  H
  N53      1.0000 0.20080  0.36750  0.74810  Biso   1.000  N
  C165     1.0000 0.21850  0.34880  0.69150  Biso   1.000  C
  C166     1.0000 0.26100  0.26970  0.68240  Biso   1.000  C
  C167     1.0000 0.28790  0.21840  0.73220  Biso   1.000  C
  N54      1.0000 0.32520  0.14250  0.71350  Biso   1.000  N
  C168     1.0000 0.32080  0.15450  0.65120  Biso   1.000  C
  H78      1.0000 0.34290  0.11180  0.62480  Biso   1.000  H
  N55      1.0000 0.28340  0.23030  0.62940  Biso   1.000  N
  N56      1.0000 0.20090  0.40640  0.63990  Biso   1.000  N
  H79      1.0000 0.17650  0.45890  0.64410  Biso   1.000  H
  H80      1.0000 0.21430  0.38980  0.60370  Biso   1.000  H
