data_image0
_cell_length_a       28.896
_cell_length_b       8.6749
_cell_length_c       14.2513
_cell_angle_alpha    90
_cell_angle_beta     116.056
_cell_angle_gamma    90

_symmetry_space_group_name_H-M    "P 1"
_symmetry_int_tables_number       1

loop_
  _symmetry_equiv_pos_as_xyz
  'x, y, z'

loop_
  _atom_site_label
  _atom_site_occupancy
  _atom_site_fract_x
  _atom_site_fract_y
  _atom_site_fract_z
  _atom_site_thermal_displace_type
  _atom_site_B_iso_or_equiv
  _atom_site_type_symbol
  C1       1.0000 0.83560  0.76970  0.66520  Biso   1.000  C
  C2       1.0000 0.88450  0.76910  0.76480  Biso   1.000  C
  C3       1.0000 0.90710  0.63210  0.80840  Biso   1.000  C
  H1       1.0000 0.89170  0.53740  0.77630  Biso   1.000  H
  C4       1.0000 0.95300  0.63200  0.90040  Biso   1.000  C
  H2       1.0000 0.96870  0.53640  0.92970  Biso   1.000  H
  C5       1.0000 0.97640  0.76930  0.95060  Biso   1.000  C
  C6       1.0000 0.95290  0.90450  0.90180  Biso   1.000  C
  H3       1.0000 0.96870  0.00030  0.93050  Biso   1.000  H
  C7       1.0000 0.90680  0.90360  0.81200  Biso   1.000  C
  H4       1.0000 0.89050  0.99860  0.78280  Biso   1.000  H
  C8       1.0000 0.78440  0.41900  0.36170  Biso   1.000  C
  C9       1.0000 0.79180  0.41800  0.26380  Biso   1.000  C
  C10      1.0000 0.81710  0.29380  0.24370  Biso   1.000  C
  H5       1.0000 0.82970  0.21110  0.29200  Biso   1.000  H
  C11      1.0000 0.82360  0.29190  0.15280  Biso   1.000  C
  H6       1.0000 0.84260  0.21060  0.14140  Biso   1.000  H
  C12      1.0000 0.80260  0.40820  0.07780  Biso   1.000  C
  C13      1.0000 0.77890  0.53340  0.10020  Biso   1.000  C
  H7       1.0000 0.76600  0.61620  0.05200  Biso   1.000  H
  C14      1.0000 0.77390  0.53770  0.19320  Biso   1.000  C
  H8       1.0000 0.75800  0.62410  0.20810  Biso   1.000  H
  C15      1.0000 0.80200  0.31830  0.67600  Biso   1.000  C
  C16      1.0000 0.80570  0.36000  0.78030  Biso   1.000  C
  C17      1.0000 0.76750  0.44580  0.78920  Biso   1.000  C
  H9       1.0000 0.74130  0.49250  0.72900  Biso   1.000  H
  C18      1.0000 0.76750  0.46400  0.88690  Biso   1.000  C
  H10      1.0000 0.74060  0.52120  0.89210  Biso   1.000  H
  C19      1.0000 0.80590  0.40000  0.97570  Biso   1.000  C
  C20      1.0000 0.84580  0.31830  0.96760  Biso   1.000  C
  H11      1.0000 0.87310  0.27670  0.02830  Biso   1.000  H
  C21      1.0000 0.84510  0.29810  0.86940  Biso   1.000  C
  H12      1.0000 0.87200  0.24160  0.86380  Biso   1.000  H
  O1       1.0000 0.81967  0.89980  0.62530  Biso   1.000  O
  O2       1.0000 0.81396  0.64470  0.62770  Biso   1.000  O
  O3       1.0000 0.77407  0.54470  0.39110  Biso   1.000  O
  O4       1.0000 0.78924  0.29100  0.40770  Biso   1.000  O
  O5       1.0000 0.76118  0.35810  0.59350  Biso   1.000  O
  O6       1.0000 0.83541  0.23220  0.67030  Biso   1.000  O
  Pr1      1.0000 0.72699  0.59698  0.49427  Biso   1.000  Pr
  O7       1.0000 0.65830  0.50500  0.54500  Biso   1.000  O
  N1       1.0000 0.60270  0.30340  0.49790  Biso   1.000  N
  C22      1.0000 0.64900  0.36700  0.54830  Biso   1.000  C
  H13      1.0000 0.67690  0.30110  0.58960  Biso   1.000  H
  C23      1.0000 0.56200  0.39900  0.43760  Biso   1.000  C
  H14      1.0000 0.53020  0.33940  0.40170  Biso   1.000  H
  H15      1.0000 0.57010  0.45200  0.38590  Biso   1.000  H
  H16      1.0000 0.55750  0.47490  0.48370  Biso   1.000  H
  C24      1.0000 0.59610  0.13800  0.50680  Biso   1.000  C
  H17      1.0000 0.57420  0.09460  0.43790  Biso   1.000  H
  H18      1.0000 0.58020  0.11900  0.55400  Biso   1.000  H
  H19      1.0000 0.63010  0.08890  0.53490  Biso   1.000  H
  O8       1.0000 0.65920  0.50300  0.54000  Biso   1.000  O
  N2       1.0000 0.61420  0.33870  0.59590  Biso   1.000  N
  C25      1.0000 0.64660  0.37500  0.55700  Biso   1.000  C
  H20      1.0000 0.66230  0.29060  0.54000  Biso   1.000  H
  C26      1.0000 0.58950  0.45600  0.62400  Biso   1.000  C
  H21      1.0000 0.58260  0.54490  0.57720  Biso   1.000  H
  H22      1.0000 0.61320  0.48560  0.69500  Biso   1.000  H
  H23      1.0000 0.55710  0.41910  0.62230  Biso   1.000  H
  C27      1.0000 0.60580  0.17400  0.60940  Biso   1.000  C
  H24      1.0000 0.57360  0.14160  0.55100  Biso   1.000  H
  H25      1.0000 0.60370  0.15700  0.67540  Biso   1.000  H
  H26      1.0000 0.63450  0.11460  0.60910  Biso   1.000  H
  C28      1.0000 0.33560  0.26970  0.66520  Biso   1.000  C
  C29      1.0000 0.38450  0.26910  0.76480  Biso   1.000  C
  C30      1.0000 0.40710  0.13210  0.80840  Biso   1.000  C
  H27      1.0000 0.39170  0.03740  0.77630  Biso   1.000  H
  C31      1.0000 0.45300  0.13200  0.90040  Biso   1.000  C
  H28      1.0000 0.46870  0.03640  0.92970  Biso   1.000  H
  C32      1.0000 0.47640  0.26930  0.95060  Biso   1.000  C
  C33      1.0000 0.45290  0.40450  0.90180  Biso   1.000  C
  H29      1.0000 0.46870  0.50030  0.93050  Biso   1.000  H
  C34      1.0000 0.40680  0.40360  0.81200  Biso   1.000  C
  H30      1.0000 0.39050  0.49860  0.78280  Biso   1.000  H
  C35      1.0000 0.28440  0.91900  0.36170  Biso   1.000  C
  C36      1.0000 0.29180  0.91800  0.26380  Biso   1.000  C
  C37      1.0000 0.31710  0.79380  0.24370  Biso   1.000  C
  H31      1.0000 0.32970  0.71110  0.29200  Biso   1.000  H
  C38      1.0000 0.32360  0.79190  0.15280  Biso   1.000  C
  H32      1.0000 0.34260  0.71060  0.14140  Biso   1.000  H
  C39      1.0000 0.30260  0.90820  0.07780  Biso   1.000  C
  C40      1.0000 0.27890  0.03340  0.10020  Biso   1.000  C
  H33      1.0000 0.26600  0.11620  0.05200  Biso   1.000  H
  C41      1.0000 0.27390  0.03770  0.19320  Biso   1.000  C
  H34      1.0000 0.25800  0.12410  0.20810  Biso   1.000  H
  C42      1.0000 0.30200  0.81830  0.67600  Biso   1.000  C
  C43      1.0000 0.30570  0.86000  0.78030  Biso   1.000  C
  C44      1.0000 0.26750  0.94580  0.78920  Biso   1.000  C
  H35      1.0000 0.24130  0.99250  0.72900  Biso   1.000  H
  C45      1.0000 0.26750  0.96400  0.88690  Biso   1.000  C
  H36      1.0000 0.24060  0.02120  0.89210  Biso   1.000  H
  C46      1.0000 0.30590  0.90000  0.97570  Biso   1.000  C
  C47      1.0000 0.34580  0.81830  0.96760  Biso   1.000  C
  H37      1.0000 0.37310  0.77670  0.02830  Biso   1.000  H
  C48      1.0000 0.34510  0.79810  0.86940  Biso   1.000  C
  H38      1.0000 0.37200  0.74160  0.86380  Biso   1.000  H
  O9       1.0000 0.31967  0.39980  0.62530  Biso   1.000  O
  O10      1.0000 0.31396  0.14470  0.62770  Biso   1.000  O
  O11      1.0000 0.27407  0.04470  0.39110  Biso   1.000  O
  O12      1.0000 0.28924  0.79100  0.40770  Biso   1.000  O
  O13      1.0000 0.26118  0.85810  0.59350  Biso   1.000  O
  O14      1.0000 0.33541  0.73220  0.67030  Biso   1.000  O
  Pr2      1.0000 0.22699  0.09698  0.49427  Biso   1.000  Pr
  O15      1.0000 0.15830  0.00500  0.54500  Biso   1.000  O
  N3       1.0000 0.10270  0.80340  0.49790  Biso   1.000  N
  C49      1.0000 0.14900  0.86700  0.54830  Biso   1.000  C
  H39      1.0000 0.17690  0.80110  0.58960  Biso   1.000  H
  C50      1.0000 0.06200  0.89900  0.43760  Biso   1.000  C
  H40      1.0000 0.03020  0.83940  0.40170  Biso   1.000  H
  H41      1.0000 0.07010  0.95200  0.38590  Biso   1.000  H
  H42      1.0000 0.05750  0.97490  0.48370  Biso   1.000  H
  C51      1.0000 0.09610  0.63800  0.50680  Biso   1.000  C
  H43      1.0000 0.07420  0.59460  0.43790  Biso   1.000  H
  H44      1.0000 0.08020  0.61900  0.55400  Biso   1.000  H
  H45      1.0000 0.13010  0.58890  0.53490  Biso   1.000  H
  O16      1.0000 0.15920  0.00300  0.54000  Biso   1.000  O
  N4       1.0000 0.11420  0.83870  0.59590  Biso   1.000  N
  C52      1.0000 0.14660  0.87500  0.55700  Biso   1.000  C
  H46      1.0000 0.16230  0.79060  0.54000  Biso   1.000  H
  C53      1.0000 0.08950  0.95600  0.62400  Biso   1.000  C
  H47      1.0000 0.08260  0.04490  0.57720  Biso   1.000  H
  H48      1.0000 0.11320  0.98560  0.69500  Biso   1.000  H
  H49      1.0000 0.05710  0.91910  0.62230  Biso   1.000  H
  C54      1.0000 0.10580  0.67400  0.60940  Biso   1.000  C
  H50      1.0000 0.07360  0.64160  0.55100  Biso   1.000  H
  H51      1.0000 0.10370  0.65700  0.67540  Biso   1.000  H
  H52      1.0000 0.13450  0.61460  0.60910  Biso   1.000  H
  C55      1.0000 0.16440  0.76970  0.33480  Biso   1.000  C
  C56      1.0000 0.11550  0.76910  0.23520  Biso   1.000  C
  C57      1.0000 0.09290  0.63210  0.19160  Biso   1.000  C
  H53      1.0000 0.10830  0.53740  0.22370  Biso   1.000  H
  C58      1.0000 0.04700  0.63200  0.09960  Biso   1.000  C
  H54      1.0000 0.03130  0.53640  0.07030  Biso   1.000  H
  C59      1.0000 0.02360  0.76930  0.04940  Biso   1.000  C
  C60      1.0000 0.04710  0.90450  0.09820  Biso   1.000  C
  H55      1.0000 0.03130  0.00030  0.06950  Biso   1.000  H
  C61      1.0000 0.09320  0.90360  0.18800  Biso   1.000  C
  H56      1.0000 0.10950  0.99860  0.21720  Biso   1.000  H
  C62      1.0000 0.21560  0.41900  0.63830  Biso   1.000  C
  C63      1.0000 0.20820  0.41800  0.73620  Biso   1.000  C
  C64      1.0000 0.18290  0.29380  0.75630  Biso   1.000  C
  H57      1.0000 0.17030  0.21110  0.70800  Biso   1.000  H
  C65      1.0000 0.17640  0.29190  0.84720  Biso   1.000  C
  H58      1.0000 0.15740  0.21060  0.85860  Biso   1.000  H
  C66      1.0000 0.19740  0.40820  0.92220  Biso   1.000  C
  C67      1.0000 0.22110  0.53340  0.89980  Biso   1.000  C
  H59      1.0000 0.23400  0.61620  0.94800  Biso   1.000  H
  C68      1.0000 0.22610  0.53770  0.80680  Biso   1.000  C
  H60      1.0000 0.24200  0.62410  0.79190  Biso   1.000  H
  C69      1.0000 0.19800  0.31830  0.32400  Biso   1.000  C
  C70      1.0000 0.19430  0.36000  0.21970  Biso   1.000  C
  C71      1.0000 0.23250  0.44580  0.21080  Biso   1.000  C
  H61      1.0000 0.25870  0.49250  0.27100  Biso   1.000  H
  C72      1.0000 0.23250  0.46400  0.11310  Biso   1.000  C
  H62      1.0000 0.25940  0.52120  0.10790  Biso   1.000  H
  C73      1.0000 0.19410  0.40000  0.02430  Biso   1.000  C
  C74      1.0000 0.15420  0.31830  0.03240  Biso   1.000  C
  H63      1.0000 0.12690  0.27670  0.97170  Biso   1.000  H
  C75      1.0000 0.15490  0.29810  0.13060  Biso   1.000  C
  H64      1.0000 0.12800  0.24160  0.13620  Biso   1.000  H
  O17      1.0000 0.18033  0.89980  0.37470  Biso   1.000  O
  O18      1.0000 0.18604  0.64470  0.37230  Biso   1.000  O
  O19      1.0000 0.22593  0.54470  0.60890  Biso   1.000  O
  O20      1.0000 0.21076  0.29100  0.59230  Biso   1.000  O
  O21      1.0000 0.23882  0.35810  0.40650  Biso   1.000  O
  O22      1.0000 0.16459  0.23220  0.32970  Biso   1.000  O
  Pr3      1.0000 0.27301  0.59698  0.50573  Biso   1.000  Pr
  O23      1.0000 0.34170  0.50500  0.45500  Biso   1.000  O
  N5       1.0000 0.39730  0.30340  0.50210  Biso   1.000  N
  C76      1.0000 0.35100  0.36700  0.45170  Biso   1.000  C
  H65      1.0000 0.32310  0.30110  0.41040  Biso   1.000  H
  C77      1.0000 0.43800  0.39900  0.56240  Biso   1.000  C
  H66      1.0000 0.46980  0.33940  0.59830  Biso   1.000  H
  H67      1.0000 0.42990  0.45200  0.61410  Biso   1.000  H
  H68      1.0000 0.44250  0.47490  0.51630  Biso   1.000  H
  C78      1.0000 0.40390  0.13800  0.49320  Biso   1.000  C
  H69      1.0000 0.42580  0.09460  0.56210  Biso   1.000  H
  H70      1.0000 0.41980  0.11900  0.44600  Biso   1.000  H
  H71      1.0000 0.36990  0.08890  0.46510  Biso   1.000  H
  O24      1.0000 0.34080  0.50300  0.46000  Biso   1.000  O
  N6       1.0000 0.38580  0.33870  0.40410  Biso   1.000  N
  C79      1.0000 0.35340  0.37500  0.44300  Biso   1.000  C
  H72      1.0000 0.33770  0.29060  0.46000  Biso   1.000  H
  C80      1.0000 0.41050  0.45600  0.37600  Biso   1.000  C
  H73      1.0000 0.41740  0.54490  0.42280  Biso   1.000  H
  H74      1.0000 0.38680  0.48560  0.30500  Biso   1.000  H
  H75      1.0000 0.44290  0.41910  0.37770  Biso   1.000  H
  C81      1.0000 0.39420  0.17400  0.39060  Biso   1.000  C
  H76      1.0000 0.42640  0.14160  0.44900  Biso   1.000  H
  H77      1.0000 0.39630  0.15700  0.32460  Biso   1.000  H
  H78      1.0000 0.36550  0.11460  0.39090  Biso   1.000  H
  C82      1.0000 0.66440  0.26970  0.33480  Biso   1.000  C
  C83      1.0000 0.61550  0.26910  0.23520  Biso   1.000  C
  C84      1.0000 0.59290  0.13210  0.19160  Biso   1.000  C
  H79      1.0000 0.60830  0.03740  0.22370  Biso   1.000  H
  C85      1.0000 0.54700  0.13200  0.09960  Biso   1.000  C
  H80      1.0000 0.53130  0.03640  0.07030  Biso   1.000  H
  C86      1.0000 0.52360  0.26930  0.04940  Biso   1.000  C
  C87      1.0000 0.54710  0.40450  0.09820  Biso   1.000  C
  H81      1.0000 0.53130  0.50030  0.06950  Biso   1.000  H
  C88      1.0000 0.59320  0.40360  0.18800  Biso   1.000  C
  H82      1.0000 0.60950  0.49860  0.21720  Biso   1.000  H
  C89      1.0000 0.71560  0.91900  0.63830  Biso   1.000  C
  C90      1.0000 0.70820  0.91800  0.73620  Biso   1.000  C
  C91      1.0000 0.68290  0.79380  0.75630  Biso   1.000  C
  H83      1.0000 0.67030  0.71110  0.70800  Biso   1.000  H
  C92      1.0000 0.67640  0.79190  0.84720  Biso   1.000  C
  H84      1.0000 0.65740  0.71060  0.85860  Biso   1.000  H
  C93      1.0000 0.69740  0.90820  0.92220  Biso   1.000  C
  C94      1.0000 0.72110  0.03340  0.89980  Biso   1.000  C
  H85      1.0000 0.73400  0.11620  0.94800  Biso   1.000  H
  C95      1.0000 0.72610  0.03770  0.80680  Biso   1.000  C
  H86      1.0000 0.74200  0.12410  0.79190  Biso   1.000  H
  C96      1.0000 0.69800  0.81830  0.32400  Biso   1.000  C
  C97      1.0000 0.69430  0.86000  0.21970  Biso   1.000  C
  C98      1.0000 0.73250  0.94580  0.21080  Biso   1.000  C
  H87      1.0000 0.75870  0.99250  0.27100  Biso   1.000  H
  C99      1.0000 0.73250  0.96400  0.11310  Biso   1.000  C
  H88      1.0000 0.75940  0.02120  0.10790  Biso   1.000  H
  C100     1.0000 0.69410  0.90000  0.02430  Biso   1.000  C
  C101     1.0000 0.65420  0.81830  0.03240  Biso   1.000  C
  H89      1.0000 0.62690  0.77670  0.97170  Biso   1.000  H
  C102     1.0000 0.65490  0.79810  0.13060  Biso   1.000  C
  H90      1.0000 0.62800  0.74160  0.13620  Biso   1.000  H
  O25      1.0000 0.68033  0.39980  0.37470  Biso   1.000  O
  O26      1.0000 0.68604  0.14470  0.37230  Biso   1.000  O
  O27      1.0000 0.72593  0.04470  0.60890  Biso   1.000  O
  O28      1.0000 0.71076  0.79100  0.59230  Biso   1.000  O
  O29      1.0000 0.73882  0.85810  0.40650  Biso   1.000  O
  O30      1.0000 0.66459  0.73220  0.32970  Biso   1.000  O
  Pr4      1.0000 0.77301  0.09698  0.50573  Biso   1.000  Pr
  O31      1.0000 0.84170  0.00500  0.45500  Biso   1.000  O
  N7       1.0000 0.89730  0.80340  0.50210  Biso   1.000  N
  C103     1.0000 0.85100  0.86700  0.45170  Biso   1.000  C
  H91      1.0000 0.82310  0.80110  0.41040  Biso   1.000  H
  C104     1.0000 0.93800  0.89900  0.56240  Biso   1.000  C
  H92      1.0000 0.96980  0.83940  0.59830  Biso   1.000  H
  H93      1.0000 0.92990  0.95200  0.61410  Biso   1.000  H
  H94      1.0000 0.94250  0.97490  0.51630  Biso   1.000  H
  C105     1.0000 0.90390  0.63800  0.49320  Biso   1.000  C
  H95      1.0000 0.92580  0.59460  0.56210  Biso   1.000  H
  H96      1.0000 0.91980  0.61900  0.44600  Biso   1.000  H
  H97      1.0000 0.86990  0.58890  0.46510  Biso   1.000  H
  O32      1.0000 0.84080  0.00300  0.46000  Biso   1.000  O
  N8       1.0000 0.88580  0.83870  0.40410  Biso   1.000  N
  C106     1.0000 0.85340  0.87500  0.44300  Biso   1.000  C
  H98      1.0000 0.83770  0.79060  0.46000  Biso   1.000  H
  C107     1.0000 0.91050  0.95600  0.37600  Biso   1.000  C
  H99      1.0000 0.91740  0.04490  0.42280  Biso   1.000  H
  H100     1.0000 0.88680  0.98560  0.30500  Biso   1.000  H
  H101     1.0000 0.94290  0.91910  0.37770  Biso   1.000  H
  C108     1.0000 0.89420  0.67400  0.39060  Biso   1.000  C
  H102     1.0000 0.92640  0.64160  0.44900  Biso   1.000  H
  H103     1.0000 0.89630  0.65700  0.32460  Biso   1.000  H
  H104     1.0000 0.86550  0.61460  0.39090  Biso   1.000  H
