data_image0
_cell_length_a       10.162
_cell_length_b       15.986
_cell_length_c       23.971
_cell_angle_alpha    90
_cell_angle_beta     99.582
_cell_angle_gamma    90

_symmetry_space_group_name_H-M    "P 1"
_symmetry_int_tables_number       1

loop_
  _symmetry_equiv_pos_as_xyz
  'x, y, z'

loop_
  _atom_site_label
  _atom_site_occupancy
  _atom_site_fract_x
  _atom_site_fract_y
  _atom_site_fract_z
  _atom_site_thermal_displace_type
  _atom_site_B_iso_or_equiv
  _atom_site_type_symbol
  Co1      1.0000 0.16900  0.49825  0.66578  Biso   1.000  Co
  Co2      1.0000 0.98648  0.61151  0.75450  Biso   1.000  Co
  O1       1.0000 0.99510  0.44422  0.63900  Biso   1.000  O
  O2       1.0000 0.90490  0.52730  0.69528  Biso   1.000  O
  O3       1.0000 0.40640  0.52590  0.68027  Biso   1.000  O
  O4       1.0000 0.29370  0.42929  0.62922  Biso   1.000  O
  O5       1.0000 0.48660  0.17974  0.66629  Biso   1.000  O
  O6       1.0000 0.64640  0.08930  0.68479  Biso   1.000  O
  O7       1.0000 0.61340  0.97558  0.30258  Biso   1.000  O
  O8       1.0000 0.70680  0.04886  0.24208  Biso   1.000  O
  O9       1.0000 0.86140  0.33199  0.28078  Biso   1.000  O
  O10      1.0000 0.85330  0.38731  0.36527  Biso   1.000  O
  O11      1.0000 0.83420  0.68650  0.71040  Biso   1.000  O
  N1       1.0000 0.69220  0.78880  0.68660  Biso   1.000  N
  C1       1.0000 0.89870  0.46970  0.66071  Biso   1.000  C
  C2       1.0000 0.76710  0.42630  0.64447  Biso   1.000  C
  C3       1.0000 0.76230  0.34960  0.61688  Biso   1.000  C
  H1       1.0000 0.84050  0.32570  0.60890  Biso   1.000  H
  C4       1.0000 0.64130  0.30840  0.60116  Biso   1.000  C
  C5       1.0000 0.52490  0.34590  0.61233  Biso   1.000  C
  H2       1.0000 0.44340  0.31900  0.60170  Biso   1.000  H
  C6       1.0000 0.52900  0.42290  0.63904  Biso   1.000  C
  C7       1.0000 0.65100  0.46200  0.65624  Biso   1.000  C
  H3       1.0000 0.65460  0.51250  0.67580  Biso   1.000  H
  C8       1.0000 0.40320  0.46280  0.65085  Biso   1.000  C
  C9       1.0000 0.63880  0.22730  0.56948  Biso   1.000  C
  C10      1.0000 0.67210  0.22940  0.51589  Biso   1.000  C
  H4       1.0000 0.69030  0.28090  0.50090  Biso   1.000  H
  C11      1.0000 0.67970  0.15860  0.48350  Biso   1.000  C
  C12      1.0000 0.65720  0.08210  0.50787  Biso   1.000  C
  H5       1.0000 0.66410  0.03300  0.48770  Biso   1.000  H
  C13      1.0000 0.62490  0.07790  0.56150  Biso   1.000  C
  H6       1.0000 0.60980  0.02610  0.57680  Biso   1.000  H
  C14      1.0000 0.61450  0.14960  0.59282  Biso   1.000  C
  C15      1.0000 0.57970  0.13930  0.65217  Biso   1.000  C
  C16      1.0000 0.71090  0.16490  0.42457  Biso   1.000  C
  C17      1.0000 0.76410  0.23840  0.40593  Biso   1.000  C
  H7       1.0000 0.78180  0.28310  0.43080  Biso   1.000  H
  C18      1.0000 0.79120  0.24650  0.35113  Biso   1.000  C
  C19      1.0000 0.76500  0.17890  0.31413  Biso   1.000  C
  H8       1.0000 0.78400  0.18310  0.27760  Biso   1.000  H
  C20      1.0000 0.71100  0.10577  0.33121  Biso   1.000  C
  C21      1.0000 0.68360  0.09890  0.38597  Biso   1.000  C
  H9       1.0000 0.64660  0.04970  0.39710  Biso   1.000  H
  C22      1.0000 0.83980  0.32720  0.33056  Biso   1.000  C
  C23      1.0000 0.67390  0.03680  0.28881  Biso   1.000  C
  C24      1.0000 0.79740  0.75850  0.71040  Biso   1.000  C
  C25      1.0000 0.59680  0.72750  0.66250  Biso   1.000  C
  H10      1.0000 0.63360  0.67250  0.67010  Biso   1.000  H
  H11      1.0000 0.57550  0.73590  0.62230  Biso   1.000  H
  H12      1.0000 0.51720  0.73290  0.67890  Biso   1.000  H
  C26      1.0000 0.91410  0.82260  0.73140  Biso   1.000  C
  H13      1.0000 0.93120  0.82360  0.77200  Biso   1.000  H
  H14      1.0000 0.88840  0.87740  0.71740  Biso   1.000  H
  H15      1.0000 0.99340  0.80550  0.71760  Biso   1.000  H
  C27      1.0000 0.65480  0.88020  0.69300  Biso   1.000  C
  H16      1.0000 0.56870  0.89080  0.67090  Biso   1.000  H
  H17      1.0000 0.65210  0.89180  0.73210  Biso   1.000  H
  H18      1.0000 0.72000  0.91550  0.68010  Biso   1.000  H
  O12      1.0000 0.90540  0.72410  0.72060  Biso   1.000  O
  N2       1.0000 0.77510  0.83550  0.70350  Biso   1.000  N
  C28      1.0000 0.66810  0.71200  0.71780  Biso   1.000  C
  H19      1.0000 0.64610  0.67170  0.68790  Biso   1.000  H
  H20      1.0000 0.59650  0.75150  0.71640  Biso   1.000  H
  H21      1.0000 0.68140  0.68380  0.75360  Biso   1.000  H
  C29      1.0000 0.91480  0.87520  0.70540  Biso   1.000  C
  H22      1.0000 0.98130  0.83200  0.70980  Biso   1.000  H
  H23      1.0000 0.93250  0.91330  0.73670  Biso   1.000  H
  H24      1.0000 0.91720  0.90500  0.67080  Biso   1.000  H
  H25      1.0000 0.67340  0.93870  0.69000  Biso   1.000  H
  H26      1.0000 0.60250  0.86100  0.65830  Biso   1.000  H
  H27      1.0000 0.60610  0.87140  0.72350  Biso   1.000  H
  Co3      1.0000 0.33100  0.99825  0.83422  Biso   1.000  Co
  Co4      1.0000 0.51352  0.11151  0.74550  Biso   1.000  Co
  O13      1.0000 0.50490  0.94422  0.86100  Biso   1.000  O
  O14      1.0000 0.59510  0.02730  0.80472  Biso   1.000  O
  O15      1.0000 0.09360  0.02590  0.81973  Biso   1.000  O
  O16      1.0000 0.20630  0.92929  0.87078  Biso   1.000  O
  O17      1.0000 0.01340  0.67974  0.83371  Biso   1.000  O
  O18      1.0000 0.85360  0.58930  0.81521  Biso   1.000  O
  O19      1.0000 0.88660  0.47558  0.19742  Biso   1.000  O
  O20      1.0000 0.79320  0.54886  0.25792  Biso   1.000  O
  O21      1.0000 0.63860  0.83199  0.21922  Biso   1.000  O
  O22      1.0000 0.64670  0.88731  0.13473  Biso   1.000  O
  O23      1.0000 0.66580  0.18650  0.78960  Biso   1.000  O
  N3       1.0000 0.80780  0.28880  0.81340  Biso   1.000  N
  C30      1.0000 0.60130  0.96970  0.83929  Biso   1.000  C
  C31      1.0000 0.73290  0.92630  0.85553  Biso   1.000  C
  C32      1.0000 0.73770  0.84960  0.88312  Biso   1.000  C
  H28      1.0000 0.65950  0.82570  0.89110  Biso   1.000  H
  C33      1.0000 0.85870  0.80840  0.89884  Biso   1.000  C
  C34      1.0000 0.97510  0.84590  0.88767  Biso   1.000  C
  H29      1.0000 0.05660  0.81900  0.89830  Biso   1.000  H
  C35      1.0000 0.97100  0.92290  0.86096  Biso   1.000  C
  C36      1.0000 0.84900  0.96200  0.84376  Biso   1.000  C
  H30      1.0000 0.84540  0.01250  0.82420  Biso   1.000  H
  C37      1.0000 0.09680  0.96280  0.84915  Biso   1.000  C
  C38      1.0000 0.86120  0.72730  0.93052  Biso   1.000  C
  C39      1.0000 0.82790  0.72940  0.98411  Biso   1.000  C
  H31      1.0000 0.80970  0.78090  0.99910  Biso   1.000  H
  C40      1.0000 0.82030  0.65860  0.01650  Biso   1.000  C
  C41      1.0000 0.84280  0.58210  0.99213  Biso   1.000  C
  H32      1.0000 0.83590  0.53300  0.01230  Biso   1.000  H
  C42      1.0000 0.87510  0.57790  0.93850  Biso   1.000  C
  H33      1.0000 0.89020  0.52610  0.92320  Biso   1.000  H
  C43      1.0000 0.88550  0.64960  0.90718  Biso   1.000  C
  C44      1.0000 0.92030  0.63930  0.84783  Biso   1.000  C
  C45      1.0000 0.78910  0.66490  0.07543  Biso   1.000  C
  C46      1.0000 0.73590  0.73840  0.09407  Biso   1.000  C
  H34      1.0000 0.71820  0.78310  0.06920  Biso   1.000  H
  C47      1.0000 0.70880  0.74650  0.14887  Biso   1.000  C
  C48      1.0000 0.73500  0.67890  0.18587  Biso   1.000  C
  H35      1.0000 0.71600  0.68310  0.22240  Biso   1.000  H
  C49      1.0000 0.78900  0.60577  0.16879  Biso   1.000  C
  C50      1.0000 0.81640  0.59890  0.11403  Biso   1.000  C
  H36      1.0000 0.85340  0.54970  0.10290  Biso   1.000  H
  C51      1.0000 0.66020  0.82720  0.16944  Biso   1.000  C
  C52      1.0000 0.82610  0.53680  0.21119  Biso   1.000  C
  C53      1.0000 0.70260  0.25850  0.78960  Biso   1.000  C
  C54      1.0000 0.90320  0.22750  0.83750  Biso   1.000  C
  H37      1.0000 0.86640  0.17250  0.82990  Biso   1.000  H
  H38      1.0000 0.92450  0.23590  0.87770  Biso   1.000  H
  H39      1.0000 0.98280  0.23290  0.82110  Biso   1.000  H
  C55      1.0000 0.58590  0.32260  0.76860  Biso   1.000  C
  H40      1.0000 0.56880  0.32360  0.72800  Biso   1.000  H
  H41      1.0000 0.61160  0.37740  0.78260  Biso   1.000  H
  H42      1.0000 0.50660  0.30550  0.78240  Biso   1.000  H
  C56      1.0000 0.84520  0.38020  0.80700  Biso   1.000  C
  H43      1.0000 0.93130  0.39080  0.82910  Biso   1.000  H
  H44      1.0000 0.84790  0.39180  0.76790  Biso   1.000  H
  H45      1.0000 0.78000  0.41550  0.81990  Biso   1.000  H
  O24      1.0000 0.59460  0.22410  0.77940  Biso   1.000  O
  N4       1.0000 0.72490  0.33550  0.79650  Biso   1.000  N
  C57      1.0000 0.83190  0.21200  0.78220  Biso   1.000  C
  H46      1.0000 0.85390  0.17170  0.81210  Biso   1.000  H
  H47      1.0000 0.90350  0.25150  0.78360  Biso   1.000  H
  H48      1.0000 0.81860  0.18380  0.74640  Biso   1.000  H
  C58      1.0000 0.58520  0.37520  0.79460  Biso   1.000  C
  H49      1.0000 0.51870  0.33200  0.79020  Biso   1.000  H
  H50      1.0000 0.56750  0.41330  0.76330  Biso   1.000  H
  H51      1.0000 0.58280  0.40500  0.82920  Biso   1.000  H
  H52      1.0000 0.82660  0.43870  0.81000  Biso   1.000  H
  H53      1.0000 0.89750  0.36100  0.84170  Biso   1.000  H
  H54      1.0000 0.89390  0.37140  0.77650  Biso   1.000  H
  Co5      1.0000 0.83100  0.50175  0.33422  Biso   1.000  Co
  Co6      1.0000 0.01352  0.38849  0.24550  Biso   1.000  Co
  O25      1.0000 0.00490  0.55578  0.36100  Biso   1.000  O
  O26      1.0000 0.09510  0.47270  0.30472  Biso   1.000  O
  O27      1.0000 0.59360  0.47410  0.31973  Biso   1.000  O
  O28      1.0000 0.70630  0.57071  0.37078  Biso   1.000  O
  O29      1.0000 0.51340  0.82026  0.33371  Biso   1.000  O
  O30      1.0000 0.35360  0.91070  0.31521  Biso   1.000  O
  O31      1.0000 0.38660  0.02442  0.69742  Biso   1.000  O
  O32      1.0000 0.29320  0.95114  0.75792  Biso   1.000  O
  O33      1.0000 0.13860  0.66801  0.71922  Biso   1.000  O
  O34      1.0000 0.14670  0.61269  0.63473  Biso   1.000  O
  O35      1.0000 0.16580  0.31350  0.28960  Biso   1.000  O
  N5       1.0000 0.30780  0.21120  0.31340  Biso   1.000  N
  C59      1.0000 0.10130  0.53030  0.33929  Biso   1.000  C
  C60      1.0000 0.23290  0.57370  0.35553  Biso   1.000  C
  C61      1.0000 0.23770  0.65040  0.38312  Biso   1.000  C
  H55      1.0000 0.15950  0.67430  0.39110  Biso   1.000  H
  C62      1.0000 0.35870  0.69160  0.39884  Biso   1.000  C
  C63      1.0000 0.47510  0.65410  0.38767  Biso   1.000  C
  H56      1.0000 0.55660  0.68100  0.39830  Biso   1.000  H
  C64      1.0000 0.47100  0.57710  0.36096  Biso   1.000  C
  C65      1.0000 0.34900  0.53800  0.34376  Biso   1.000  C
  H57      1.0000 0.34540  0.48750  0.32420  Biso   1.000  H
  C66      1.0000 0.59680  0.53720  0.34915  Biso   1.000  C
  C67      1.0000 0.36120  0.77270  0.43052  Biso   1.000  C
  C68      1.0000 0.32790  0.77060  0.48411  Biso   1.000  C
  H58      1.0000 0.30970  0.71910  0.49910  Biso   1.000  H
  C69      1.0000 0.32030  0.84140  0.51650  Biso   1.000  C
  C70      1.0000 0.34280  0.91790  0.49213  Biso   1.000  C
  H59      1.0000 0.33590  0.96700  0.51230  Biso   1.000  H
  C71      1.0000 0.37510  0.92210  0.43850  Biso   1.000  C
  H60      1.0000 0.39020  0.97390  0.42320  Biso   1.000  H
  C72      1.0000 0.38550  0.85040  0.40718  Biso   1.000  C
  C73      1.0000 0.42030  0.86070  0.34783  Biso   1.000  C
  C74      1.0000 0.28910  0.83510  0.57543  Biso   1.000  C
  C75      1.0000 0.23590  0.76160  0.59407  Biso   1.000  C
  H61      1.0000 0.21820  0.71690  0.56920  Biso   1.000  H
  C76      1.0000 0.20880  0.75350  0.64887  Biso   1.000  C
  C77      1.0000 0.23500  0.82110  0.68587  Biso   1.000  C
  H62      1.0000 0.21600  0.81690  0.72240  Biso   1.000  H
  C78      1.0000 0.28900  0.89423  0.66879  Biso   1.000  C
  C79      1.0000 0.31640  0.90110  0.61403  Biso   1.000  C
  H63      1.0000 0.35340  0.95030  0.60290  Biso   1.000  H
  C80      1.0000 0.16020  0.67280  0.66944  Biso   1.000  C
  C81      1.0000 0.32610  0.96320  0.71119  Biso   1.000  C
  C82      1.0000 0.20260  0.24150  0.28960  Biso   1.000  C
  C83      1.0000 0.40320  0.27250  0.33750  Biso   1.000  C
  H64      1.0000 0.36640  0.32750  0.32990  Biso   1.000  H
  H65      1.0000 0.42450  0.26410  0.37770  Biso   1.000  H
  H66      1.0000 0.48280  0.26710  0.32110  Biso   1.000  H
  C84      1.0000 0.08590  0.17740  0.26860  Biso   1.000  C
  H67      1.0000 0.06880  0.17640  0.22800  Biso   1.000  H
  H68      1.0000 0.11160  0.12260  0.28260  Biso   1.000  H
  H69      1.0000 0.00660  0.19450  0.28240  Biso   1.000  H
  C85      1.0000 0.34520  0.11980  0.30700  Biso   1.000  C
  H70      1.0000 0.43130  0.10920  0.32910  Biso   1.000  H
  H71      1.0000 0.34790  0.10820  0.26790  Biso   1.000  H
  H72      1.0000 0.28000  0.08450  0.31990  Biso   1.000  H
  O36      1.0000 0.09460  0.27590  0.27940  Biso   1.000  O
  N6       1.0000 0.22490  0.16450  0.29650  Biso   1.000  N
  C86      1.0000 0.33190  0.28800  0.28220  Biso   1.000  C
  H73      1.0000 0.35390  0.32830  0.31210  Biso   1.000  H
  H74      1.0000 0.40350  0.24850  0.28360  Biso   1.000  H
  H75      1.0000 0.31860  0.31620  0.24640  Biso   1.000  H
  C87      1.0000 0.08520  0.12480  0.29460  Biso   1.000  C
  H76      1.0000 0.01870  0.16800  0.29020  Biso   1.000  H
  H77      1.0000 0.06750  0.08670  0.26330  Biso   1.000  H
  H78      1.0000 0.08280  0.09500  0.32920  Biso   1.000  H
  H79      1.0000 0.32660  0.06130  0.31000  Biso   1.000  H
  H80      1.0000 0.39750  0.13900  0.34170  Biso   1.000  H
  H81      1.0000 0.39390  0.12860  0.27650  Biso   1.000  H
  Co7      1.0000 0.66900  0.00175  0.16578  Biso   1.000  Co
  Co8      1.0000 0.48648  0.88849  0.25450  Biso   1.000  Co
  O37      1.0000 0.49510  0.05578  0.13900  Biso   1.000  O
  O38      1.0000 0.40490  0.97270  0.19528  Biso   1.000  O
  O39      1.0000 0.90640  0.97410  0.18027  Biso   1.000  O
  O40      1.0000 0.79370  0.07071  0.12922  Biso   1.000  O
  O41      1.0000 0.98660  0.32026  0.16629  Biso   1.000  O
  O42      1.0000 0.14640  0.41070  0.18479  Biso   1.000  O
  O43      1.0000 0.11340  0.52442  0.80258  Biso   1.000  O
  O44      1.0000 0.20680  0.45114  0.74208  Biso   1.000  O
  O45      1.0000 0.36140  0.16801  0.78078  Biso   1.000  O
  O46      1.0000 0.35330  0.11269  0.86527  Biso   1.000  O
  O47      1.0000 0.33420  0.81350  0.21040  Biso   1.000  O
  N7       1.0000 0.19220  0.71120  0.18660  Biso   1.000  N
  C88      1.0000 0.39870  0.03030  0.16071  Biso   1.000  C
  C89      1.0000 0.26710  0.07370  0.14447  Biso   1.000  C
  C90      1.0000 0.26230  0.15040  0.11688  Biso   1.000  C
  H82      1.0000 0.34050  0.17430  0.10890  Biso   1.000  H
  C91      1.0000 0.14130  0.19160  0.10116  Biso   1.000  C
  C92      1.0000 0.02490  0.15410  0.11233  Biso   1.000  C
  H83      1.0000 0.94340  0.18100  0.10170  Biso   1.000  H
  C93      1.0000 0.02900  0.07710  0.13904  Biso   1.000  C
  C94      1.0000 0.15100  0.03800  0.15624  Biso   1.000  C
  H84      1.0000 0.15460  0.98750  0.17580  Biso   1.000  H
  C95      1.0000 0.90320  0.03720  0.15085  Biso   1.000  C
  C96      1.0000 0.13880  0.27270  0.06948  Biso   1.000  C
  C97      1.0000 0.17210  0.27060  0.01589  Biso   1.000  C
  H85      1.0000 0.19030  0.21910  0.00090  Biso   1.000  H
  C98      1.0000 0.17970  0.34140  0.98350  Biso   1.000  C
  C99      1.0000 0.15720  0.41790  0.00787  Biso   1.000  C
  H86      1.0000 0.16410  0.46700  0.98770  Biso   1.000  H
  C100     1.0000 0.12490  0.42210  0.06150  Biso   1.000  C
  H87      1.0000 0.10980  0.47390  0.07680  Biso   1.000  H
  C101     1.0000 0.11450  0.35040  0.09282  Biso   1.000  C
  C102     1.0000 0.07970  0.36070  0.15217  Biso   1.000  C
  C103     1.0000 0.21090  0.33510  0.92457  Biso   1.000  C
  C104     1.0000 0.26410  0.26160  0.90593  Biso   1.000  C
  H88      1.0000 0.28180  0.21690  0.93080  Biso   1.000  H
  C105     1.0000 0.29120  0.25350  0.85113  Biso   1.000  C
  C106     1.0000 0.26500  0.32110  0.81413  Biso   1.000  C
  H89      1.0000 0.28400  0.31690  0.77760  Biso   1.000  H
  C107     1.0000 0.21100  0.39423  0.83121  Biso   1.000  C
  C108     1.0000 0.18360  0.40110  0.88597  Biso   1.000  C
  H90      1.0000 0.14660  0.45030  0.89710  Biso   1.000  H
  C109     1.0000 0.33980  0.17280  0.83056  Biso   1.000  C
  C110     1.0000 0.17390  0.46320  0.78881  Biso   1.000  C
  C111     1.0000 0.29740  0.74150  0.21040  Biso   1.000  C
  C112     1.0000 0.09680  0.77250  0.16250  Biso   1.000  C
  H91      1.0000 0.13360  0.82750  0.17010  Biso   1.000  H
  H92      1.0000 0.07550  0.76410  0.12230  Biso   1.000  H
  H93      1.0000 0.01720  0.76710  0.17890  Biso   1.000  H
  C113     1.0000 0.41410  0.67740  0.23140  Biso   1.000  C
  H94      1.0000 0.43120  0.67640  0.27200  Biso   1.000  H
  H95      1.0000 0.38840  0.62260  0.21740  Biso   1.000  H
  H96      1.0000 0.49340  0.69450  0.21760  Biso   1.000  H
  C114     1.0000 0.15480  0.61980  0.19300  Biso   1.000  C
  H97      1.0000 0.06870  0.60920  0.17090  Biso   1.000  H
  H98      1.0000 0.15210  0.60820  0.23210  Biso   1.000  H
  H99      1.0000 0.22000  0.58450  0.18010  Biso   1.000  H
  O48      1.0000 0.40540  0.77590  0.22060  Biso   1.000  O
  N8       1.0000 0.27510  0.66450  0.20350  Biso   1.000  N
  C115     1.0000 0.16810  0.78800  0.21780  Biso   1.000  C
  H100     1.0000 0.14610  0.82830  0.18790  Biso   1.000  H
  H101     1.0000 0.09650  0.74850  0.21640  Biso   1.000  H
  H102     1.0000 0.18140  0.81620  0.25360  Biso   1.000  H
  C116     1.0000 0.41480  0.62480  0.20540  Biso   1.000  C
  H103     1.0000 0.48130  0.66800  0.20980  Biso   1.000  H
  H104     1.0000 0.43250  0.58670  0.23670  Biso   1.000  H
  H105     1.0000 0.41720  0.59500  0.17080  Biso   1.000  H
  H106     1.0000 0.17340  0.56130  0.19000  Biso   1.000  H
  H107     1.0000 0.10250  0.63900  0.15830  Biso   1.000  H
  H108     1.0000 0.10610  0.62860  0.22350  Biso   1.000  H
