data_image0
_cell_length_a       18.8542
_cell_length_b       18.0734
_cell_length_c       19.5409
_cell_angle_alpha    90
_cell_angle_beta     94.771
_cell_angle_gamma    90

_symmetry_space_group_name_H-M    "P 1"
_symmetry_int_tables_number       1

loop_
  _symmetry_equiv_pos_as_xyz
  'x, y, z'

loop_
  _atom_site_label
  _atom_site_occupancy
  _atom_site_fract_x
  _atom_site_fract_y
  _atom_site_fract_z
  _atom_site_thermal_displace_type
  _atom_site_B_iso_or_equiv
  _atom_site_type_symbol
  Dy1      1.0000 0.30556  0.52372  0.00854  Biso   1.000  Dy
  Dy2      1.0000 0.39641  0.38966  0.12688  Biso   1.000  Dy
  Dy3      1.0000 0.40438  0.63460  0.88592  Biso   1.000  Dy
  Dy4      1.0000 0.11117  0.56335  0.00349  Biso   1.000  Dy
  Dy5      1.0000 0.44947  0.32002  0.85343  Biso   1.000  Dy
  Ge1      1.0000 0.62253  0.41668  0.83004  Biso   1.000  Ge
  Ge2      1.0000 0.60540  0.29891  0.94967  Biso   1.000  Ge
  Ge3      1.0000 0.45877  0.25828  0.01642  Biso   1.000  Ge
  Ge4      1.0000 0.31281  0.34321  0.95261  Biso   1.000  Ge
  Ge5      1.0000 0.33553  0.46441  0.83306  Biso   1.000  Ge
  Ge6      1.0000 0.48004  0.50451  0.76936  Biso   1.000  Ge
  Ge7      1.0000 0.18994  0.43101  0.12406  Biso   1.000  Ge
  N1       1.0000 0.11540  0.69680  0.95790  Biso   1.000  N
  H1       1.0000 0.09370  0.73350  0.97490  Biso   1.000  H
  O1       1.0000 0.58170  0.33550  0.86200  Biso   1.000  O
  O2       1.0000 0.51600  0.26110  0.94630  Biso   1.000  O
  O3       1.0000 0.38500  0.27430  0.95520  Biso   1.000  O
  O4       1.0000 0.33950  0.37120  0.86830  Biso   1.000  O
  O5       1.0000 0.41510  0.43970  0.78970  Biso   1.000  O
  O6       1.0000 0.55260  0.44150  0.76620  Biso   1.000  O
  O7       1.0000 0.62620  0.48910  0.89030  Biso   1.000  O
  O8       1.0000 0.61480  0.37870  0.00180  Biso   1.000  O
  O9       1.0000 0.48320  0.33120  0.07090  Biso   1.000  O
  O10      1.0000 0.34060  0.40240  0.02120  Biso   1.000  O
  O11      1.0000 0.36020  0.51670  0.90590  Biso   1.000  O
  O12      1.0000 0.49160  0.56760  0.83630  Biso   1.000  O
  O13      1.0000 0.72300  0.37480  0.91500  Biso   1.000  O
  O14      1.0000 0.83730  0.35980  0.90510  Biso   1.000  O
  O15      1.0000 0.60690  0.24650  0.06100  Biso   1.000  O
  O16      1.0000 0.65040  0.14830  0.11540  Biso   1.000  O
  O17      1.0000 0.36400  0.26620  0.11990  Biso   1.000  O
  O18      1.0000 0.26400  0.20100  0.11000  Biso   1.000  O
  O19      1.0000 0.23200  0.43790  0.93200  Biso   1.000  O
  O20      1.0000 0.11500  0.44730  0.94100  Biso   1.000  O
  O21      1.0000 0.34880  0.57870  0.78150  Biso   1.000  O
  O22      1.0000 0.28710  0.65790  0.71190  Biso   1.000  O
  O23      1.0000 0.57880  0.70410  0.67850  Biso   1.000  O
  O24      1.0000 0.59400  0.61990  0.75150  Biso   1.000  O
  O25      1.0000 0.05230  0.48260  0.06940  Biso   1.000  O
  O26      1.0000 0.95810  0.42600  0.10330  Biso   1.000  O
  O27      1.0000 0.16080  0.34570  0.08910  Biso   1.000  O
  H2       1.0000 0.12350  0.35170  0.06500  Biso   1.000  H
  O28      1.0000 0.27660  0.40330  0.16370  Biso   1.000  O
  H3       1.0000 0.27470  0.39120  0.20980  Biso   1.000  H
  O29      1.0000 0.20480  0.49190  0.06050  Biso   1.000  O
  O30      1.0000 0.21510  0.59430  0.94710  Biso   1.000  O
  O31      1.0000 0.27930  0.66460  0.88110  Biso   1.000  O
  C1       1.0000 0.70020  0.39860  0.77570  Biso   1.000  C
  H4       1.0000 0.68090  0.37940  0.73170  Biso   1.000  H
  H5       1.0000 0.72230  0.44580  0.76710  Biso   1.000  H
  C2       1.0000 0.75880  0.34570  0.80410  Biso   1.000  C
  H6       1.0000 0.80110  0.35260  0.77980  Biso   1.000  H
  H7       1.0000 0.74300  0.29490  0.79790  Biso   1.000  H
  C3       1.0000 0.77550  0.36210  0.88060  Biso   1.000  C
  C4       1.0000 0.67140  0.21910  0.94530  Biso   1.000  C
  H8       1.0000 0.66840  0.20000  0.89870  Biso   1.000  H
  H9       1.0000 0.71920  0.23790  0.95590  Biso   1.000  H
  C5       1.0000 0.65840  0.15550  0.99440  Biso   1.000  C
  H10      1.0000 0.70140  0.12610  0.00200  Biso   1.000  H
  H11      1.0000 0.62090  0.12390  0.97390  Biso   1.000  H
  C6       1.0000 0.63700  0.18460  0.06350  Biso   1.000  C
  C7       1.0000 0.44750  0.16070  0.05660  Biso   1.000  C
  H12      1.0000 0.46310  0.12330  0.02550  Biso   1.000  H
  H13      1.0000 0.47750  0.15720  0.09930  Biso   1.000  H
  C8       1.0000 0.37020  0.14520  0.07100  Biso   1.000  C
  H14      1.0000 0.34290  0.13540  0.02740  Biso   1.000  H
  H15      1.0000 0.36900  0.10070  0.09840  Biso   1.000  H
  C9       1.0000 0.33380  0.20750  0.10740  Biso   1.000  C
  C10      1.0000 0.22740  0.28360  0.94490  Biso   1.000  C
  H16      1.0000 0.23480  0.24080  0.91640  Biso   1.000  H
  H17      1.0000 0.21760  0.26610  0.99010  Biso   1.000  H
  C11      1.0000 0.16350  0.32770  0.91350  Biso   1.000  C
  H18      1.0000 0.15990  0.32160  0.86400  Biso   1.000  H
  H19      1.0000 0.12030  0.30810  0.93030  Biso   1.000  H
  C12      1.0000 0.16950  0.41000  0.93080  Biso   1.000  C
  C13      1.0000 0.24770  0.47170  0.77480  Biso   1.000  C
  H20      1.0000 0.23730  0.42390  0.75390  Biso   1.000  H
  H21      1.0000 0.20940  0.48350  0.80320  Biso   1.000  H
  C14      1.0000 0.24900  0.52980  0.71820  Biso   1.000  C
  H22      1.0000 0.20090  0.54800  0.70700  Biso   1.000  H
  H23      1.0000 0.26470  0.50680  0.67730  Biso   1.000  H
  C15      1.0000 0.29770  0.59500  0.73890  Biso   1.000  C
  C16      1.0000 0.46470  0.54350  0.67630  Biso   1.000  C
  H24      1.0000 0.44830  0.50450  0.64480  Biso   1.000  H
  H25      1.0000 0.42910  0.58230  0.67440  Biso   1.000  H
  C17      1.0000 0.53580  0.57400  0.65700  Biso   1.000  C
  H26      1.0000 0.53160  0.58660  0.60830  Biso   1.000  H
  H27      1.0000 0.57210  0.53640  0.66410  Biso   1.000  H
  C18      1.0000 0.55900  0.64330  0.69800  Biso   1.000  C
  C19      1.0000 0.13220  0.46360  0.19540  Biso   1.000  C
  H28      1.0000 0.15340  0.44650  0.23950  Biso   1.000  H
  H29      1.0000 0.13130  0.51720  0.19630  Biso   1.000  H
  C20      1.0000 0.05590  0.43430  0.18400  Biso   1.000  C
  H30      1.0000 0.05690  0.38110  0.19110  Biso   1.000  H
  H31      1.0000 0.02820  0.45570  0.21860  Biso   1.000  H
  C21      1.0000 0.01800  0.45010  0.11340  Biso   1.000  C
  C22      1.0000 0.17500  0.77400  0.86200  Biso   1.000  C
  H32      1.0000 0.13430  0.80570  0.85970  Biso   1.000  H
  H33      1.0000 0.18600  0.76160  0.81590  Biso   1.000  H
  H34      1.0000 0.21490  0.79830  0.88540  Biso   1.000  H
  C23      1.0000 0.15870  0.70290  0.90000  Biso   1.000  C
  H35      1.0000 0.12770  0.67790  0.86450  Biso   1.000  H
  C24      1.0000 0.22210  0.65050  0.90470  Biso   1.000  C
  O32      1.0000 0.28900  0.17900  0.15100  Biso   1.000  O
  Dy6      1.0000 0.69444  0.02372  0.49146  Biso   1.000  Dy
  Dy7      1.0000 0.60359  0.88966  0.37312  Biso   1.000  Dy
  Dy8      1.0000 0.59562  0.13460  0.61408  Biso   1.000  Dy
  Dy9      1.0000 0.88883  0.06335  0.49651  Biso   1.000  Dy
  Dy10     1.0000 0.55053  0.82002  0.64657  Biso   1.000  Dy
  Ge8      1.0000 0.37747  0.91668  0.66996  Biso   1.000  Ge
  Ge9      1.0000 0.39460  0.79891  0.55033  Biso   1.000  Ge
  Ge10     1.0000 0.54123  0.75828  0.48358  Biso   1.000  Ge
  Ge11     1.0000 0.68719  0.84321  0.54739  Biso   1.000  Ge
  Ge12     1.0000 0.66447  0.96441  0.66694  Biso   1.000  Ge
  Ge13     1.0000 0.51996  0.00451  0.73064  Biso   1.000  Ge
  Ge14     1.0000 0.81006  0.93101  0.37594  Biso   1.000  Ge
  N2       1.0000 0.88460  0.19680  0.54210  Biso   1.000  N
  H36      1.0000 0.90630  0.23350  0.52510  Biso   1.000  H
  O33      1.0000 0.41830  0.83550  0.63800  Biso   1.000  O
  O34      1.0000 0.48400  0.76110  0.55370  Biso   1.000  O
  O35      1.0000 0.61500  0.77430  0.54480  Biso   1.000  O
  O36      1.0000 0.66050  0.87120  0.63170  Biso   1.000  O
  O37      1.0000 0.58490  0.93970  0.71030  Biso   1.000  O
  O38      1.0000 0.44740  0.94150  0.73380  Biso   1.000  O
  O39      1.0000 0.37380  0.98910  0.60970  Biso   1.000  O
  O40      1.0000 0.38520  0.87870  0.49820  Biso   1.000  O
  O41      1.0000 0.51680  0.83120  0.42910  Biso   1.000  O
  O42      1.0000 0.65940  0.90240  0.47880  Biso   1.000  O
  O43      1.0000 0.63980  0.01670  0.59410  Biso   1.000  O
  O44      1.0000 0.50840  0.06760  0.66370  Biso   1.000  O
  O45      1.0000 0.27700  0.87480  0.58500  Biso   1.000  O
  O46      1.0000 0.16270  0.85980  0.59490  Biso   1.000  O
  O47      1.0000 0.39310  0.74650  0.43900  Biso   1.000  O
  O48      1.0000 0.34960  0.64830  0.38460  Biso   1.000  O
  O49      1.0000 0.63600  0.76620  0.38010  Biso   1.000  O
  O50      1.0000 0.73600  0.70100  0.39000  Biso   1.000  O
  O51      1.0000 0.76800  0.93790  0.56800  Biso   1.000  O
  O52      1.0000 0.88500  0.94730  0.55900  Biso   1.000  O
  O53      1.0000 0.65120  0.07870  0.71850  Biso   1.000  O
  O54      1.0000 0.71290  0.15790  0.78810  Biso   1.000  O
  O55      1.0000 0.42120  0.20410  0.82150  Biso   1.000  O
  O56      1.0000 0.40600  0.11990  0.74850  Biso   1.000  O
  O57      1.0000 0.94770  0.98260  0.43060  Biso   1.000  O
  O58      1.0000 0.04190  0.92600  0.39670  Biso   1.000  O
  O59      1.0000 0.83920  0.84570  0.41090  Biso   1.000  O
  H37      1.0000 0.87650  0.85170  0.43500  Biso   1.000  H
  O60      1.0000 0.72340  0.90330  0.33630  Biso   1.000  O
  H38      1.0000 0.72530  0.89120  0.29020  Biso   1.000  H
  O61      1.0000 0.79520  0.99190  0.43950  Biso   1.000  O
  O62      1.0000 0.78490  0.09430  0.55290  Biso   1.000  O
  O63      1.0000 0.72070  0.16460  0.61890  Biso   1.000  O
  C25      1.0000 0.29980  0.89860  0.72430  Biso   1.000  C
  H39      1.0000 0.31910  0.87940  0.76830  Biso   1.000  H
  H40      1.0000 0.27770  0.94580  0.73290  Biso   1.000  H
  C26      1.0000 0.24120  0.84570  0.69590  Biso   1.000  C
  H41      1.0000 0.19890  0.85260  0.72020  Biso   1.000  H
  H42      1.0000 0.25700  0.79490  0.70210  Biso   1.000  H
  C27      1.0000 0.22450  0.86210  0.61940  Biso   1.000  C
  C28      1.0000 0.32860  0.71910  0.55470  Biso   1.000  C
  H43      1.0000 0.33160  0.70000  0.60130  Biso   1.000  H
  H44      1.0000 0.28080  0.73790  0.54410  Biso   1.000  H
  C29      1.0000 0.34160  0.65550  0.50560  Biso   1.000  C
  H45      1.0000 0.29860  0.62610  0.49800  Biso   1.000  H
  H46      1.0000 0.37910  0.62390  0.52610  Biso   1.000  H
  C30      1.0000 0.36300  0.68460  0.43650  Biso   1.000  C
  C31      1.0000 0.55250  0.66070  0.44340  Biso   1.000  C
  H47      1.0000 0.53690  0.62330  0.47450  Biso   1.000  H
  H48      1.0000 0.52250  0.65720  0.40070  Biso   1.000  H
  C32      1.0000 0.62980  0.64520  0.42900  Biso   1.000  C
  H49      1.0000 0.65710  0.63540  0.47260  Biso   1.000  H
  H50      1.0000 0.63100  0.60070  0.40160  Biso   1.000  H
  C33      1.0000 0.66620  0.70750  0.39260  Biso   1.000  C
  C34      1.0000 0.77260  0.78360  0.55510  Biso   1.000  C
  H51      1.0000 0.76520  0.74080  0.58360  Biso   1.000  H
  H52      1.0000 0.78240  0.76610  0.50990  Biso   1.000  H
  C35      1.0000 0.83650  0.82770  0.58650  Biso   1.000  C
  H53      1.0000 0.84010  0.82160  0.63600  Biso   1.000  H
  H54      1.0000 0.87970  0.80810  0.56970  Biso   1.000  H
  C36      1.0000 0.83050  0.91000  0.56920  Biso   1.000  C
  C37      1.0000 0.75230  0.97170  0.72520  Biso   1.000  C
  H55      1.0000 0.76270  0.92390  0.74610  Biso   1.000  H
  H56      1.0000 0.79060  0.98350  0.69680  Biso   1.000  H
  C38      1.0000 0.75100  0.02980  0.78180  Biso   1.000  C
  H57      1.0000 0.79910  0.04800  0.79300  Biso   1.000  H
  H58      1.0000 0.73530  0.00680  0.82270  Biso   1.000  H
  C39      1.0000 0.70230  0.09500  0.76110  Biso   1.000  C
  C40      1.0000 0.53530  0.04350  0.82370  Biso   1.000  C
  H59      1.0000 0.55170  0.00450  0.85520  Biso   1.000  H
  H60      1.0000 0.57090  0.08230  0.82560  Biso   1.000  H
  C41      1.0000 0.46420  0.07400  0.84300  Biso   1.000  C
  H61      1.0000 0.46840  0.08660  0.89170  Biso   1.000  H
  H62      1.0000 0.42790  0.03640  0.83590  Biso   1.000  H
  C42      1.0000 0.44100  0.14330  0.80200  Biso   1.000  C
  C43      1.0000 0.86780  0.96360  0.30460  Biso   1.000  C
  H63      1.0000 0.84660  0.94650  0.26050  Biso   1.000  H
  H64      1.0000 0.86870  0.01720  0.30370  Biso   1.000  H
  C44      1.0000 0.94410  0.93430  0.31600  Biso   1.000  C
  H65      1.0000 0.94310  0.88110  0.30890  Biso   1.000  H
  H66      1.0000 0.97180  0.95570  0.28140  Biso   1.000  H
  C45      1.0000 0.98200  0.95010  0.38660  Biso   1.000  C
  C46      1.0000 0.82500  0.27400  0.63800  Biso   1.000  C
  H67      1.0000 0.86570  0.30570  0.64030  Biso   1.000  H
  H68      1.0000 0.81400  0.26160  0.68410  Biso   1.000  H
  H69      1.0000 0.78510  0.29830  0.61460  Biso   1.000  H
  C47      1.0000 0.84130  0.20290  0.60000  Biso   1.000  C
  H70      1.0000 0.87230  0.17790  0.63550  Biso   1.000  H
  C48      1.0000 0.77790  0.15050  0.59530  Biso   1.000  C
  O64      1.0000 0.71100  0.67900  0.34900  Biso   1.000  O
  Dy11     1.0000 0.69444  0.47628  0.99146  Biso   1.000  Dy
  Dy12     1.0000 0.60359  0.61034  0.87312  Biso   1.000  Dy
  Dy13     1.0000 0.59562  0.36540  0.11408  Biso   1.000  Dy
  Dy14     1.0000 0.88883  0.43665  0.99651  Biso   1.000  Dy
  Dy15     1.0000 0.55053  0.67998  0.14657  Biso   1.000  Dy
  Ge15     1.0000 0.37747  0.58332  0.16996  Biso   1.000  Ge
  Ge16     1.0000 0.39460  0.70109  0.05033  Biso   1.000  Ge
  Ge17     1.0000 0.54123  0.74172  0.98358  Biso   1.000  Ge
  Ge18     1.0000 0.68719  0.65679  0.04739  Biso   1.000  Ge
  Ge19     1.0000 0.66447  0.53559  0.16694  Biso   1.000  Ge
  Ge20     1.0000 0.51996  0.49549  0.23064  Biso   1.000  Ge
  Ge21     1.0000 0.81006  0.56899  0.87594  Biso   1.000  Ge
  N3       1.0000 0.88460  0.30320  0.04210  Biso   1.000  N
  H71      1.0000 0.90630  0.26650  0.02510  Biso   1.000  H
  O65      1.0000 0.41830  0.66450  0.13800  Biso   1.000  O
  O66      1.0000 0.48400  0.73890  0.05370  Biso   1.000  O
  O67      1.0000 0.61500  0.72570  0.04480  Biso   1.000  O
  O68      1.0000 0.66050  0.62880  0.13170  Biso   1.000  O
  O69      1.0000 0.58490  0.56030  0.21030  Biso   1.000  O
  O70      1.0000 0.44740  0.55850  0.23380  Biso   1.000  O
  O71      1.0000 0.37380  0.51090  0.10970  Biso   1.000  O
  O72      1.0000 0.38520  0.62130  0.99820  Biso   1.000  O
  O73      1.0000 0.51680  0.66880  0.92910  Biso   1.000  O
  O74      1.0000 0.65940  0.59760  0.97880  Biso   1.000  O
  O75      1.0000 0.63980  0.48330  0.09410  Biso   1.000  O
  O76      1.0000 0.50840  0.43240  0.16370  Biso   1.000  O
  O77      1.0000 0.27700  0.62520  0.08500  Biso   1.000  O
  O78      1.0000 0.16270  0.64020  0.09490  Biso   1.000  O
  O79      1.0000 0.39310  0.75350  0.93900  Biso   1.000  O
  O80      1.0000 0.34960  0.85170  0.88460  Biso   1.000  O
  O81      1.0000 0.63600  0.73380  0.88010  Biso   1.000  O
  O82      1.0000 0.73600  0.79900  0.89000  Biso   1.000  O
  O83      1.0000 0.76800  0.56210  0.06800  Biso   1.000  O
  O84      1.0000 0.88500  0.55270  0.05900  Biso   1.000  O
  O85      1.0000 0.65120  0.42130  0.21850  Biso   1.000  O
  O86      1.0000 0.71290  0.34210  0.28810  Biso   1.000  O
  O87      1.0000 0.42120  0.29590  0.32150  Biso   1.000  O
  O88      1.0000 0.40600  0.38010  0.24850  Biso   1.000  O
  O89      1.0000 0.94770  0.51740  0.93060  Biso   1.000  O
  O90      1.0000 0.04190  0.57400  0.89670  Biso   1.000  O
  O91      1.0000 0.83920  0.65430  0.91090  Biso   1.000  O
  H72      1.0000 0.87650  0.64830  0.93500  Biso   1.000  H
  O92      1.0000 0.72340  0.59670  0.83630  Biso   1.000  O
  H73      1.0000 0.72530  0.60880  0.79020  Biso   1.000  H
  O93      1.0000 0.79520  0.50810  0.93950  Biso   1.000  O
  O94      1.0000 0.78490  0.40570  0.05290  Biso   1.000  O
  O95      1.0000 0.72070  0.33540  0.11890  Biso   1.000  O
  C49      1.0000 0.29980  0.60140  0.22430  Biso   1.000  C
  H74      1.0000 0.31910  0.62060  0.26830  Biso   1.000  H
  H75      1.0000 0.27770  0.55420  0.23290  Biso   1.000  H
  C50      1.0000 0.24120  0.65430  0.19590  Biso   1.000  C
  H76      1.0000 0.19890  0.64740  0.22020  Biso   1.000  H
  H77      1.0000 0.25700  0.70510  0.20210  Biso   1.000  H
  C51      1.0000 0.22450  0.63790  0.11940  Biso   1.000  C
  C52      1.0000 0.32860  0.78090  0.05470  Biso   1.000  C
  H78      1.0000 0.33160  0.80000  0.10130  Biso   1.000  H
  H79      1.0000 0.28080  0.76210  0.04410  Biso   1.000  H
  C53      1.0000 0.34160  0.84450  0.00560  Biso   1.000  C
  H80      1.0000 0.29860  0.87390  0.99800  Biso   1.000  H
  H81      1.0000 0.37910  0.87610  0.02610  Biso   1.000  H
  C54      1.0000 0.36300  0.81540  0.93650  Biso   1.000  C
  C55      1.0000 0.55250  0.83930  0.94340  Biso   1.000  C
  H82      1.0000 0.53690  0.87670  0.97450  Biso   1.000  H
  H83      1.0000 0.52250  0.84280  0.90070  Biso   1.000  H
  C56      1.0000 0.62980  0.85480  0.92900  Biso   1.000  C
  H84      1.0000 0.65710  0.86460  0.97260  Biso   1.000  H
  H85      1.0000 0.63100  0.89930  0.90160  Biso   1.000  H
  C57      1.0000 0.66620  0.79250  0.89260  Biso   1.000  C
  C58      1.0000 0.77260  0.71640  0.05510  Biso   1.000  C
  H86      1.0000 0.76520  0.75920  0.08360  Biso   1.000  H
  H87      1.0000 0.78240  0.73390  0.00990  Biso   1.000  H
  C59      1.0000 0.83650  0.67230  0.08650  Biso   1.000  C
  H88      1.0000 0.84010  0.67840  0.13600  Biso   1.000  H
  H89      1.0000 0.87970  0.69190  0.06970  Biso   1.000  H
  C60      1.0000 0.83050  0.59000  0.06920  Biso   1.000  C
  C61      1.0000 0.75230  0.52830  0.22520  Biso   1.000  C
  H90      1.0000 0.76270  0.57610  0.24610  Biso   1.000  H
  H91      1.0000 0.79060  0.51650  0.19680  Biso   1.000  H
  C62      1.0000 0.75100  0.47020  0.28180  Biso   1.000  C
  H92      1.0000 0.79910  0.45200  0.29300  Biso   1.000  H
  H93      1.0000 0.73530  0.49320  0.32270  Biso   1.000  H
  C63      1.0000 0.70230  0.40500  0.26110  Biso   1.000  C
  C64      1.0000 0.53530  0.45650  0.32370  Biso   1.000  C
  H94      1.0000 0.55170  0.49550  0.35520  Biso   1.000  H
  H95      1.0000 0.57090  0.41770  0.32560  Biso   1.000  H
  C65      1.0000 0.46420  0.42600  0.34300  Biso   1.000  C
  H96      1.0000 0.46840  0.41340  0.39170  Biso   1.000  H
  H97      1.0000 0.42790  0.46360  0.33590  Biso   1.000  H
  C66      1.0000 0.44100  0.35670  0.30200  Biso   1.000  C
  C67      1.0000 0.86780  0.53640  0.80460  Biso   1.000  C
  H98      1.0000 0.84660  0.55350  0.76050  Biso   1.000  H
  H99      1.0000 0.86870  0.48280  0.80370  Biso   1.000  H
  C68      1.0000 0.94410  0.56570  0.81600  Biso   1.000  C
  H100     1.0000 0.94310  0.61890  0.80890  Biso   1.000  H
  H101     1.0000 0.97180  0.54430  0.78140  Biso   1.000  H
  C69      1.0000 0.98200  0.54990  0.88660  Biso   1.000  C
  C70      1.0000 0.82500  0.22600  0.13800  Biso   1.000  C
  H102     1.0000 0.86570  0.19430  0.14030  Biso   1.000  H
  H103     1.0000 0.81400  0.23840  0.18410  Biso   1.000  H
  H104     1.0000 0.78510  0.20170  0.11460  Biso   1.000  H
  C71      1.0000 0.84130  0.29710  0.10000  Biso   1.000  C
  H105     1.0000 0.87230  0.32210  0.13550  Biso   1.000  H
  C72      1.0000 0.77790  0.34950  0.09530  Biso   1.000  C
  O96      1.0000 0.71100  0.82100  0.84900  Biso   1.000  O
  Dy16     1.0000 0.30556  0.97628  0.50854  Biso   1.000  Dy
  Dy17     1.0000 0.39641  0.11034  0.62688  Biso   1.000  Dy
  Dy18     1.0000 0.40438  0.86540  0.38592  Biso   1.000  Dy
  Dy19     1.0000 0.11117  0.93665  0.50349  Biso   1.000  Dy
  Dy20     1.0000 0.44947  0.17998  0.35343  Biso   1.000  Dy
  Ge22     1.0000 0.62253  0.08332  0.33004  Biso   1.000  Ge
  Ge23     1.0000 0.60540  0.20109  0.44967  Biso   1.000  Ge
  Ge24     1.0000 0.45877  0.24172  0.51642  Biso   1.000  Ge
  Ge25     1.0000 0.31281  0.15679  0.45261  Biso   1.000  Ge
  Ge26     1.0000 0.33553  0.03559  0.33306  Biso   1.000  Ge
  Ge27     1.0000 0.48004  0.99549  0.26936  Biso   1.000  Ge
  Ge28     1.0000 0.18994  0.06899  0.62406  Biso   1.000  Ge
  N4       1.0000 0.11540  0.80320  0.45790  Biso   1.000  N
  H106     1.0000 0.09370  0.76650  0.47490  Biso   1.000  H
  O97      1.0000 0.58170  0.16450  0.36200  Biso   1.000  O
  O98      1.0000 0.51600  0.23890  0.44630  Biso   1.000  O
  O99      1.0000 0.38500  0.22570  0.45520  Biso   1.000  O
  O100     1.0000 0.33950  0.12880  0.36830  Biso   1.000  O
  O101     1.0000 0.41510  0.06030  0.28970  Biso   1.000  O
  O102     1.0000 0.55260  0.05850  0.26620  Biso   1.000  O
  O103     1.0000 0.62620  0.01090  0.39030  Biso   1.000  O
  O104     1.0000 0.61480  0.12130  0.50180  Biso   1.000  O
  O105     1.0000 0.48320  0.16880  0.57090  Biso   1.000  O
  O106     1.0000 0.34060  0.09760  0.52120  Biso   1.000  O
  O107     1.0000 0.36020  0.98330  0.40590  Biso   1.000  O
  O108     1.0000 0.49160  0.93240  0.33630  Biso   1.000  O
  O109     1.0000 0.72300  0.12520  0.41500  Biso   1.000  O
  O110     1.0000 0.83730  0.14020  0.40510  Biso   1.000  O
  O111     1.0000 0.60690  0.25350  0.56100  Biso   1.000  O
  O112     1.0000 0.65040  0.35170  0.61540  Biso   1.000  O
  O113     1.0000 0.36400  0.23380  0.61990  Biso   1.000  O
  O114     1.0000 0.26400  0.29900  0.61000  Biso   1.000  O
  O115     1.0000 0.23200  0.06210  0.43200  Biso   1.000  O
  O116     1.0000 0.11500  0.05270  0.44100  Biso   1.000  O
  O117     1.0000 0.34880  0.92130  0.28150  Biso   1.000  O
  O118     1.0000 0.28710  0.84210  0.21190  Biso   1.000  O
  O119     1.0000 0.57880  0.79590  0.17850  Biso   1.000  O
  O120     1.0000 0.59400  0.88010  0.25150  Biso   1.000  O
  O121     1.0000 0.05230  0.01740  0.56940  Biso   1.000  O
  O122     1.0000 0.95810  0.07400  0.60330  Biso   1.000  O
  O123     1.0000 0.16080  0.15430  0.58910  Biso   1.000  O
  H107     1.0000 0.12350  0.14830  0.56500  Biso   1.000  H
  O124     1.0000 0.27660  0.09670  0.66370  Biso   1.000  O
  H108     1.0000 0.27470  0.10880  0.70980  Biso   1.000  H
  O125     1.0000 0.20480  0.00810  0.56050  Biso   1.000  O
  O126     1.0000 0.21510  0.90570  0.44710  Biso   1.000  O
  O127     1.0000 0.27930  0.83540  0.38110  Biso   1.000  O
  C73      1.0000 0.70020  0.10140  0.27570  Biso   1.000  C
  H109     1.0000 0.68090  0.12060  0.23170  Biso   1.000  H
  H110     1.0000 0.72230  0.05420  0.26710  Biso   1.000  H
  C74      1.0000 0.75880  0.15430  0.30410  Biso   1.000  C
  H111     1.0000 0.80110  0.14740  0.27980  Biso   1.000  H
  H112     1.0000 0.74300  0.20510  0.29790  Biso   1.000  H
  C75      1.0000 0.77550  0.13790  0.38060  Biso   1.000  C
  C76      1.0000 0.67140  0.28090  0.44530  Biso   1.000  C
  H113     1.0000 0.66840  0.30000  0.39870  Biso   1.000  H
  H114     1.0000 0.71920  0.26210  0.45590  Biso   1.000  H
  C77      1.0000 0.65840  0.34450  0.49440  Biso   1.000  C
  H115     1.0000 0.70140  0.37390  0.50200  Biso   1.000  H
  H116     1.0000 0.62090  0.37610  0.47390  Biso   1.000  H
  C78      1.0000 0.63700  0.31540  0.56350  Biso   1.000  C
  C79      1.0000 0.44750  0.33930  0.55660  Biso   1.000  C
  H117     1.0000 0.46310  0.37670  0.52550  Biso   1.000  H
  H118     1.0000 0.47750  0.34280  0.59930  Biso   1.000  H
  C80      1.0000 0.37020  0.35480  0.57100  Biso   1.000  C
  H119     1.0000 0.34290  0.36460  0.52740  Biso   1.000  H
  H120     1.0000 0.36900  0.39930  0.59840  Biso   1.000  H
  C81      1.0000 0.33380  0.29250  0.60740  Biso   1.000  C
  C82      1.0000 0.22740  0.21640  0.44490  Biso   1.000  C
  H121     1.0000 0.23480  0.25920  0.41640  Biso   1.000  H
  H122     1.0000 0.21760  0.23390  0.49010  Biso   1.000  H
  C83      1.0000 0.16350  0.17230  0.41350  Biso   1.000  C
  H123     1.0000 0.15990  0.17840  0.36400  Biso   1.000  H
  H124     1.0000 0.12030  0.19190  0.43030  Biso   1.000  H
  C84      1.0000 0.16950  0.09000  0.43080  Biso   1.000  C
  C85      1.0000 0.24770  0.02830  0.27480  Biso   1.000  C
  H125     1.0000 0.23730  0.07610  0.25390  Biso   1.000  H
  H126     1.0000 0.20940  0.01650  0.30320  Biso   1.000  H
  C86      1.0000 0.24900  0.97020  0.21820  Biso   1.000  C
  H127     1.0000 0.20090  0.95200  0.20700  Biso   1.000  H
  H128     1.0000 0.26470  0.99320  0.17730  Biso   1.000  H
  C87      1.0000 0.29770  0.90500  0.23890  Biso   1.000  C
  C88      1.0000 0.46470  0.95650  0.17630  Biso   1.000  C
  H129     1.0000 0.44830  0.99550  0.14480  Biso   1.000  H
  H130     1.0000 0.42910  0.91770  0.17440  Biso   1.000  H
  C89      1.0000 0.53580  0.92600  0.15700  Biso   1.000  C
  H131     1.0000 0.53160  0.91340  0.10830  Biso   1.000  H
  H132     1.0000 0.57210  0.96360  0.16410  Biso   1.000  H
  C90      1.0000 0.55900  0.85670  0.19800  Biso   1.000  C
  C91      1.0000 0.13220  0.03640  0.69540  Biso   1.000  C
  H133     1.0000 0.15340  0.05350  0.73950  Biso   1.000  H
  H134     1.0000 0.13130  0.98280  0.69630  Biso   1.000  H
  C92      1.0000 0.05590  0.06570  0.68400  Biso   1.000  C
  H135     1.0000 0.05690  0.11890  0.69110  Biso   1.000  H
  H136     1.0000 0.02820  0.04430  0.71860  Biso   1.000  H
  C93      1.0000 0.01800  0.04990  0.61340  Biso   1.000  C
  C94      1.0000 0.17500  0.72600  0.36200  Biso   1.000  C
  H137     1.0000 0.13430  0.69430  0.35970  Biso   1.000  H
  H138     1.0000 0.18600  0.73840  0.31590  Biso   1.000  H
  H139     1.0000 0.21490  0.70170  0.38540  Biso   1.000  H
  C95      1.0000 0.15870  0.79710  0.40000  Biso   1.000  C
  H140     1.0000 0.12770  0.82210  0.36450  Biso   1.000  H
  C96      1.0000 0.22210  0.84950  0.40470  Biso   1.000  C
  O128     1.0000 0.28900  0.32100  0.65100  Biso   1.000  O
