data_image0
_cell_length_a       26.7176
_cell_length_b       26.7176
_cell_length_c       7.1942
_cell_angle_alpha    90
_cell_angle_beta     90
_cell_angle_gamma    90

_symmetry_space_group_name_H-M    "P 1"
_symmetry_int_tables_number       1

loop_
  _symmetry_equiv_pos_as_xyz
  'x, y, z'

loop_
  _atom_site_label
  _atom_site_occupancy
  _atom_site_fract_x
  _atom_site_fract_y
  _atom_site_fract_z
  _atom_site_thermal_displace_type
  _atom_site_B_iso_or_equiv
  _atom_site_type_symbol
  I1       1.0000 0.69666  0.74214  0.62630  Biso   1.000  I
  Cu1      1.0000 0.75493  0.69946  0.36550  Biso   1.000  Cu
  Cu2      1.0000 0.74986  0.79527  0.86630  Biso   1.000  Cu
  I2       1.0000 0.80722  0.75361  0.12700  Biso   1.000  I
  N1       1.0000 0.70720  0.65930  0.21400  Biso   1.000  N
  N2       1.0000 0.80730  0.66220  0.51660  Biso   1.000  N
  N3       1.0000 0.79560  0.84060  0.72000  Biso   1.000  N
  N4       1.0000 0.69950  0.83240  0.01000  Biso   1.000  N
  C1       1.0000 0.71610  0.64780  0.04000  Biso   1.000  C
  C2       1.0000 0.66370  0.64340  0.27800  Biso   1.000  C
  C3       1.0000 0.79970  0.61530  0.55900  Biso   1.000  C
  C4       1.0000 0.84950  0.67970  0.58200  Biso   1.000  C
  C5       1.0000 0.84050  0.85600  0.77400  Biso   1.000  C
  C6       1.0000 0.78800  0.84600  0.54100  Biso   1.000  C
  H1       1.0000 0.74710  0.65810  0.99090  Biso   1.000  H
  C7       1.0000 0.68410  0.62190  0.91900  Biso   1.000  C
  C8       1.0000 0.62840  0.61220  0.17300  Biso   1.000  C
  H2       1.0000 0.65470  0.65280  0.39990  Biso   1.000  H
  H3       1.0000 0.77000  0.60000  0.51890  Biso   1.000  H
  C9       1.0000 0.83350  0.58710  0.66100  Biso   1.000  C
  C10      1.0000 0.87690  0.65940  0.73900  Biso   1.000  C
  H4       1.0000 0.86320  0.70780  0.52240  Biso   1.000  H
  H5       1.0000 0.85220  0.84520  0.89070  Biso   1.000  H
  C11      1.0000 0.87110  0.88700  0.67100  Biso   1.000  C
  C12      1.0000 0.81950  0.87380  0.41100  Biso   1.000  C
  H6       1.0000 0.75940  0.83050  0.49180  Biso   1.000  H
  H7       1.0000 0.69210  0.61720  0.79300  Biso   1.000  H
  C13      1.0000 0.63960  0.60340  0.99500  Biso   1.000  C
  H8       1.0000 0.59940  0.59900  0.22860  Biso   1.000  H
  C14      1.0000 0.87170  0.60970  0.75700  Biso   1.000  C
  H9       1.0000 0.83020  0.55210  0.66440  Biso   1.000  H
  H10      1.0000 0.89640  0.67910  0.81900  Biso   1.000  H
  H11      1.0000 0.89880  0.90230  0.72780  Biso   1.000  H
  C15      1.0000 0.86150  0.89590  0.48300  Biso   1.000  C
  H12      1.0000 0.81140  0.87630  0.28400  Biso   1.000  H
  C16      1.0000 0.60640  0.57450  0.87200  Biso   1.000  C
  C17      1.0000 0.90310  0.58230  0.88600  Biso   1.000  C
  C18      1.0000 0.89430  0.92410  0.37400  Biso   1.000  C
  C19      1.0000 0.62410  0.54340  0.72900  Biso   1.000  C
  C20      1.0000 0.55520  0.58010  0.89300  Biso   1.000  C
  C21      1.0000 0.90930  0.52990  0.87900  Biso   1.000  C
  C22      1.0000 0.92810  0.60730  0.02800  Biso   1.000  C
  C23      1.0000 0.94660  0.91910  0.39600  Biso   1.000  C
  C24      1.0000 0.87690  0.95390  0.22800  Biso   1.000  C
  H13      1.0000 0.65870  0.53840  0.71460  Biso   1.000  H
  C25      1.0000 0.59080  0.51990  0.60600  Biso   1.000  C
  C26      1.0000 0.52200  0.55510  0.77020  Biso   1.000  C
  H14      1.0000 0.54240  0.60060  0.98780  Biso   1.000  H
  H15      1.0000 0.89310  0.51100  0.78680  Biso   1.000  H
  C27      1.0000 0.93990  0.50640  0.01100  Biso   1.000  C
  C28      1.0000 0.95990  0.58360  0.15600  Biso   1.000  C
  H16      1.0000 0.92330  0.64210  0.03850  Biso   1.000  H
  H17      1.0000 0.95960  0.89860  0.49050  Biso   1.000  H
  C29      1.0000 0.97910  0.94490  0.27700  Biso   1.000  C
  C30      1.0000 0.90910  0.98140  0.11600  Biso   1.000  C
  H18      1.0000 0.84230  0.95540  0.20470  Biso   1.000  H
  H19      1.0000 0.60370  0.50000  0.50960  Biso   1.000  H
  C31      1.0000 0.54030  0.52510  0.62200  Biso   1.000  C
  H20      1.0000 0.48730  0.55850  0.78720  Biso   1.000  H
  H21      1.0000 0.94230  0.47130  0.00810  Biso   1.000  H
  C32      1.0000 0.96660  0.53200  0.14500  Biso   1.000  C
  H22      1.0000 0.97650  0.60230  0.24730  Biso   1.000  H
  H23      1.0000 0.01370  0.94350  0.29860  Biso   1.000  H
  C33      1.0000 0.96140  0.97260  0.12600  Biso   1.000  C
  H24      1.0000 0.89630  0.00570  0.03340  Biso   1.000  H
  C34      1.0000 0.97010  0.46290  0.38600  Biso   1.000  C
  C35      1.0000 0.91810  0.45500  0.35900  Biso   1.000  C
  C36      1.0000 0.99320  0.44350  0.53900  Biso   1.000  C
  C37      1.0000 0.89330  0.41930  0.47700  Biso   1.000  C
  H25      1.0000 0.90040  0.47260  0.26730  Biso   1.000  H
  C38      1.0000 0.96870  0.41200  0.66500  Biso   1.000  C
  H26      1.0000 0.02700  0.45160  0.56120  Biso   1.000  H
  C39      1.0000 0.91690  0.40270  0.63800  Biso   1.000  C
  H27      1.0000 0.86140  0.40720  0.44540  Biso   1.000  H
  H28      1.0000 0.98600  0.39740  0.76520  Biso   1.000  H
  C40      1.0000 0.88920  0.36740  0.76500  Biso   1.000  C
  C41      1.0000 0.84430  0.34940  0.71000  Biso   1.000  C
  C42      1.0000 0.90380  0.35690  0.94900  Biso   1.000  C
  C43      1.0000 0.81450  0.31720  0.83100  Biso   1.000  C
  H29      1.0000 0.83210  0.35770  0.59100  Biso   1.000  H
  C44      1.0000 0.87310  0.32330  0.04800  Biso   1.000  C
  H30      1.0000 0.93240  0.37140  0.00280  Biso   1.000  H
  H31      1.0000 0.78190  0.30840  0.79520  Biso   1.000  H
  H32      1.0000 0.88290  0.31640  0.17080  Biso   1.000  H
  C45      1.0000 0.56440  0.89090  0.48000  Biso   1.000  C
  H33      1.0000 0.56440  0.85570  0.48430  Biso   1.000  H
  C46      1.0000 0.53140  0.91930  0.59200  Biso   1.000  C
  H34      1.0000 0.50490  0.90300  0.65240  Biso   1.000  H
  C47      1.0000 0.56900  0.99620  0.49400  Biso   1.000  C
  H35      1.0000 0.57120  0.03130  0.49910  Biso   1.000  H
  C48      1.0000 0.59900  0.96930  0.36500  Biso   1.000  C
  H36      1.0000 0.61980  0.98660  0.28150  Biso   1.000  H
  C49      1.0000 0.62800  0.83890  0.22800  Biso   1.000  C
  H37      1.0000 0.60970  0.81990  0.31440  Biso   1.000  H
  C50      1.0000 0.65550  0.81750  0.06800  Biso   1.000  C
  H38      1.0000 0.64010  0.79110  0.00280  Biso   1.000  H
  C51      1.0000 0.70630  0.88180  0.03400  Biso   1.000  C
  H39      1.0000 0.73210  0.89780  0.96790  Biso   1.000  H
  C52      1.0000 0.67570  0.91060  0.15400  Biso   1.000  C
  H40      1.0000 0.68410  0.94400  0.17960  Biso   1.000  H
  C53      1.0000 0.34470  0.85420  0.18800  Biso   1.000  C
  H41      1.0000 0.33130  0.85990  0.06880  Biso   1.000  H
  C54      1.0000 0.31870  0.82580  0.33200  Biso   1.000  C
  H42      1.0000 0.28430  0.82030  0.31330  Biso   1.000  H
  C55      1.0000 0.37940  0.82810  0.53900  Biso   1.000  C
  H43      1.0000 0.39290  0.81970  0.65570  Biso   1.000  H
  C56      1.0000 0.40380  0.86300  0.42700  Biso   1.000  C
  H44      1.0000 0.43080  0.88060  0.47790  Biso   1.000  H
  I3       1.0000 0.30334  0.25786  0.62630  Biso   1.000  I
  Cu3      1.0000 0.24507  0.30054  0.36550  Biso   1.000  Cu
  Cu4      1.0000 0.25014  0.20473  0.86630  Biso   1.000  Cu
  I4       1.0000 0.19278  0.24639  0.12700  Biso   1.000  I
  N5       1.0000 0.29280  0.34070  0.21400  Biso   1.000  N
  N6       1.0000 0.19270  0.33780  0.51660  Biso   1.000  N
  N7       1.0000 0.20440  0.15940  0.72000  Biso   1.000  N
  N8       1.0000 0.30050  0.16760  0.01000  Biso   1.000  N
  C57      1.0000 0.28390  0.35220  0.04000  Biso   1.000  C
  C58      1.0000 0.33630  0.35660  0.27800  Biso   1.000  C
  C59      1.0000 0.20030  0.38470  0.55900  Biso   1.000  C
  C60      1.0000 0.15050  0.32030  0.58200  Biso   1.000  C
  C61      1.0000 0.15950  0.14400  0.77400  Biso   1.000  C
  C62      1.0000 0.21200  0.15400  0.54100  Biso   1.000  C
  H45      1.0000 0.25290  0.34190  0.99090  Biso   1.000  H
  C63      1.0000 0.31590  0.37810  0.91900  Biso   1.000  C
  C64      1.0000 0.37160  0.38780  0.17300  Biso   1.000  C
  H46      1.0000 0.34530  0.34720  0.39990  Biso   1.000  H
  H47      1.0000 0.23000  0.40000  0.51890  Biso   1.000  H
  C65      1.0000 0.16650  0.41290  0.66100  Biso   1.000  C
  C66      1.0000 0.12310  0.34060  0.73900  Biso   1.000  C
  H48      1.0000 0.13680  0.29220  0.52240  Biso   1.000  H
  H49      1.0000 0.14780  0.15480  0.89070  Biso   1.000  H
  C67      1.0000 0.12890  0.11300  0.67100  Biso   1.000  C
  C68      1.0000 0.18050  0.12620  0.41100  Biso   1.000  C
  H50      1.0000 0.24060  0.16950  0.49180  Biso   1.000  H
  H51      1.0000 0.30790  0.38280  0.79300  Biso   1.000  H
  C69      1.0000 0.36040  0.39660  0.99500  Biso   1.000  C
  H52      1.0000 0.40060  0.40100  0.22860  Biso   1.000  H
  C70      1.0000 0.12830  0.39030  0.75700  Biso   1.000  C
  H53      1.0000 0.16980  0.44790  0.66440  Biso   1.000  H
  H54      1.0000 0.10360  0.32090  0.81900  Biso   1.000  H
  H55      1.0000 0.10120  0.09770  0.72780  Biso   1.000  H
  C71      1.0000 0.13850  0.10410  0.48300  Biso   1.000  C
  H56      1.0000 0.18860  0.12370  0.28400  Biso   1.000  H
  C72      1.0000 0.39360  0.42550  0.87200  Biso   1.000  C
  C73      1.0000 0.09690  0.41770  0.88600  Biso   1.000  C
  C74      1.0000 0.10570  0.07590  0.37400  Biso   1.000  C
  C75      1.0000 0.37590  0.45660  0.72900  Biso   1.000  C
  C76      1.0000 0.44480  0.41990  0.89300  Biso   1.000  C
  C77      1.0000 0.09070  0.47010  0.87900  Biso   1.000  C
  C78      1.0000 0.07190  0.39270  0.02800  Biso   1.000  C
  C79      1.0000 0.05340  0.08090  0.39600  Biso   1.000  C
  C80      1.0000 0.12310  0.04610  0.22800  Biso   1.000  C
  H57      1.0000 0.34130  0.46160  0.71460  Biso   1.000  H
  C81      1.0000 0.40920  0.48010  0.60600  Biso   1.000  C
  C82      1.0000 0.47800  0.44490  0.77020  Biso   1.000  C
  H58      1.0000 0.45760  0.39940  0.98780  Biso   1.000  H
  H59      1.0000 0.10690  0.48900  0.78680  Biso   1.000  H
  C83      1.0000 0.06010  0.49360  0.01100  Biso   1.000  C
  C84      1.0000 0.04010  0.41640  0.15600  Biso   1.000  C
  H60      1.0000 0.07670  0.35790  0.03850  Biso   1.000  H
  H61      1.0000 0.04040  0.10140  0.49050  Biso   1.000  H
  C85      1.0000 0.02090  0.05510  0.27700  Biso   1.000  C
  C86      1.0000 0.09090  0.01860  0.11600  Biso   1.000  C
  H62      1.0000 0.15770  0.04460  0.20470  Biso   1.000  H
  H63      1.0000 0.39630  0.50000  0.50960  Biso   1.000  H
  C87      1.0000 0.45970  0.47490  0.62200  Biso   1.000  C
  H64      1.0000 0.51270  0.44150  0.78720  Biso   1.000  H
  H65      1.0000 0.05770  0.52870  0.00810  Biso   1.000  H
  C88      1.0000 0.03340  0.46800  0.14500  Biso   1.000  C
  H66      1.0000 0.02350  0.39770  0.24730  Biso   1.000  H
  H67      1.0000 0.98630  0.05650  0.29860  Biso   1.000  H
  C89      1.0000 0.03860  0.02740  0.12600  Biso   1.000  C
  H68      1.0000 0.10370  0.99430  0.03340  Biso   1.000  H
  C90      1.0000 0.02990  0.53710  0.38600  Biso   1.000  C
  C91      1.0000 0.08190  0.54500  0.35900  Biso   1.000  C
  C92      1.0000 0.00680  0.55650  0.53900  Biso   1.000  C
  C93      1.0000 0.10670  0.58070  0.47700  Biso   1.000  C
  H69      1.0000 0.09960  0.52740  0.26730  Biso   1.000  H
  C94      1.0000 0.03130  0.58800  0.66500  Biso   1.000  C
  H70      1.0000 0.97300  0.54840  0.56120  Biso   1.000  H
  C95      1.0000 0.08310  0.59730  0.63800  Biso   1.000  C
  H71      1.0000 0.13860  0.59280  0.44540  Biso   1.000  H
  H72      1.0000 0.01400  0.60260  0.76520  Biso   1.000  H
  C96      1.0000 0.11080  0.63260  0.76500  Biso   1.000  C
  C97      1.0000 0.15570  0.65060  0.71000  Biso   1.000  C
  C98      1.0000 0.09620  0.64310  0.94900  Biso   1.000  C
  C99      1.0000 0.18550  0.68280  0.83100  Biso   1.000  C
  H73      1.0000 0.16790  0.64230  0.59100  Biso   1.000  H
  C100     1.0000 0.12690  0.67670  0.04800  Biso   1.000  C
  H74      1.0000 0.06760  0.62860  0.00280  Biso   1.000  H
  H75      1.0000 0.21810  0.69160  0.79520  Biso   1.000  H
  H76      1.0000 0.11710  0.68360  0.17080  Biso   1.000  H
  C101     1.0000 0.43560  0.10910  0.48000  Biso   1.000  C
  H77      1.0000 0.43560  0.14430  0.48430  Biso   1.000  H
  C102     1.0000 0.46860  0.08070  0.59200  Biso   1.000  C
  H78      1.0000 0.49510  0.09700  0.65240  Biso   1.000  H
  C103     1.0000 0.43100  0.00380  0.49400  Biso   1.000  C
  H79      1.0000 0.42880  0.96870  0.49910  Biso   1.000  H
  C104     1.0000 0.40100  0.03070  0.36500  Biso   1.000  C
  H80      1.0000 0.38020  0.01340  0.28150  Biso   1.000  H
  C105     1.0000 0.37200  0.16110  0.22800  Biso   1.000  C
  H81      1.0000 0.39030  0.18010  0.31440  Biso   1.000  H
  C106     1.0000 0.34450  0.18250  0.06800  Biso   1.000  C
  H82      1.0000 0.35990  0.20890  0.00280  Biso   1.000  H
  C107     1.0000 0.29370  0.11820  0.03400  Biso   1.000  C
  H83      1.0000 0.26790  0.10220  0.96790  Biso   1.000  H
  C108     1.0000 0.32430  0.08940  0.15400  Biso   1.000  C
  H84      1.0000 0.31590  0.05600  0.17960  Biso   1.000  H
  C109     1.0000 0.65530  0.14580  0.18800  Biso   1.000  C
  H85      1.0000 0.66870  0.14010  0.06880  Biso   1.000  H
  C110     1.0000 0.68130  0.17420  0.33200  Biso   1.000  C
  H86      1.0000 0.71570  0.17970  0.31330  Biso   1.000  H
  C111     1.0000 0.62060  0.17190  0.53900  Biso   1.000  C
  H87      1.0000 0.60710  0.18030  0.65570  Biso   1.000  H
  C112     1.0000 0.59620  0.13700  0.42700  Biso   1.000  C
  H88      1.0000 0.56920  0.11940  0.47790  Biso   1.000  H
  I5       1.0000 0.74214  0.30334  0.37370  Biso   1.000  I
  Cu5      1.0000 0.69946  0.24507  0.63450  Biso   1.000  Cu
  Cu6      1.0000 0.79527  0.25014  0.13370  Biso   1.000  Cu
  I6       1.0000 0.75361  0.19278  0.87300  Biso   1.000  I
  N9       1.0000 0.65930  0.29280  0.78600  Biso   1.000  N
  N10      1.0000 0.66220  0.19270  0.48340  Biso   1.000  N
  N11      1.0000 0.84060  0.20440  0.28000  Biso   1.000  N
  N12      1.0000 0.83240  0.30050  0.99000  Biso   1.000  N
  C113     1.0000 0.64780  0.28390  0.96000  Biso   1.000  C
  C114     1.0000 0.64340  0.33630  0.72200  Biso   1.000  C
  C115     1.0000 0.61530  0.20030  0.44100  Biso   1.000  C
  C116     1.0000 0.67970  0.15050  0.41800  Biso   1.000  C
  C117     1.0000 0.85600  0.15950  0.22600  Biso   1.000  C
  C118     1.0000 0.84600  0.21200  0.45900  Biso   1.000  C
  H89      1.0000 0.65810  0.25290  0.00910  Biso   1.000  H
  C119     1.0000 0.62190  0.31590  0.08100  Biso   1.000  C
  C120     1.0000 0.61220  0.37160  0.82700  Biso   1.000  C
  H90      1.0000 0.65280  0.34530  0.60010  Biso   1.000  H
  H91      1.0000 0.60000  0.23000  0.48110  Biso   1.000  H
  C121     1.0000 0.58710  0.16650  0.33900  Biso   1.000  C
  C122     1.0000 0.65940  0.12310  0.26100  Biso   1.000  C
  H92      1.0000 0.70780  0.13680  0.47760  Biso   1.000  H
  H93      1.0000 0.84520  0.14780  0.10930  Biso   1.000  H
  C123     1.0000 0.88700  0.12890  0.32900  Biso   1.000  C
  C124     1.0000 0.87380  0.18050  0.58900  Biso   1.000  C
  H94      1.0000 0.83050  0.24060  0.50820  Biso   1.000  H
  H95      1.0000 0.61720  0.30790  0.20700  Biso   1.000  H
  C125     1.0000 0.60340  0.36040  0.00500  Biso   1.000  C
  H96      1.0000 0.59900  0.40060  0.77140  Biso   1.000  H
  C126     1.0000 0.60970  0.12830  0.24300  Biso   1.000  C
  H97      1.0000 0.55210  0.16980  0.33560  Biso   1.000  H
  H98      1.0000 0.67910  0.10360  0.18100  Biso   1.000  H
  H99      1.0000 0.90230  0.10120  0.27220  Biso   1.000  H
  C127     1.0000 0.89590  0.13850  0.51700  Biso   1.000  C
  H100     1.0000 0.87630  0.18860  0.71600  Biso   1.000  H
  C128     1.0000 0.57450  0.39360  0.12800  Biso   1.000  C
  C129     1.0000 0.58230  0.09690  0.11400  Biso   1.000  C
  C130     1.0000 0.92410  0.10570  0.62600  Biso   1.000  C
  C131     1.0000 0.54340  0.37590  0.27100  Biso   1.000  C
  C132     1.0000 0.58010  0.44480  0.10700  Biso   1.000  C
  C133     1.0000 0.52990  0.09070  0.12100  Biso   1.000  C
  C134     1.0000 0.60730  0.07190  0.97200  Biso   1.000  C
  C135     1.0000 0.91910  0.05340  0.60400  Biso   1.000  C
  C136     1.0000 0.95390  0.12310  0.77200  Biso   1.000  C
  H101     1.0000 0.53840  0.34130  0.28540  Biso   1.000  H
  C137     1.0000 0.51990  0.40920  0.39400  Biso   1.000  C
  C138     1.0000 0.55510  0.47800  0.22980  Biso   1.000  C
  H102     1.0000 0.60060  0.45760  0.01220  Biso   1.000  H
  H103     1.0000 0.51100  0.10690  0.21320  Biso   1.000  H
  C139     1.0000 0.50640  0.06010  0.98900  Biso   1.000  C
  C140     1.0000 0.58360  0.04010  0.84400  Biso   1.000  C
  H104     1.0000 0.64210  0.07670  0.96150  Biso   1.000  H
  H105     1.0000 0.89860  0.04040  0.50950  Biso   1.000  H
  C141     1.0000 0.94490  0.02090  0.72300  Biso   1.000  C
  C142     1.0000 0.98140  0.09090  0.88400  Biso   1.000  C
  H106     1.0000 0.95540  0.15770  0.79530  Biso   1.000  H
  H107     1.0000 0.50000  0.39630  0.49040  Biso   1.000  H
  C143     1.0000 0.52510  0.45970  0.37800  Biso   1.000  C
  H108     1.0000 0.55850  0.51270  0.21280  Biso   1.000  H
  H109     1.0000 0.47130  0.05770  0.99190  Biso   1.000  H
  C144     1.0000 0.53200  0.03340  0.85500  Biso   1.000  C
  H110     1.0000 0.60230  0.02350  0.75270  Biso   1.000  H
  H111     1.0000 0.94350  0.98630  0.70140  Biso   1.000  H
  C145     1.0000 0.97260  0.03860  0.87400  Biso   1.000  C
  H112     1.0000 0.00570  0.10370  0.96660  Biso   1.000  H
  C146     1.0000 0.46290  0.02990  0.61400  Biso   1.000  C
  C147     1.0000 0.45500  0.08190  0.64100  Biso   1.000  C
  C148     1.0000 0.44350  0.00680  0.46100  Biso   1.000  C
  C149     1.0000 0.41930  0.10670  0.52300  Biso   1.000  C
  H113     1.0000 0.47260  0.09960  0.73270  Biso   1.000  H
  C150     1.0000 0.41200  0.03130  0.33500  Biso   1.000  C
  H114     1.0000 0.45160  0.97300  0.43880  Biso   1.000  H
  C151     1.0000 0.40270  0.08310  0.36200  Biso   1.000  C
  H115     1.0000 0.40720  0.13860  0.55460  Biso   1.000  H
  H116     1.0000 0.39740  0.01400  0.23480  Biso   1.000  H
  C152     1.0000 0.36740  0.11080  0.23500  Biso   1.000  C
  C153     1.0000 0.34940  0.15570  0.29000  Biso   1.000  C
  C154     1.0000 0.35690  0.09620  0.05100  Biso   1.000  C
  C155     1.0000 0.31720  0.18550  0.16900  Biso   1.000  C
  H117     1.0000 0.35770  0.16790  0.40900  Biso   1.000  H
  C156     1.0000 0.32330  0.12690  0.95200  Biso   1.000  C
  H118     1.0000 0.37140  0.06760  0.99720  Biso   1.000  H
  H119     1.0000 0.30840  0.21810  0.20480  Biso   1.000  H
  H120     1.0000 0.31640  0.11710  0.82920  Biso   1.000  H
  C157     1.0000 0.89090  0.43560  0.52000  Biso   1.000  C
  H121     1.0000 0.85570  0.43560  0.51570  Biso   1.000  H
  C158     1.0000 0.91930  0.46860  0.40800  Biso   1.000  C
  H122     1.0000 0.90300  0.49510  0.34760  Biso   1.000  H
  C159     1.0000 0.99620  0.43100  0.50600  Biso   1.000  C
  H123     1.0000 0.03130  0.42880  0.50090  Biso   1.000  H
  C160     1.0000 0.96930  0.40100  0.63500  Biso   1.000  C
  H124     1.0000 0.98660  0.38020  0.71850  Biso   1.000  H
  C161     1.0000 0.83890  0.37200  0.77200  Biso   1.000  C
  H125     1.0000 0.81990  0.39030  0.68560  Biso   1.000  H
  C162     1.0000 0.81750  0.34450  0.93200  Biso   1.000  C
  H126     1.0000 0.79110  0.35990  0.99720  Biso   1.000  H
  C163     1.0000 0.88180  0.29370  0.96600  Biso   1.000  C
  H127     1.0000 0.89780  0.26790  0.03210  Biso   1.000  H
  C164     1.0000 0.91060  0.32430  0.84600  Biso   1.000  C
  H128     1.0000 0.94400  0.31590  0.82040  Biso   1.000  H
  C165     1.0000 0.85420  0.65530  0.81200  Biso   1.000  C
  H129     1.0000 0.85990  0.66870  0.93120  Biso   1.000  H
  C166     1.0000 0.82580  0.68130  0.66800  Biso   1.000  C
  H130     1.0000 0.82030  0.71570  0.68670  Biso   1.000  H
  C167     1.0000 0.82810  0.62060  0.46100  Biso   1.000  C
  H131     1.0000 0.81970  0.60710  0.34430  Biso   1.000  H
  C168     1.0000 0.86300  0.59620  0.57300  Biso   1.000  C
  H132     1.0000 0.88060  0.56920  0.52210  Biso   1.000  H
  I7       1.0000 0.25786  0.69666  0.37370  Biso   1.000  I
  Cu7      1.0000 0.30054  0.75493  0.63450  Biso   1.000  Cu
  Cu8      1.0000 0.20473  0.74986  0.13370  Biso   1.000  Cu
  I8       1.0000 0.24639  0.80722  0.87300  Biso   1.000  I
  N13      1.0000 0.34070  0.70720  0.78600  Biso   1.000  N
  N14      1.0000 0.33780  0.80730  0.48340  Biso   1.000  N
  N15      1.0000 0.15940  0.79560  0.28000  Biso   1.000  N
  N16      1.0000 0.16760  0.69950  0.99000  Biso   1.000  N
  C169     1.0000 0.35220  0.71610  0.96000  Biso   1.000  C
  C170     1.0000 0.35660  0.66370  0.72200  Biso   1.000  C
  C171     1.0000 0.38470  0.79970  0.44100  Biso   1.000  C
  C172     1.0000 0.32030  0.84950  0.41800  Biso   1.000  C
  C173     1.0000 0.14400  0.84050  0.22600  Biso   1.000  C
  C174     1.0000 0.15400  0.78800  0.45900  Biso   1.000  C
  H133     1.0000 0.34190  0.74710  0.00910  Biso   1.000  H
  C175     1.0000 0.37810  0.68410  0.08100  Biso   1.000  C
  C176     1.0000 0.38780  0.62840  0.82700  Biso   1.000  C
  H134     1.0000 0.34720  0.65470  0.60010  Biso   1.000  H
  H135     1.0000 0.40000  0.77000  0.48110  Biso   1.000  H
  C177     1.0000 0.41290  0.83350  0.33900  Biso   1.000  C
  C178     1.0000 0.34060  0.87690  0.26100  Biso   1.000  C
  H136     1.0000 0.29220  0.86320  0.47760  Biso   1.000  H
  H137     1.0000 0.15480  0.85220  0.10930  Biso   1.000  H
  C179     1.0000 0.11300  0.87110  0.32900  Biso   1.000  C
  C180     1.0000 0.12620  0.81950  0.58900  Biso   1.000  C
  H138     1.0000 0.16950  0.75940  0.50820  Biso   1.000  H
  H139     1.0000 0.38280  0.69210  0.20700  Biso   1.000  H
  C181     1.0000 0.39660  0.63960  0.00500  Biso   1.000  C
  H140     1.0000 0.40100  0.59940  0.77140  Biso   1.000  H
  C182     1.0000 0.39030  0.87170  0.24300  Biso   1.000  C
  H141     1.0000 0.44790  0.83020  0.33560  Biso   1.000  H
  H142     1.0000 0.32090  0.89640  0.18100  Biso   1.000  H
  H143     1.0000 0.09770  0.89880  0.27220  Biso   1.000  H
  C183     1.0000 0.10410  0.86150  0.51700  Biso   1.000  C
  H144     1.0000 0.12370  0.81140  0.71600  Biso   1.000  H
  C184     1.0000 0.42550  0.60640  0.12800  Biso   1.000  C
  C185     1.0000 0.41770  0.90310  0.11400  Biso   1.000  C
  C186     1.0000 0.07590  0.89430  0.62600  Biso   1.000  C
  C187     1.0000 0.45660  0.62410  0.27100  Biso   1.000  C
  C188     1.0000 0.41990  0.55520  0.10700  Biso   1.000  C
  C189     1.0000 0.47010  0.90930  0.12100  Biso   1.000  C
  C190     1.0000 0.39270  0.92810  0.97200  Biso   1.000  C
  C191     1.0000 0.08090  0.94660  0.60400  Biso   1.000  C
  C192     1.0000 0.04610  0.87690  0.77200  Biso   1.000  C
  H145     1.0000 0.46160  0.65870  0.28540  Biso   1.000  H
  C193     1.0000 0.48010  0.59080  0.39400  Biso   1.000  C
  C194     1.0000 0.44490  0.52200  0.22980  Biso   1.000  C
  H146     1.0000 0.39940  0.54240  0.01220  Biso   1.000  H
  H147     1.0000 0.48900  0.89310  0.21320  Biso   1.000  H
  C195     1.0000 0.49360  0.93990  0.98900  Biso   1.000  C
  C196     1.0000 0.41640  0.95990  0.84400  Biso   1.000  C
  H148     1.0000 0.35790  0.92330  0.96150  Biso   1.000  H
  H149     1.0000 0.10140  0.95960  0.50950  Biso   1.000  H
  C197     1.0000 0.05510  0.97910  0.72300  Biso   1.000  C
  C198     1.0000 0.01860  0.90910  0.88400  Biso   1.000  C
  H150     1.0000 0.04460  0.84230  0.79530  Biso   1.000  H
  H151     1.0000 0.50000  0.60370  0.49040  Biso   1.000  H
  C199     1.0000 0.47490  0.54030  0.37800  Biso   1.000  C
  H152     1.0000 0.44150  0.48730  0.21280  Biso   1.000  H
  H153     1.0000 0.52870  0.94230  0.99190  Biso   1.000  H
  C200     1.0000 0.46800  0.96660  0.85500  Biso   1.000  C
  H154     1.0000 0.39770  0.97650  0.75270  Biso   1.000  H
  H155     1.0000 0.05650  0.01370  0.70140  Biso   1.000  H
  C201     1.0000 0.02740  0.96140  0.87400  Biso   1.000  C
  H156     1.0000 0.99430  0.89630  0.96660  Biso   1.000  H
  C202     1.0000 0.53710  0.97010  0.61400  Biso   1.000  C
  C203     1.0000 0.54500  0.91810  0.64100  Biso   1.000  C
  C204     1.0000 0.55650  0.99320  0.46100  Biso   1.000  C
  C205     1.0000 0.58070  0.89330  0.52300  Biso   1.000  C
  H157     1.0000 0.52740  0.90040  0.73270  Biso   1.000  H
  C206     1.0000 0.58800  0.96870  0.33500  Biso   1.000  C
  H158     1.0000 0.54840  0.02700  0.43880  Biso   1.000  H
  C207     1.0000 0.59730  0.91690  0.36200  Biso   1.000  C
  H159     1.0000 0.59280  0.86140  0.55460  Biso   1.000  H
  H160     1.0000 0.60260  0.98600  0.23480  Biso   1.000  H
  C208     1.0000 0.63260  0.88920  0.23500  Biso   1.000  C
  C209     1.0000 0.65060  0.84430  0.29000  Biso   1.000  C
  C210     1.0000 0.64310  0.90380  0.05100  Biso   1.000  C
  C211     1.0000 0.68280  0.81450  0.16900  Biso   1.000  C
  H161     1.0000 0.64230  0.83210  0.40900  Biso   1.000  H
  C212     1.0000 0.67670  0.87310  0.95200  Biso   1.000  C
  H162     1.0000 0.62860  0.93240  0.99720  Biso   1.000  H
  H163     1.0000 0.69160  0.78190  0.20480  Biso   1.000  H
  H164     1.0000 0.68360  0.88290  0.82920  Biso   1.000  H
  C213     1.0000 0.10910  0.56440  0.52000  Biso   1.000  C
  H165     1.0000 0.14430  0.56440  0.51570  Biso   1.000  H
  C214     1.0000 0.08070  0.53140  0.40800  Biso   1.000  C
  H166     1.0000 0.09700  0.50490  0.34760  Biso   1.000  H
  C215     1.0000 0.00380  0.56900  0.50600  Biso   1.000  C
  H167     1.0000 0.96870  0.57120  0.50090  Biso   1.000  H
  C216     1.0000 0.03070  0.59900  0.63500  Biso   1.000  C
  H168     1.0000 0.01340  0.61980  0.71850  Biso   1.000  H
  C217     1.0000 0.16110  0.62800  0.77200  Biso   1.000  C
  H169     1.0000 0.18010  0.60970  0.68560  Biso   1.000  H
  C218     1.0000 0.18250  0.65550  0.93200  Biso   1.000  C
  H170     1.0000 0.20890  0.64010  0.99720  Biso   1.000  H
  C219     1.0000 0.11820  0.70630  0.96600  Biso   1.000  C
  H171     1.0000 0.10220  0.73210  0.03210  Biso   1.000  H
  C220     1.0000 0.08940  0.67570  0.84600  Biso   1.000  C
  H172     1.0000 0.05600  0.68410  0.82040  Biso   1.000  H
  C221     1.0000 0.14580  0.34470  0.81200  Biso   1.000  C
  H173     1.0000 0.14010  0.33130  0.93120  Biso   1.000  H
  C222     1.0000 0.17420  0.31870  0.66800  Biso   1.000  C
  H174     1.0000 0.17970  0.28430  0.68670  Biso   1.000  H
  C223     1.0000 0.17190  0.37940  0.46100  Biso   1.000  C
  H175     1.0000 0.18030  0.39290  0.34430  Biso   1.000  H
  C224     1.0000 0.13700  0.40380  0.57300  Biso   1.000  C
  H176     1.0000 0.11940  0.43080  0.52210  Biso   1.000  H
  C225     1.0000 0.50000  0.50000  0.50000  Biso   1.000  C
  C226     1.0000 0.00000  0.50000  0.27900  Biso   1.000  C
  C227     1.0000 0.50000  0.00000  0.72100  Biso   1.000  C
  C228     1.0000 0.00000  0.00000  0.00000  Biso   1.000  C
