data_image0
_cell_length_a       13.2563
_cell_length_b       13.2563
_cell_length_c       27.5616
_cell_angle_alpha    90
_cell_angle_beta     90
_cell_angle_gamma    90

_symmetry_space_group_name_H-M    "P 1"
_symmetry_int_tables_number       1

loop_
  _symmetry_equiv_pos_as_xyz
  'x, y, z'

loop_
  _atom_site_label
  _atom_site_occupancy
  _atom_site_fract_x
  _atom_site_fract_y
  _atom_site_fract_z
  _atom_site_thermal_displace_type
  _atom_site_B_iso_or_equiv
  _atom_site_type_symbol
  C1       1.0000 0.15330  0.72660  0.20143  Biso   1.000  C
  C2       1.0000 0.09050  0.66730  0.23092  Biso   1.000  C
  C3       1.0000 0.16810  0.58970  0.14494  Biso   1.000  C
  C4       1.0000 0.10780  0.53110  0.17453  Biso   1.000  C
  H1       1.0000 0.09320  0.46370  0.16510  Biso   1.000  H
  H2       1.0000 0.19450  0.56230  0.11570  Biso   1.000  H
  H3       1.0000 0.17030  0.79290  0.21160  Biso   1.000  H
  H4       1.0000 0.06340  0.69470  0.26000  Biso   1.000  H
  C5       1.0000 0.20630  0.82810  0.09584  Biso   1.000  C
  C6       1.0000 0.35490  0.74510  0.12216  Biso   1.000  C
  C7       1.0000 0.40880  0.80330  0.08865  Biso   1.000  C
  H5       1.0000 0.48010  0.79610  0.08770  Biso   1.000  H
  C8       1.0000 0.26530  0.88190  0.06299  Biso   1.000  C
  H6       1.0000 0.23390  0.93080  0.04290  Biso   1.000  H
  H7       1.0000 0.38980  0.69930  0.14270  Biso   1.000  H
  H8       1.0000 0.13600  0.84070  0.09840  Biso   1.000  H
  C9       1.0000 0.84670  0.27340  0.20143  Biso   1.000  C
  C10      1.0000 0.90950  0.33270  0.23092  Biso   1.000  C
  C11      1.0000 0.83190  0.41030  0.14494  Biso   1.000  C
  C12      1.0000 0.89220  0.46890  0.17453  Biso   1.000  C
  H9       1.0000 0.90680  0.53630  0.16510  Biso   1.000  H
  H10      1.0000 0.80550  0.43770  0.11570  Biso   1.000  H
  H11      1.0000 0.82970  0.20710  0.21160  Biso   1.000  H
  H12      1.0000 0.93660  0.30530  0.26000  Biso   1.000  H
  C13      1.0000 0.79370  0.17190  0.09584  Biso   1.000  C
  C14      1.0000 0.64510  0.25490  0.12216  Biso   1.000  C
  C15      1.0000 0.59120  0.19670  0.08865  Biso   1.000  C
  H13      1.0000 0.51990  0.20390  0.08770  Biso   1.000  H
  C16      1.0000 0.73470  0.11810  0.06299  Biso   1.000  C
  H14      1.0000 0.76610  0.06920  0.04290  Biso   1.000  H
  H15      1.0000 0.61020  0.30070  0.14270  Biso   1.000  H
  H16      1.0000 0.86400  0.15930  0.09840  Biso   1.000  H
  C17      1.0000 0.77340  0.65330  0.70143  Biso   1.000  C
  C18      1.0000 0.83270  0.59050  0.73092  Biso   1.000  C
  C19      1.0000 0.91030  0.66810  0.64494  Biso   1.000  C
  C20      1.0000 0.96890  0.60780  0.67453  Biso   1.000  C
  H17      1.0000 0.03630  0.59320  0.66510  Biso   1.000  H
  H18      1.0000 0.93770  0.69450  0.61570  Biso   1.000  H
  H19      1.0000 0.70710  0.67030  0.71160  Biso   1.000  H
  H20      1.0000 0.80530  0.56340  0.76000  Biso   1.000  H
  C21      1.0000 0.67190  0.70630  0.59584  Biso   1.000  C
  C22      1.0000 0.75490  0.85490  0.62216  Biso   1.000  C
  C23      1.0000 0.69670  0.90880  0.58865  Biso   1.000  C
  H21      1.0000 0.70390  0.98010  0.58770  Biso   1.000  H
  C24      1.0000 0.61810  0.76530  0.56299  Biso   1.000  C
  H22      1.0000 0.56920  0.73390  0.54290  Biso   1.000  H
  H23      1.0000 0.80070  0.88980  0.64270  Biso   1.000  H
  H24      1.0000 0.65930  0.63600  0.59840  Biso   1.000  H
  C25      1.0000 0.22660  0.34670  0.70143  Biso   1.000  C
  C26      1.0000 0.16730  0.40950  0.73092  Biso   1.000  C
  C27      1.0000 0.08970  0.33190  0.64494  Biso   1.000  C
  C28      1.0000 0.03110  0.39220  0.67453  Biso   1.000  C
  H25      1.0000 0.96370  0.40680  0.66510  Biso   1.000  H
  H26      1.0000 0.06230  0.30550  0.61570  Biso   1.000  H
  H27      1.0000 0.29290  0.32970  0.71160  Biso   1.000  H
  H28      1.0000 0.19470  0.43660  0.76000  Biso   1.000  H
  C29      1.0000 0.32810  0.29370  0.59584  Biso   1.000  C
  C30      1.0000 0.24510  0.14510  0.62216  Biso   1.000  C
  C31      1.0000 0.30330  0.09120  0.58865  Biso   1.000  C
  H29      1.0000 0.29610  0.01990  0.58770  Biso   1.000  H
  C32      1.0000 0.38190  0.23470  0.56299  Biso   1.000  C
  H30      1.0000 0.43080  0.26610  0.54290  Biso   1.000  H
  H31      1.0000 0.19930  0.11020  0.64270  Biso   1.000  H
  H32      1.0000 0.34070  0.36400  0.59840  Biso   1.000  H
  C33      1.0000 0.84670  0.72660  0.29857  Biso   1.000  C
  C34      1.0000 0.90950  0.66730  0.26908  Biso   1.000  C
  C35      1.0000 0.83190  0.58970  0.35506  Biso   1.000  C
  C36      1.0000 0.89220  0.53110  0.32547  Biso   1.000  C
  H33      1.0000 0.90680  0.46370  0.33490  Biso   1.000  H
  H34      1.0000 0.80550  0.56230  0.38430  Biso   1.000  H
  H35      1.0000 0.82970  0.79290  0.28840  Biso   1.000  H
  H36      1.0000 0.93660  0.69470  0.24000  Biso   1.000  H
  C37      1.0000 0.79370  0.82810  0.40416  Biso   1.000  C
  C38      1.0000 0.64510  0.74510  0.37784  Biso   1.000  C
  C39      1.0000 0.59120  0.80330  0.41135  Biso   1.000  C
  H37      1.0000 0.51990  0.79610  0.41230  Biso   1.000  H
  C40      1.0000 0.73470  0.88190  0.43701  Biso   1.000  C
  H38      1.0000 0.76610  0.93080  0.45710  Biso   1.000  H
  H39      1.0000 0.61020  0.69930  0.35730  Biso   1.000  H
  H40      1.0000 0.86400  0.84070  0.40160  Biso   1.000  H
  C41      1.0000 0.15330  0.27340  0.29857  Biso   1.000  C
  C42      1.0000 0.09050  0.33270  0.26908  Biso   1.000  C
  C43      1.0000 0.16810  0.41030  0.35506  Biso   1.000  C
  C44      1.0000 0.10780  0.46890  0.32547  Biso   1.000  C
  H41      1.0000 0.09320  0.53630  0.33490  Biso   1.000  H
  H42      1.0000 0.19450  0.43770  0.38430  Biso   1.000  H
  H43      1.0000 0.17030  0.20710  0.28840  Biso   1.000  H
  H44      1.0000 0.06340  0.30530  0.24000  Biso   1.000  H
  C45      1.0000 0.20630  0.17190  0.40416  Biso   1.000  C
  C46      1.0000 0.35490  0.25490  0.37784  Biso   1.000  C
  C47      1.0000 0.40880  0.19670  0.41135  Biso   1.000  C
  H45      1.0000 0.48010  0.20390  0.41230  Biso   1.000  H
  C48      1.0000 0.26530  0.11810  0.43701  Biso   1.000  C
  H46      1.0000 0.23390  0.06920  0.45710  Biso   1.000  H
  H47      1.0000 0.38980  0.30070  0.35730  Biso   1.000  H
  H48      1.0000 0.13600  0.15930  0.40160  Biso   1.000  H
  C49      1.0000 0.22660  0.65330  0.79857  Biso   1.000  C
  C50      1.0000 0.16730  0.59050  0.76908  Biso   1.000  C
  C51      1.0000 0.08970  0.66810  0.85506  Biso   1.000  C
  C52      1.0000 0.03110  0.60780  0.82547  Biso   1.000  C
  H49      1.0000 0.96370  0.59320  0.83490  Biso   1.000  H
  H50      1.0000 0.06230  0.69450  0.88430  Biso   1.000  H
  H51      1.0000 0.29290  0.67030  0.78840  Biso   1.000  H
  H52      1.0000 0.19470  0.56340  0.74000  Biso   1.000  H
  C53      1.0000 0.32810  0.70630  0.90416  Biso   1.000  C
  C54      1.0000 0.24510  0.85490  0.87784  Biso   1.000  C
  C55      1.0000 0.30330  0.90880  0.91135  Biso   1.000  C
  H53      1.0000 0.29610  0.98010  0.91230  Biso   1.000  H
  C56      1.0000 0.38190  0.76530  0.93701  Biso   1.000  C
  H54      1.0000 0.43080  0.73390  0.95710  Biso   1.000  H
  H55      1.0000 0.19930  0.88980  0.85730  Biso   1.000  H
  H56      1.0000 0.34070  0.63600  0.90160  Biso   1.000  H
  C57      1.0000 0.77340  0.34670  0.79857  Biso   1.000  C
  C58      1.0000 0.83270  0.40950  0.76908  Biso   1.000  C
  C59      1.0000 0.91030  0.33190  0.85506  Biso   1.000  C
  C60      1.0000 0.96890  0.39220  0.82547  Biso   1.000  C
  H57      1.0000 0.03630  0.40680  0.83490  Biso   1.000  H
  H58      1.0000 0.93770  0.30550  0.88430  Biso   1.000  H
  H59      1.0000 0.70710  0.32970  0.78840  Biso   1.000  H
  H60      1.0000 0.80530  0.43660  0.74000  Biso   1.000  H
  C61      1.0000 0.67190  0.29370  0.90416  Biso   1.000  C
  C62      1.0000 0.75490  0.14510  0.87784  Biso   1.000  C
  C63      1.0000 0.69670  0.09120  0.91135  Biso   1.000  C
  H61      1.0000 0.70390  0.01990  0.91230  Biso   1.000  H
  C64      1.0000 0.61810  0.23470  0.93701  Biso   1.000  C
  H62      1.0000 0.56920  0.26610  0.95710  Biso   1.000  H
  H63      1.0000 0.80070  0.11020  0.85730  Biso   1.000  H
  H64      1.0000 0.65930  0.36400  0.90160  Biso   1.000  H
  C65      1.0000 0.84670  0.27340  0.79857  Biso   1.000  C
  C66      1.0000 0.90950  0.33270  0.76908  Biso   1.000  C
  C67      1.0000 0.83190  0.41030  0.85506  Biso   1.000  C
  C68      1.0000 0.89220  0.46890  0.82547  Biso   1.000  C
  H65      1.0000 0.90680  0.53630  0.83490  Biso   1.000  H
  H66      1.0000 0.80550  0.43770  0.88430  Biso   1.000  H
  H67      1.0000 0.82970  0.20710  0.78840  Biso   1.000  H
  H68      1.0000 0.93660  0.30530  0.74000  Biso   1.000  H
  C69      1.0000 0.79370  0.17190  0.90416  Biso   1.000  C
  C70      1.0000 0.64510  0.25490  0.87784  Biso   1.000  C
  C71      1.0000 0.59120  0.19670  0.91135  Biso   1.000  C
  H69      1.0000 0.51990  0.20390  0.91230  Biso   1.000  H
  C72      1.0000 0.73470  0.11810  0.93701  Biso   1.000  C
  H70      1.0000 0.76610  0.06920  0.95710  Biso   1.000  H
  H71      1.0000 0.61020  0.30070  0.85730  Biso   1.000  H
  H72      1.0000 0.86400  0.15930  0.90160  Biso   1.000  H
  C73      1.0000 0.15330  0.72660  0.79857  Biso   1.000  C
  C74      1.0000 0.09050  0.66730  0.76908  Biso   1.000  C
  C75      1.0000 0.16810  0.58970  0.85506  Biso   1.000  C
  C76      1.0000 0.10780  0.53110  0.82547  Biso   1.000  C
  H73      1.0000 0.09320  0.46370  0.83490  Biso   1.000  H
  H74      1.0000 0.19450  0.56230  0.88430  Biso   1.000  H
  H75      1.0000 0.17030  0.79290  0.78840  Biso   1.000  H
  H76      1.0000 0.06340  0.69470  0.74000  Biso   1.000  H
  C77      1.0000 0.20630  0.82810  0.90416  Biso   1.000  C
  C78      1.0000 0.35490  0.74510  0.87784  Biso   1.000  C
  C79      1.0000 0.40880  0.80330  0.91135  Biso   1.000  C
  H77      1.0000 0.48010  0.79610  0.91230  Biso   1.000  H
  C80      1.0000 0.26530  0.88190  0.93701  Biso   1.000  C
  H78      1.0000 0.23390  0.93080  0.95710  Biso   1.000  H
  H79      1.0000 0.38980  0.69930  0.85730  Biso   1.000  H
  H80      1.0000 0.13600  0.84070  0.90160  Biso   1.000  H
  C81      1.0000 0.22660  0.34670  0.29857  Biso   1.000  C
  C82      1.0000 0.16730  0.40950  0.26908  Biso   1.000  C
  C83      1.0000 0.08970  0.33190  0.35506  Biso   1.000  C
  C84      1.0000 0.03110  0.39220  0.32547  Biso   1.000  C
  H81      1.0000 0.96370  0.40680  0.33490  Biso   1.000  H
  H82      1.0000 0.06230  0.30550  0.38430  Biso   1.000  H
  H83      1.0000 0.29290  0.32970  0.28840  Biso   1.000  H
  H84      1.0000 0.19470  0.43660  0.24000  Biso   1.000  H
  C85      1.0000 0.32810  0.29370  0.40416  Biso   1.000  C
  C86      1.0000 0.24510  0.14510  0.37784  Biso   1.000  C
  C87      1.0000 0.30330  0.09120  0.41135  Biso   1.000  C
  H85      1.0000 0.29610  0.01990  0.41230  Biso   1.000  H
  C88      1.0000 0.38190  0.23470  0.43701  Biso   1.000  C
  H86      1.0000 0.43080  0.26610  0.45710  Biso   1.000  H
  H87      1.0000 0.19930  0.11020  0.35730  Biso   1.000  H
  H88      1.0000 0.34070  0.36400  0.40160  Biso   1.000  H
  C89      1.0000 0.77340  0.65330  0.29857  Biso   1.000  C
  C90      1.0000 0.83270  0.59050  0.26908  Biso   1.000  C
  C91      1.0000 0.91030  0.66810  0.35506  Biso   1.000  C
  C92      1.0000 0.96890  0.60780  0.32547  Biso   1.000  C
  H89      1.0000 0.03630  0.59320  0.33490  Biso   1.000  H
  H90      1.0000 0.93770  0.69450  0.38430  Biso   1.000  H
  H91      1.0000 0.70710  0.67030  0.28840  Biso   1.000  H
  H92      1.0000 0.80530  0.56340  0.24000  Biso   1.000  H
  C93      1.0000 0.67190  0.70630  0.40416  Biso   1.000  C
  C94      1.0000 0.75490  0.85490  0.37784  Biso   1.000  C
  C95      1.0000 0.69670  0.90880  0.41135  Biso   1.000  C
  H93      1.0000 0.70390  0.98010  0.41230  Biso   1.000  H
  C96      1.0000 0.61810  0.76530  0.43701  Biso   1.000  C
  H94      1.0000 0.56920  0.73390  0.45710  Biso   1.000  H
  H95      1.0000 0.80070  0.88980  0.35730  Biso   1.000  H
  H96      1.0000 0.65930  0.63600  0.40160  Biso   1.000  H
  C97      1.0000 0.15330  0.27340  0.70143  Biso   1.000  C
  C98      1.0000 0.09050  0.33270  0.73092  Biso   1.000  C
  C99      1.0000 0.16810  0.41030  0.64494  Biso   1.000  C
  C100     1.0000 0.10780  0.46890  0.67453  Biso   1.000  C
  H97      1.0000 0.09320  0.53630  0.66510  Biso   1.000  H
  H98      1.0000 0.19450  0.43770  0.61570  Biso   1.000  H
  H99      1.0000 0.17030  0.20710  0.71160  Biso   1.000  H
  H100     1.0000 0.06340  0.30530  0.76000  Biso   1.000  H
  C101     1.0000 0.20630  0.17190  0.59584  Biso   1.000  C
  C102     1.0000 0.35490  0.25490  0.62216  Biso   1.000  C
  C103     1.0000 0.40880  0.19670  0.58865  Biso   1.000  C
  H101     1.0000 0.48010  0.20390  0.58770  Biso   1.000  H
  C104     1.0000 0.26530  0.11810  0.56299  Biso   1.000  C
  H102     1.0000 0.23390  0.06920  0.54290  Biso   1.000  H
  H103     1.0000 0.38980  0.30070  0.64270  Biso   1.000  H
  H104     1.0000 0.13600  0.15930  0.59840  Biso   1.000  H
  C105     1.0000 0.84670  0.72660  0.70143  Biso   1.000  C
  C106     1.0000 0.90950  0.66730  0.73092  Biso   1.000  C
  C107     1.0000 0.83190  0.58970  0.64494  Biso   1.000  C
  C108     1.0000 0.89220  0.53110  0.67453  Biso   1.000  C
  H105     1.0000 0.90680  0.46370  0.66510  Biso   1.000  H
  H106     1.0000 0.80550  0.56230  0.61570  Biso   1.000  H
  H107     1.0000 0.82970  0.79290  0.71160  Biso   1.000  H
  H108     1.0000 0.93660  0.69470  0.76000  Biso   1.000  H
  C109     1.0000 0.79370  0.82810  0.59584  Biso   1.000  C
  C110     1.0000 0.64510  0.74510  0.62216  Biso   1.000  C
  C111     1.0000 0.59120  0.80330  0.58865  Biso   1.000  C
  H109     1.0000 0.51990  0.79610  0.58770  Biso   1.000  H
  C112     1.0000 0.73470  0.88190  0.56299  Biso   1.000  C
  H110     1.0000 0.76610  0.93080  0.54290  Biso   1.000  H
  H111     1.0000 0.61020  0.69930  0.64270  Biso   1.000  H
  H112     1.0000 0.86400  0.84070  0.59840  Biso   1.000  H
  C113     1.0000 0.77340  0.34670  0.20143  Biso   1.000  C
  C114     1.0000 0.83270  0.40950  0.23092  Biso   1.000  C
  C115     1.0000 0.91030  0.33190  0.14494  Biso   1.000  C
  C116     1.0000 0.96890  0.39220  0.17453  Biso   1.000  C
  H113     1.0000 0.03630  0.40680  0.16510  Biso   1.000  H
  H114     1.0000 0.93770  0.30550  0.11570  Biso   1.000  H
  H115     1.0000 0.70710  0.32970  0.21160  Biso   1.000  H
  H116     1.0000 0.80530  0.43660  0.26000  Biso   1.000  H
  C117     1.0000 0.67190  0.29370  0.09584  Biso   1.000  C
  C118     1.0000 0.75490  0.14510  0.12216  Biso   1.000  C
  C119     1.0000 0.69670  0.09120  0.08865  Biso   1.000  C
  H117     1.0000 0.70390  0.01990  0.08770  Biso   1.000  H
  C120     1.0000 0.61810  0.23470  0.06299  Biso   1.000  C
  H118     1.0000 0.56920  0.26610  0.04290  Biso   1.000  H
  H119     1.0000 0.80070  0.11020  0.14270  Biso   1.000  H
  H120     1.0000 0.65930  0.36400  0.09840  Biso   1.000  H
  C121     1.0000 0.22660  0.65330  0.20143  Biso   1.000  C
  C122     1.0000 0.16730  0.59050  0.23092  Biso   1.000  C
  C123     1.0000 0.08970  0.66810  0.14494  Biso   1.000  C
  C124     1.0000 0.03110  0.60780  0.17453  Biso   1.000  C
  H121     1.0000 0.96370  0.59320  0.16510  Biso   1.000  H
  H122     1.0000 0.06230  0.69450  0.11570  Biso   1.000  H
  H123     1.0000 0.29290  0.67030  0.21160  Biso   1.000  H
  H124     1.0000 0.19470  0.56340  0.26000  Biso   1.000  H
  C125     1.0000 0.32810  0.70630  0.09584  Biso   1.000  C
  C126     1.0000 0.24510  0.85490  0.12216  Biso   1.000  C
  C127     1.0000 0.30330  0.90880  0.08865  Biso   1.000  C
  H125     1.0000 0.29610  0.98010  0.08770  Biso   1.000  H
  C128     1.0000 0.38190  0.76530  0.06299  Biso   1.000  C
  H126     1.0000 0.43080  0.73390  0.04290  Biso   1.000  H
  H127     1.0000 0.19930  0.88980  0.14270  Biso   1.000  H
  H128     1.0000 0.34070  0.63600  0.09840  Biso   1.000  H
  C129     1.0000 0.00000  0.50000  0.25000  Biso   1.000  C
  C130     1.0000 0.00000  0.50000  0.75000  Biso   1.000  C
  C131     1.0000 0.06778  0.56778  0.21761  Biso   1.000  C
  C132     1.0000 0.25370  0.75370  0.12558  Biso   1.000  C
  C133     1.0000 0.19079  0.69079  0.15814  Biso   1.000  C
  N1       1.0000 0.36674  0.86674  0.05872  Biso   1.000  N
  C134     1.0000 0.93222  0.43222  0.21761  Biso   1.000  C
  C135     1.0000 0.74630  0.24630  0.12558  Biso   1.000  C
  C136     1.0000 0.80921  0.30921  0.15814  Biso   1.000  C
  N2       1.0000 0.63326  0.13326  0.05872  Biso   1.000  N
  C137     1.0000 0.06778  0.43222  0.71761  Biso   1.000  C
  C138     1.0000 0.25370  0.24630  0.62558  Biso   1.000  C
  C139     1.0000 0.19079  0.30921  0.65814  Biso   1.000  C
  N3       1.0000 0.36674  0.13326  0.55872  Biso   1.000  N
  C140     1.0000 0.93222  0.56778  0.28239  Biso   1.000  C
  C141     1.0000 0.74630  0.75370  0.37442  Biso   1.000  C
  C142     1.0000 0.80921  0.69079  0.34186  Biso   1.000  C
  N4       1.0000 0.63326  0.86674  0.44128  Biso   1.000  N
  C143     1.0000 0.06778  0.43222  0.28239  Biso   1.000  C
  C144     1.0000 0.25370  0.24630  0.37442  Biso   1.000  C
  C145     1.0000 0.19079  0.30921  0.34186  Biso   1.000  C
  N5       1.0000 0.36674  0.13326  0.44128  Biso   1.000  N
  C146     1.0000 0.93222  0.43222  0.78239  Biso   1.000  C
  C147     1.0000 0.74630  0.24630  0.87442  Biso   1.000  C
  C148     1.0000 0.80921  0.30921  0.84186  Biso   1.000  C
  N6       1.0000 0.63326  0.13326  0.94128  Biso   1.000  N
  C149     1.0000 0.06778  0.56778  0.78239  Biso   1.000  C
  C150     1.0000 0.25370  0.75370  0.87442  Biso   1.000  C
  C151     1.0000 0.19079  0.69079  0.84186  Biso   1.000  C
  N7       1.0000 0.36674  0.86674  0.94128  Biso   1.000  N
  C152     1.0000 0.93222  0.56778  0.71761  Biso   1.000  C
  C153     1.0000 0.74630  0.75370  0.62558  Biso   1.000  C
  C154     1.0000 0.80921  0.69079  0.65814  Biso   1.000  C
  N8       1.0000 0.63326  0.86674  0.55872  Biso   1.000  N
  Cu1      1.0000 0.43382  0.93382  0.00000  Biso   1.000  Cu
  Cu2      1.0000 0.56618  0.06618  0.00000  Biso   1.000  Cu
  Cu3      1.0000 0.43382  0.06618  0.50000  Biso   1.000  Cu
  Cu4      1.0000 0.56618  0.93382  0.50000  Biso   1.000  Cu
  I1       1.0000 0.37581  0.12419  0.00000  Biso   1.000  I
  I2       1.0000 0.62419  0.87581  0.00000  Biso   1.000  I
  I3       1.0000 0.62419  0.12419  0.50000  Biso   1.000  I
  I4       1.0000 0.37581  0.87581  0.50000  Biso   1.000  I
  C155     1.0000 0.65330  0.22660  0.70143  Biso   1.000  C
  C156     1.0000 0.59050  0.16730  0.73092  Biso   1.000  C
  C157     1.0000 0.66810  0.08970  0.64494  Biso   1.000  C
  C158     1.0000 0.60780  0.03110  0.67453  Biso   1.000  C
  H129     1.0000 0.59320  0.96370  0.66510  Biso   1.000  H
  H130     1.0000 0.69450  0.06230  0.61570  Biso   1.000  H
  H131     1.0000 0.67030  0.29290  0.71160  Biso   1.000  H
  H132     1.0000 0.56340  0.19470  0.76000  Biso   1.000  H
  C159     1.0000 0.70630  0.32810  0.59584  Biso   1.000  C
  C160     1.0000 0.85490  0.24510  0.62216  Biso   1.000  C
  C161     1.0000 0.90880  0.30330  0.58865  Biso   1.000  C
  H133     1.0000 0.98010  0.29610  0.58770  Biso   1.000  H
  C162     1.0000 0.76530  0.38190  0.56299  Biso   1.000  C
  H134     1.0000 0.73390  0.43080  0.54290  Biso   1.000  H
  H135     1.0000 0.88980  0.19930  0.64270  Biso   1.000  H
  H136     1.0000 0.63600  0.34070  0.59840  Biso   1.000  H
  C163     1.0000 0.34670  0.77340  0.70143  Biso   1.000  C
  C164     1.0000 0.40950  0.83270  0.73092  Biso   1.000  C
  C165     1.0000 0.33190  0.91030  0.64494  Biso   1.000  C
  C166     1.0000 0.39220  0.96890  0.67453  Biso   1.000  C
  H137     1.0000 0.40680  0.03630  0.66510  Biso   1.000  H
  H138     1.0000 0.30550  0.93770  0.61570  Biso   1.000  H
  H139     1.0000 0.32970  0.70710  0.71160  Biso   1.000  H
  H140     1.0000 0.43660  0.80530  0.76000  Biso   1.000  H
  C167     1.0000 0.29370  0.67190  0.59584  Biso   1.000  C
  C168     1.0000 0.14510  0.75490  0.62216  Biso   1.000  C
  C169     1.0000 0.09120  0.69670  0.58865  Biso   1.000  C
  H141     1.0000 0.01990  0.70390  0.58770  Biso   1.000  H
  C170     1.0000 0.23470  0.61810  0.56299  Biso   1.000  C
  H142     1.0000 0.26610  0.56920  0.54290  Biso   1.000  H
  H143     1.0000 0.11020  0.80070  0.64270  Biso   1.000  H
  H144     1.0000 0.36400  0.65930  0.59840  Biso   1.000  H
  C171     1.0000 0.27340  0.15330  0.20143  Biso   1.000  C
  C172     1.0000 0.33270  0.09050  0.23092  Biso   1.000  C
  C173     1.0000 0.41030  0.16810  0.14494  Biso   1.000  C
  C174     1.0000 0.46890  0.10780  0.17453  Biso   1.000  C
  H145     1.0000 0.53630  0.09320  0.16510  Biso   1.000  H
  H146     1.0000 0.43770  0.19450  0.11570  Biso   1.000  H
  H147     1.0000 0.20710  0.17030  0.21160  Biso   1.000  H
  H148     1.0000 0.30530  0.06340  0.26000  Biso   1.000  H
  C175     1.0000 0.17190  0.20630  0.09584  Biso   1.000  C
  C176     1.0000 0.25490  0.35490  0.12216  Biso   1.000  C
  C177     1.0000 0.19670  0.40880  0.08865  Biso   1.000  C
  H149     1.0000 0.20390  0.48010  0.08770  Biso   1.000  H
  C178     1.0000 0.11810  0.26530  0.06299  Biso   1.000  C
  H150     1.0000 0.06920  0.23390  0.04290  Biso   1.000  H
  H151     1.0000 0.30070  0.38980  0.14270  Biso   1.000  H
  H152     1.0000 0.15930  0.13600  0.09840  Biso   1.000  H
  C179     1.0000 0.72660  0.84670  0.20143  Biso   1.000  C
  C180     1.0000 0.66730  0.90950  0.23092  Biso   1.000  C
  C181     1.0000 0.58970  0.83190  0.14494  Biso   1.000  C
  C182     1.0000 0.53110  0.89220  0.17453  Biso   1.000  C
  H153     1.0000 0.46370  0.90680  0.16510  Biso   1.000  H
  H154     1.0000 0.56230  0.80550  0.11570  Biso   1.000  H
  H155     1.0000 0.79290  0.82970  0.21160  Biso   1.000  H
  H156     1.0000 0.69470  0.93660  0.26000  Biso   1.000  H
  C183     1.0000 0.82810  0.79370  0.09584  Biso   1.000  C
  C184     1.0000 0.74510  0.64510  0.12216  Biso   1.000  C
  C185     1.0000 0.80330  0.59120  0.08865  Biso   1.000  C
  H157     1.0000 0.79610  0.51990  0.08770  Biso   1.000  H
  C186     1.0000 0.88190  0.73470  0.06299  Biso   1.000  C
  H158     1.0000 0.93080  0.76610  0.04290  Biso   1.000  H
  H159     1.0000 0.69930  0.61020  0.14270  Biso   1.000  H
  H160     1.0000 0.84070  0.86400  0.09840  Biso   1.000  H
  C187     1.0000 0.34670  0.22660  0.79857  Biso   1.000  C
  C188     1.0000 0.40950  0.16730  0.76908  Biso   1.000  C
  C189     1.0000 0.33190  0.08970  0.85506  Biso   1.000  C
  C190     1.0000 0.39220  0.03110  0.82547  Biso   1.000  C
  H161     1.0000 0.40680  0.96370  0.83490  Biso   1.000  H
  H162     1.0000 0.30550  0.06230  0.88430  Biso   1.000  H
  H163     1.0000 0.32970  0.29290  0.78840  Biso   1.000  H
  H164     1.0000 0.43660  0.19470  0.74000  Biso   1.000  H
  C191     1.0000 0.29370  0.32810  0.90416  Biso   1.000  C
  C192     1.0000 0.14510  0.24510  0.87784  Biso   1.000  C
  C193     1.0000 0.09120  0.30330  0.91135  Biso   1.000  C
  H165     1.0000 0.01990  0.29610  0.91230  Biso   1.000  H
  C194     1.0000 0.23470  0.38190  0.93701  Biso   1.000  C
  H166     1.0000 0.26610  0.43080  0.95710  Biso   1.000  H
  H167     1.0000 0.11020  0.19930  0.85730  Biso   1.000  H
  H168     1.0000 0.36400  0.34070  0.90160  Biso   1.000  H
  C195     1.0000 0.65330  0.77340  0.79857  Biso   1.000  C
  C196     1.0000 0.59050  0.83270  0.76908  Biso   1.000  C
  C197     1.0000 0.66810  0.91030  0.85506  Biso   1.000  C
  C198     1.0000 0.60780  0.96890  0.82547  Biso   1.000  C
  H169     1.0000 0.59320  0.03630  0.83490  Biso   1.000  H
  H170     1.0000 0.69450  0.93770  0.88430  Biso   1.000  H
  H171     1.0000 0.67030  0.70710  0.78840  Biso   1.000  H
  H172     1.0000 0.56340  0.80530  0.74000  Biso   1.000  H
  C199     1.0000 0.70630  0.67190  0.90416  Biso   1.000  C
  C200     1.0000 0.85490  0.75490  0.87784  Biso   1.000  C
  C201     1.0000 0.90880  0.69670  0.91135  Biso   1.000  C
  H173     1.0000 0.98010  0.70390  0.91230  Biso   1.000  H
  C202     1.0000 0.76530  0.61810  0.93701  Biso   1.000  C
  H174     1.0000 0.73390  0.56920  0.95710  Biso   1.000  H
  H175     1.0000 0.88980  0.80070  0.85730  Biso   1.000  H
  H176     1.0000 0.63600  0.65930  0.90160  Biso   1.000  H
  C203     1.0000 0.72660  0.15330  0.29857  Biso   1.000  C
  C204     1.0000 0.66730  0.09050  0.26908  Biso   1.000  C
  C205     1.0000 0.58970  0.16810  0.35506  Biso   1.000  C
  C206     1.0000 0.53110  0.10780  0.32547  Biso   1.000  C
  H177     1.0000 0.46370  0.09320  0.33490  Biso   1.000  H
  H178     1.0000 0.56230  0.19450  0.38430  Biso   1.000  H
  H179     1.0000 0.79290  0.17030  0.28840  Biso   1.000  H
  H180     1.0000 0.69470  0.06340  0.24000  Biso   1.000  H
  C207     1.0000 0.82810  0.20630  0.40416  Biso   1.000  C
  C208     1.0000 0.74510  0.35490  0.37784  Biso   1.000  C
  C209     1.0000 0.80330  0.40880  0.41135  Biso   1.000  C
  H181     1.0000 0.79610  0.48010  0.41230  Biso   1.000  H
  C210     1.0000 0.88190  0.26530  0.43701  Biso   1.000  C
  H182     1.0000 0.93080  0.23390  0.45710  Biso   1.000  H
  H183     1.0000 0.69930  0.38980  0.35730  Biso   1.000  H
  H184     1.0000 0.84070  0.13600  0.40160  Biso   1.000  H
  C211     1.0000 0.27340  0.84670  0.29857  Biso   1.000  C
  C212     1.0000 0.33270  0.90950  0.26908  Biso   1.000  C
  C213     1.0000 0.41030  0.83190  0.35506  Biso   1.000  C
  C214     1.0000 0.46890  0.89220  0.32547  Biso   1.000  C
  H185     1.0000 0.53630  0.90680  0.33490  Biso   1.000  H
  H186     1.0000 0.43770  0.80550  0.38430  Biso   1.000  H
  H187     1.0000 0.20710  0.82970  0.28840  Biso   1.000  H
  H188     1.0000 0.30530  0.93660  0.24000  Biso   1.000  H
  C215     1.0000 0.17190  0.79370  0.40416  Biso   1.000  C
  C216     1.0000 0.25490  0.64510  0.37784  Biso   1.000  C
  C217     1.0000 0.19670  0.59120  0.41135  Biso   1.000  C
  H189     1.0000 0.20390  0.51990  0.41230  Biso   1.000  H
  C218     1.0000 0.11810  0.73470  0.43701  Biso   1.000  C
  H190     1.0000 0.06920  0.76610  0.45710  Biso   1.000  H
  H191     1.0000 0.30070  0.61020  0.35730  Biso   1.000  H
  H192     1.0000 0.15930  0.86400  0.40160  Biso   1.000  H
  C219     1.0000 0.34670  0.77340  0.29857  Biso   1.000  C
  C220     1.0000 0.40950  0.83270  0.26908  Biso   1.000  C
  C221     1.0000 0.33190  0.91030  0.35506  Biso   1.000  C
  C222     1.0000 0.39220  0.96890  0.32547  Biso   1.000  C
  H193     1.0000 0.40680  0.03630  0.33490  Biso   1.000  H
  H194     1.0000 0.30550  0.93770  0.38430  Biso   1.000  H
  H195     1.0000 0.32970  0.70710  0.28840  Biso   1.000  H
  H196     1.0000 0.43660  0.80530  0.24000  Biso   1.000  H
  C223     1.0000 0.29370  0.67190  0.40416  Biso   1.000  C
  C224     1.0000 0.14510  0.75490  0.37784  Biso   1.000  C
  C225     1.0000 0.09120  0.69670  0.41135  Biso   1.000  C
  H197     1.0000 0.01990  0.70390  0.41230  Biso   1.000  H
  C226     1.0000 0.23470  0.61810  0.43701  Biso   1.000  C
  H198     1.0000 0.26610  0.56920  0.45710  Biso   1.000  H
  H199     1.0000 0.11020  0.80070  0.35730  Biso   1.000  H
  H200     1.0000 0.36400  0.65930  0.40160  Biso   1.000  H
  C227     1.0000 0.65330  0.22660  0.29857  Biso   1.000  C
  C228     1.0000 0.59050  0.16730  0.26908  Biso   1.000  C
  C229     1.0000 0.66810  0.08970  0.35506  Biso   1.000  C
  C230     1.0000 0.60780  0.03110  0.32547  Biso   1.000  C
  H201     1.0000 0.59320  0.96370  0.33490  Biso   1.000  H
  H202     1.0000 0.69450  0.06230  0.38430  Biso   1.000  H
  H203     1.0000 0.67030  0.29290  0.28840  Biso   1.000  H
  H204     1.0000 0.56340  0.19470  0.24000  Biso   1.000  H
  C231     1.0000 0.70630  0.32810  0.40416  Biso   1.000  C
  C232     1.0000 0.85490  0.24510  0.37784  Biso   1.000  C
  C233     1.0000 0.90880  0.30330  0.41135  Biso   1.000  C
  H205     1.0000 0.98010  0.29610  0.41230  Biso   1.000  H
  C234     1.0000 0.76530  0.38190  0.43701  Biso   1.000  C
  H206     1.0000 0.73390  0.43080  0.45710  Biso   1.000  H
  H207     1.0000 0.88980  0.19930  0.35730  Biso   1.000  H
  H208     1.0000 0.63600  0.34070  0.40160  Biso   1.000  H
  C235     1.0000 0.72660  0.84670  0.79857  Biso   1.000  C
  C236     1.0000 0.66730  0.90950  0.76908  Biso   1.000  C
  C237     1.0000 0.58970  0.83190  0.85506  Biso   1.000  C
  C238     1.0000 0.53110  0.89220  0.82547  Biso   1.000  C
  H209     1.0000 0.46370  0.90680  0.83490  Biso   1.000  H
  H210     1.0000 0.56230  0.80550  0.88430  Biso   1.000  H
  H211     1.0000 0.79290  0.82970  0.78840  Biso   1.000  H
  H212     1.0000 0.69470  0.93660  0.74000  Biso   1.000  H
  C239     1.0000 0.82810  0.79370  0.90416  Biso   1.000  C
  C240     1.0000 0.74510  0.64510  0.87784  Biso   1.000  C
  C241     1.0000 0.80330  0.59120  0.91135  Biso   1.000  C
  H213     1.0000 0.79610  0.51990  0.91230  Biso   1.000  H
  C242     1.0000 0.88190  0.73470  0.93701  Biso   1.000  C
  H214     1.0000 0.93080  0.76610  0.95710  Biso   1.000  H
  H215     1.0000 0.69930  0.61020  0.85730  Biso   1.000  H
  H216     1.0000 0.84070  0.86400  0.90160  Biso   1.000  H
  C243     1.0000 0.27340  0.15330  0.79857  Biso   1.000  C
  C244     1.0000 0.33270  0.09050  0.76908  Biso   1.000  C
  C245     1.0000 0.41030  0.16810  0.85506  Biso   1.000  C
  C246     1.0000 0.46890  0.10780  0.82547  Biso   1.000  C
  H217     1.0000 0.53630  0.09320  0.83490  Biso   1.000  H
  H218     1.0000 0.43770  0.19450  0.88430  Biso   1.000  H
  H219     1.0000 0.20710  0.17030  0.78840  Biso   1.000  H
  H220     1.0000 0.30530  0.06340  0.74000  Biso   1.000  H
  C247     1.0000 0.17190  0.20630  0.90416  Biso   1.000  C
  C248     1.0000 0.25490  0.35490  0.87784  Biso   1.000  C
  C249     1.0000 0.19670  0.40880  0.91135  Biso   1.000  C
  H221     1.0000 0.20390  0.48010  0.91230  Biso   1.000  H
  C250     1.0000 0.11810  0.26530  0.93701  Biso   1.000  C
  H222     1.0000 0.06920  0.23390  0.95710  Biso   1.000  H
  H223     1.0000 0.30070  0.38980  0.85730  Biso   1.000  H
  H224     1.0000 0.15930  0.13600  0.90160  Biso   1.000  H
  C251     1.0000 0.65330  0.77340  0.20143  Biso   1.000  C
  C252     1.0000 0.59050  0.83270  0.23092  Biso   1.000  C
  C253     1.0000 0.66810  0.91030  0.14494  Biso   1.000  C
  C254     1.0000 0.60780  0.96890  0.17453  Biso   1.000  C
  H225     1.0000 0.59320  0.03630  0.16510  Biso   1.000  H
  H226     1.0000 0.69450  0.93770  0.11570  Biso   1.000  H
  H227     1.0000 0.67030  0.70710  0.21160  Biso   1.000  H
  H228     1.0000 0.56340  0.80530  0.26000  Biso   1.000  H
  C255     1.0000 0.70630  0.67190  0.09584  Biso   1.000  C
  C256     1.0000 0.85490  0.75490  0.12216  Biso   1.000  C
  C257     1.0000 0.90880  0.69670  0.08865  Biso   1.000  C
  H229     1.0000 0.98010  0.70390  0.08770  Biso   1.000  H
  C258     1.0000 0.76530  0.61810  0.06299  Biso   1.000  C
  H230     1.0000 0.73390  0.56920  0.04290  Biso   1.000  H
  H231     1.0000 0.88980  0.80070  0.14270  Biso   1.000  H
  H232     1.0000 0.63600  0.65930  0.09840  Biso   1.000  H
  C259     1.0000 0.34670  0.22660  0.20143  Biso   1.000  C
  C260     1.0000 0.40950  0.16730  0.23092  Biso   1.000  C
  C261     1.0000 0.33190  0.08970  0.14494  Biso   1.000  C
  C262     1.0000 0.39220  0.03110  0.17453  Biso   1.000  C
  H233     1.0000 0.40680  0.96370  0.16510  Biso   1.000  H
  H234     1.0000 0.30550  0.06230  0.11570  Biso   1.000  H
  H235     1.0000 0.32970  0.29290  0.21160  Biso   1.000  H
  H236     1.0000 0.43660  0.19470  0.26000  Biso   1.000  H
  C263     1.0000 0.29370  0.32810  0.09584  Biso   1.000  C
  C264     1.0000 0.14510  0.24510  0.12216  Biso   1.000  C
  C265     1.0000 0.09120  0.30330  0.08865  Biso   1.000  C
  H237     1.0000 0.01990  0.29610  0.08770  Biso   1.000  H
  C266     1.0000 0.23470  0.38190  0.06299  Biso   1.000  C
  H238     1.0000 0.26610  0.43080  0.04290  Biso   1.000  H
  H239     1.0000 0.11020  0.19930  0.14270  Biso   1.000  H
  H240     1.0000 0.36400  0.34070  0.09840  Biso   1.000  H
  C267     1.0000 0.27340  0.84670  0.70143  Biso   1.000  C
  C268     1.0000 0.33270  0.90950  0.73092  Biso   1.000  C
  C269     1.0000 0.41030  0.83190  0.64494  Biso   1.000  C
  C270     1.0000 0.46890  0.89220  0.67453  Biso   1.000  C
  H241     1.0000 0.53630  0.90680  0.66510  Biso   1.000  H
  H242     1.0000 0.43770  0.80550  0.61570  Biso   1.000  H
  H243     1.0000 0.20710  0.82970  0.71160  Biso   1.000  H
  H244     1.0000 0.30530  0.93660  0.76000  Biso   1.000  H
  C271     1.0000 0.17190  0.79370  0.59584  Biso   1.000  C
  C272     1.0000 0.25490  0.64510  0.62216  Biso   1.000  C
  C273     1.0000 0.19670  0.59120  0.58865  Biso   1.000  C
  H245     1.0000 0.20390  0.51990  0.58770  Biso   1.000  H
  C274     1.0000 0.11810  0.73470  0.56299  Biso   1.000  C
  H246     1.0000 0.06920  0.76610  0.54290  Biso   1.000  H
  H247     1.0000 0.30070  0.61020  0.64270  Biso   1.000  H
  H248     1.0000 0.15930  0.86400  0.59840  Biso   1.000  H
  C275     1.0000 0.72660  0.15330  0.70143  Biso   1.000  C
  C276     1.0000 0.66730  0.09050  0.73092  Biso   1.000  C
  C277     1.0000 0.58970  0.16810  0.64494  Biso   1.000  C
  C278     1.0000 0.53110  0.10780  0.67453  Biso   1.000  C
  H249     1.0000 0.46370  0.09320  0.66510  Biso   1.000  H
  H250     1.0000 0.56230  0.19450  0.61570  Biso   1.000  H
  H251     1.0000 0.79290  0.17030  0.71160  Biso   1.000  H
  H252     1.0000 0.69470  0.06340  0.76000  Biso   1.000  H
  C279     1.0000 0.82810  0.20630  0.59584  Biso   1.000  C
  C280     1.0000 0.74510  0.35490  0.62216  Biso   1.000  C
  C281     1.0000 0.80330  0.40880  0.58865  Biso   1.000  C
  H253     1.0000 0.79610  0.48010  0.58770  Biso   1.000  H
  C282     1.0000 0.88190  0.26530  0.56299  Biso   1.000  C
  H254     1.0000 0.93080  0.23390  0.54290  Biso   1.000  H
  H255     1.0000 0.69930  0.38980  0.64270  Biso   1.000  H
  H256     1.0000 0.84070  0.13600  0.59840  Biso   1.000  H
  C283     1.0000 0.50000  0.00000  0.25000  Biso   1.000  C
  C284     1.0000 0.50000  0.00000  0.75000  Biso   1.000  C
  C285     1.0000 0.43222  0.06778  0.21761  Biso   1.000  C
  C286     1.0000 0.24630  0.25370  0.12558  Biso   1.000  C
  C287     1.0000 0.30921  0.19079  0.15814  Biso   1.000  C
  N9       1.0000 0.13326  0.36674  0.05872  Biso   1.000  N
  C288     1.0000 0.56778  0.93222  0.21761  Biso   1.000  C
  C289     1.0000 0.75370  0.74630  0.12558  Biso   1.000  C
  C290     1.0000 0.69079  0.80921  0.15814  Biso   1.000  C
  N10      1.0000 0.86674  0.63326  0.05872  Biso   1.000  N
  C291     1.0000 0.56778  0.06778  0.28239  Biso   1.000  C
  C292     1.0000 0.75370  0.25370  0.37442  Biso   1.000  C
  C293     1.0000 0.69079  0.19079  0.34186  Biso   1.000  C
  N11      1.0000 0.86674  0.36674  0.44128  Biso   1.000  N
  C294     1.0000 0.43222  0.93222  0.28239  Biso   1.000  C
  C295     1.0000 0.24630  0.74630  0.37442  Biso   1.000  C
  C296     1.0000 0.30921  0.80921  0.34186  Biso   1.000  C
  N12      1.0000 0.13326  0.63326  0.44128  Biso   1.000  N
  C297     1.0000 0.56778  0.93222  0.78239  Biso   1.000  C
  C298     1.0000 0.75370  0.74630  0.87442  Biso   1.000  C
  C299     1.0000 0.69079  0.80921  0.84186  Biso   1.000  C
  N13      1.0000 0.86674  0.63326  0.94128  Biso   1.000  N
  C300     1.0000 0.43222  0.06778  0.78239  Biso   1.000  C
  C301     1.0000 0.24630  0.25370  0.87442  Biso   1.000  C
  C302     1.0000 0.30921  0.19079  0.84186  Biso   1.000  C
  N14      1.0000 0.13326  0.36674  0.94128  Biso   1.000  N
  C303     1.0000 0.43222  0.93222  0.71761  Biso   1.000  C
  C304     1.0000 0.24630  0.74630  0.62558  Biso   1.000  C
  C305     1.0000 0.30921  0.80921  0.65814  Biso   1.000  C
  N15      1.0000 0.13326  0.63326  0.55872  Biso   1.000  N
  C306     1.0000 0.56778  0.06778  0.71761  Biso   1.000  C
  C307     1.0000 0.75370  0.25370  0.62558  Biso   1.000  C
  C308     1.0000 0.69079  0.19079  0.65814  Biso   1.000  C
  N16      1.0000 0.86674  0.36674  0.55872  Biso   1.000  N
  Cu5      1.0000 0.06618  0.43382  0.00000  Biso   1.000  Cu
  Cu6      1.0000 0.93382  0.56618  0.00000  Biso   1.000  Cu
  Cu7      1.0000 0.93382  0.43382  0.50000  Biso   1.000  Cu
  Cu8      1.0000 0.06618  0.56618  0.50000  Biso   1.000  Cu
  I5       1.0000 0.12419  0.37581  0.50000  Biso   1.000  I
  I6       1.0000 0.87581  0.37581  0.00000  Biso   1.000  I
  I7       1.0000 0.12419  0.62419  0.00000  Biso   1.000  I
  I8       1.0000 0.87581  0.62419  0.50000  Biso   1.000  I
