data_image0
_cell_length_a       18.65
_cell_length_b       18.65
_cell_length_c       6.8329
_cell_angle_alpha    90
_cell_angle_beta     90
_cell_angle_gamma    120

_symmetry_space_group_name_H-M    "P 1"
_symmetry_int_tables_number       1

loop_
  _symmetry_equiv_pos_as_xyz
  'x, y, z'

loop_
  _atom_site_label
  _atom_site_occupancy
  _atom_site_fract_x
  _atom_site_fract_y
  _atom_site_fract_z
  _atom_site_thermal_displace_type
  _atom_site_B_iso_or_equiv
  _atom_site_type_symbol
  O1       1.0000 0.28420  0.08240  0.25330  Biso   1.000  O
  O2       1.0000 0.48060  0.37120  0.48230  Biso   1.000  O
  O3       1.0000 0.44200  0.41100  0.75000  Biso   1.000  O
  C1       1.0000 0.37810  0.25350  0.91480  Biso   1.000  C
  H1       1.0000 0.36400  0.28950  0.97500  Biso   1.000  H
  C2       1.0000 0.42270  0.27620  0.73930  Biso   1.000  C
  C3       1.0000 0.45030  0.35900  0.65070  Biso   1.000  C
  C4       1.0000 0.23710  0.04980  0.42800  Biso   1.000  C
  H2       1.0000 0.99580  0.22940  0.54670  Biso   1.000  H
  H3       1.0000 0.04590  0.18410  0.58700  Biso   1.000  H
  H4       1.0000 0.08580  0.26600  0.46410  Biso   1.000  H
  O4       1.0000 0.91760  0.20180  0.25330  Biso   1.000  O
  O5       1.0000 0.62880  0.10940  0.48230  Biso   1.000  O
  O6       1.0000 0.58900  0.03100  0.75000  Biso   1.000  O
  C5       1.0000 0.74650  0.12460  0.91480  Biso   1.000  C
  H5       1.0000 0.71050  0.07450  0.97500  Biso   1.000  H
  C6       1.0000 0.72380  0.14650  0.73930  Biso   1.000  C
  C7       1.0000 0.64100  0.09130  0.65070  Biso   1.000  C
  C8       1.0000 0.95020  0.18730  0.42800  Biso   1.000  C
  H6       1.0000 0.77060  0.76640  0.54670  Biso   1.000  H
  H7       1.0000 0.81590  0.86180  0.58700  Biso   1.000  H
  H8       1.0000 0.73400  0.81980  0.46410  Biso   1.000  H
  O7       1.0000 0.79820  0.71580  0.25330  Biso   1.000  O
  O8       1.0000 0.89060  0.51940  0.48230  Biso   1.000  O
  O9       1.0000 0.96900  0.55800  0.75000  Biso   1.000  O
  C9       1.0000 0.87540  0.62190  0.91480  Biso   1.000  C
  H9       1.0000 0.92550  0.63600  0.97500  Biso   1.000  H
  C10      1.0000 0.85350  0.57730  0.73930  Biso   1.000  C
  C11      1.0000 0.90870  0.54970  0.65070  Biso   1.000  C
  C12      1.0000 0.81270  0.76290  0.42800  Biso   1.000  C
  H10      1.0000 0.23360  0.00420  0.54670  Biso   1.000  H
  H11      1.0000 0.13820  0.95410  0.58700  Biso   1.000  H
  H12      1.0000 0.18020  0.91420  0.46410  Biso   1.000  H
  O10      1.0000 0.08240  0.28420  0.74670  Biso   1.000  O
  O11      1.0000 0.37120  0.48060  0.51770  Biso   1.000  O
  O12      1.0000 0.41100  0.44200  0.25000  Biso   1.000  O
  C13      1.0000 0.25350  0.37810  0.08520  Biso   1.000  C
  H13      1.0000 0.28950  0.36400  0.02500  Biso   1.000  H
  C14      1.0000 0.27620  0.42270  0.26070  Biso   1.000  C
  C15      1.0000 0.35900  0.45030  0.34930  Biso   1.000  C
  C16      1.0000 0.04980  0.23710  0.57200  Biso   1.000  C
  H14      1.0000 0.22940  0.99580  0.45330  Biso   1.000  H
  H15      1.0000 0.18410  0.04590  0.41300  Biso   1.000  H
  H16      1.0000 0.26600  0.08580  0.53590  Biso   1.000  H
  O13      1.0000 0.20180  0.91760  0.74670  Biso   1.000  O
  O14      1.0000 0.10940  0.62880  0.51770  Biso   1.000  O
  O15      1.0000 0.03100  0.58900  0.25000  Biso   1.000  O
  C17      1.0000 0.12460  0.74650  0.08520  Biso   1.000  C
  H17      1.0000 0.07450  0.71050  0.02500  Biso   1.000  H
  C18      1.0000 0.14650  0.72380  0.26070  Biso   1.000  C
  C19      1.0000 0.09130  0.64100  0.34930  Biso   1.000  C
  C20      1.0000 0.18730  0.95020  0.57200  Biso   1.000  C
  H18      1.0000 0.76640  0.77060  0.45330  Biso   1.000  H
  H19      1.0000 0.86180  0.81590  0.41300  Biso   1.000  H
  H20      1.0000 0.81980  0.73400  0.53590  Biso   1.000  H
  O16      1.0000 0.71580  0.79820  0.74670  Biso   1.000  O
  O17      1.0000 0.51940  0.89060  0.51770  Biso   1.000  O
  O18      1.0000 0.55800  0.96900  0.25000  Biso   1.000  O
  C21      1.0000 0.62190  0.87540  0.08520  Biso   1.000  C
  H21      1.0000 0.63600  0.92550  0.02500  Biso   1.000  H
  C22      1.0000 0.57730  0.85350  0.26070  Biso   1.000  C
  C23      1.0000 0.54970  0.90870  0.34930  Biso   1.000  C
  C24      1.0000 0.76290  0.81270  0.57200  Biso   1.000  C
  H22      1.0000 0.00420  0.23360  0.45330  Biso   1.000  H
  H23      1.0000 0.95410  0.13820  0.41300  Biso   1.000  H
  H24      1.0000 0.91420  0.18020  0.53590  Biso   1.000  H
  O19      1.0000 0.71580  0.91760  0.74670  Biso   1.000  O
  O20      1.0000 0.51940  0.62880  0.51770  Biso   1.000  O
  O21      1.0000 0.55800  0.58900  0.25000  Biso   1.000  O
  C25      1.0000 0.62190  0.74650  0.08520  Biso   1.000  C
  H25      1.0000 0.63600  0.71050  0.02500  Biso   1.000  H
  C26      1.0000 0.57730  0.72380  0.26070  Biso   1.000  C
  C27      1.0000 0.54970  0.64100  0.34930  Biso   1.000  C
  C28      1.0000 0.76290  0.95020  0.57200  Biso   1.000  C
  H26      1.0000 0.00420  0.77060  0.45330  Biso   1.000  H
  H27      1.0000 0.95410  0.81590  0.41300  Biso   1.000  H
  H28      1.0000 0.91420  0.73400  0.53590  Biso   1.000  H
  O22      1.0000 0.08240  0.79820  0.74670  Biso   1.000  O
  O23      1.0000 0.37120  0.89060  0.51770  Biso   1.000  O
  O24      1.0000 0.41100  0.96900  0.25000  Biso   1.000  O
  C29      1.0000 0.25350  0.87540  0.08520  Biso   1.000  C
  H29      1.0000 0.28950  0.92550  0.02500  Biso   1.000  H
  C30      1.0000 0.27620  0.85350  0.26070  Biso   1.000  C
  C31      1.0000 0.35900  0.90870  0.34930  Biso   1.000  C
  C32      1.0000 0.04980  0.81270  0.57200  Biso   1.000  C
  H30      1.0000 0.22940  0.23360  0.45330  Biso   1.000  H
  H31      1.0000 0.18410  0.13820  0.41300  Biso   1.000  H
  H32      1.0000 0.26600  0.18020  0.53590  Biso   1.000  H
  O25      1.0000 0.20180  0.28420  0.74670  Biso   1.000  O
  O26      1.0000 0.10940  0.48060  0.51770  Biso   1.000  O
  O27      1.0000 0.03100  0.44200  0.25000  Biso   1.000  O
  C33      1.0000 0.12460  0.37810  0.08520  Biso   1.000  C
  H33      1.0000 0.07450  0.36400  0.02500  Biso   1.000  H
  C34      1.0000 0.14650  0.42270  0.26070  Biso   1.000  C
  C35      1.0000 0.09130  0.45030  0.34930  Biso   1.000  C
  C36      1.0000 0.18730  0.23710  0.57200  Biso   1.000  C
  H34      1.0000 0.76640  0.99580  0.45330  Biso   1.000  H
  H35      1.0000 0.86180  0.04590  0.41300  Biso   1.000  H
  H36      1.0000 0.81980  0.08580  0.53590  Biso   1.000  H
  O28      1.0000 0.91760  0.71580  0.25330  Biso   1.000  O
  O29      1.0000 0.62880  0.51940  0.48230  Biso   1.000  O
  O30      1.0000 0.58900  0.55800  0.75000  Biso   1.000  O
  C37      1.0000 0.74650  0.62190  0.91480  Biso   1.000  C
  H37      1.0000 0.71050  0.63600  0.97500  Biso   1.000  H
  C38      1.0000 0.72380  0.57730  0.73930  Biso   1.000  C
  C39      1.0000 0.64100  0.54970  0.65070  Biso   1.000  C
  C40      1.0000 0.95020  0.76290  0.42800  Biso   1.000  C
  H38      1.0000 0.77060  0.00420  0.54670  Biso   1.000  H
  H39      1.0000 0.81590  0.95410  0.58700  Biso   1.000  H
  H40      1.0000 0.73400  0.91420  0.46410  Biso   1.000  H
  O31      1.0000 0.79820  0.08240  0.25330  Biso   1.000  O
  O32      1.0000 0.89060  0.37120  0.48230  Biso   1.000  O
  O33      1.0000 0.96900  0.41100  0.75000  Biso   1.000  O
  C41      1.0000 0.87540  0.25350  0.91480  Biso   1.000  C
  H41      1.0000 0.92550  0.28950  0.97500  Biso   1.000  H
  C42      1.0000 0.85350  0.27620  0.73930  Biso   1.000  C
  C43      1.0000 0.90870  0.35900  0.65070  Biso   1.000  C
  C44      1.0000 0.81270  0.04980  0.42800  Biso   1.000  C
  H42      1.0000 0.23360  0.22940  0.54670  Biso   1.000  H
  H43      1.0000 0.13820  0.18410  0.58700  Biso   1.000  H
  H44      1.0000 0.18020  0.26600  0.46410  Biso   1.000  H
  O34      1.0000 0.28420  0.20180  0.25330  Biso   1.000  O
  O35      1.0000 0.48060  0.10940  0.48230  Biso   1.000  O
  O36      1.0000 0.44200  0.03100  0.75000  Biso   1.000  O
  C45      1.0000 0.37810  0.12460  0.91480  Biso   1.000  C
  H45      1.0000 0.36400  0.07450  0.97500  Biso   1.000  H
  C46      1.0000 0.42270  0.14650  0.73930  Biso   1.000  C
  C47      1.0000 0.45030  0.09130  0.65070  Biso   1.000  C
  C48      1.0000 0.23710  0.18730  0.42800  Biso   1.000  C
  H46      1.0000 0.99580  0.76640  0.54670  Biso   1.000  H
  H47      1.0000 0.04590  0.86180  0.58700  Biso   1.000  H
  H48      1.0000 0.08580  0.81980  0.46410  Biso   1.000  H
  C49      1.0000 0.30380  0.15190  0.18390  Biso   1.000  C
  C50      1.0000 0.35500  0.17750  0.99890  Biso   1.000  C
  C51      1.0000 0.44390  0.22195  0.65170  Biso   1.000  C
  H49      1.0000 0.47250  0.23625  0.53360  Biso   1.000  H
  C52      1.0000 0.84810  0.15190  0.18390  Biso   1.000  C
  C53      1.0000 0.82250  0.17750  0.99890  Biso   1.000  C
  C54      1.0000 0.77805  0.22195  0.65170  Biso   1.000  C
  H50      1.0000 0.76375  0.23625  0.53360  Biso   1.000  H
  C55      1.0000 0.84810  0.69620  0.18390  Biso   1.000  C
  C56      1.0000 0.82250  0.64500  0.99890  Biso   1.000  C
  C57      1.0000 0.77805  0.55610  0.65170  Biso   1.000  C
  H51      1.0000 0.76375  0.52750  0.53360  Biso   1.000  H
  C58      1.0000 0.15190  0.30380  0.81610  Biso   1.000  C
  C59      1.0000 0.17750  0.35500  0.00110  Biso   1.000  C
  C60      1.0000 0.22195  0.44390  0.34830  Biso   1.000  C
  H52      1.0000 0.23625  0.47250  0.46640  Biso   1.000  H
  C61      1.0000 0.15190  0.84810  0.81610  Biso   1.000  C
  C62      1.0000 0.17750  0.82250  0.00110  Biso   1.000  C
  C63      1.0000 0.22195  0.77805  0.34830  Biso   1.000  C
  H53      1.0000 0.23625  0.76375  0.46640  Biso   1.000  H
  C64      1.0000 0.69620  0.84810  0.81610  Biso   1.000  C
  C65      1.0000 0.64500  0.82250  0.00110  Biso   1.000  C
  C66      1.0000 0.55610  0.77805  0.34830  Biso   1.000  C
  H54      1.0000 0.52750  0.76375  0.46640  Biso   1.000  H
  Cu1      1.0000 0.52330  0.47670  0.34331  Biso   1.000  Cu
  Cu2      1.0000 0.52330  0.04660  0.34331  Biso   1.000  Cu
  Cu3      1.0000 0.95340  0.47670  0.34331  Biso   1.000  Cu
  Cu4      1.0000 0.47670  0.52330  0.65669  Biso   1.000  Cu
  Cu5      1.0000 0.04660  0.52330  0.65669  Biso   1.000  Cu
  Cu6      1.0000 0.47670  0.95340  0.65669  Biso   1.000  Cu
