data_image0
_cell_length_a       24.544
_cell_length_b       15.455
_cell_length_c       19.431
_cell_angle_alpha    90
_cell_angle_beta     117.551
_cell_angle_gamma    90

_symmetry_space_group_name_H-M    "P 1"
_symmetry_int_tables_number       1

loop_
  _symmetry_equiv_pos_as_xyz
  'x, y, z'

loop_
  _atom_site_label
  _atom_site_occupancy
  _atom_site_fract_x
  _atom_site_fract_y
  _atom_site_fract_z
  _atom_site_thermal_displace_type
  _atom_site_B_iso_or_equiv
  _atom_site_type_symbol
  Mn1      1.0000 0.86132  0.83864  0.92139  Biso   1.000  Mn
  O1       1.0000 0.81770  0.90320  0.81520  Biso   1.000  O
  O2       1.0000 0.70700  0.23940  0.60750  Biso   1.000  O
  O3       1.0000 0.82420  0.10580  0.48960  Biso   1.000  O
  O4       1.0000 0.07120  0.24590  0.09670  Biso   1.000  O
  O5       1.0000 0.06960  0.24730  0.98240  Biso   1.000  O
  C1       1.0000 0.83090  0.89880  0.75980  Biso   1.000  C
  Mn2      1.0000 0.88032  0.70501  0.78541  Biso   1.000  Mn
  O6       1.0000 0.85730  0.83750  0.74770  Biso   1.000  O
  C2       1.0000 0.81210  0.97310  0.70430  Biso   1.000  C
  O7       1.0000 0.70380  0.18050  0.70960  Biso   1.000  O
  O8       1.0000 0.90040  0.57380  0.82680  Biso   1.000  O
  O9       1.0000 0.96510  0.69970  0.77020  Biso   1.000  O
  C3       1.0000 0.83710  0.97700  0.65240  Biso   1.000  C
  C4       1.0000 0.77540  0.04030  0.70690  Biso   1.000  C
  C5       1.0000 0.93420  0.50870  0.83980  Biso   1.000  C
  H1       1.0000 0.86320  0.93360  0.65200  Biso   1.000  H
  C6       1.0000 0.82210  0.04780  0.60100  Biso   1.000  C
  C7       1.0000 0.76060  0.11010  0.65440  Biso   1.000  C
  H2       1.0000 0.76070  0.03930  0.74320  Biso   1.000  H
  O10      1.0000 0.96110  0.48660  0.80200  Biso   1.000  O
  C8       1.0000 0.94330  0.45220  0.90730  Biso   1.000  C
  O11      1.0000 0.91640  0.42380  0.13490  Biso   1.000  O
  C9       1.0000 0.84870  0.05030  0.54470  Biso   1.000  C
  C10      1.0000 0.78270  0.11050  0.60250  Biso   1.000  C
  C11      1.0000 0.72100  0.18270  0.65740  Biso   1.000  C
  C12      1.0000 0.91040  0.47030  0.95030  Biso   1.000  C
  C13      1.0000 0.98530  0.38840  0.93190  Biso   1.000  C
  O12      1.0000 0.89440  0.00610  0.55820  Biso   1.000  O
  H3       1.0000 0.77080  0.15490  0.56620  Biso   1.000  H
  H4       1.0000 0.88020  0.51290  0.93310  Biso   1.000  H
  C14      1.0000 0.92320  0.42480  0.01660  Biso   1.000  C
  H5       1.0000 0.00570  0.37540  0.90300  Biso   1.000  H
  C15      1.0000 0.99940  0.34060  0.99930  Biso   1.000  C
  C16      1.0000 0.96930  0.36030  0.04160  Biso   1.000  C
  C17      1.0000 0.89280  0.44630  0.06400  Biso   1.000  C
  C18      1.0000 0.04920  0.27510  0.02680  Biso   1.000  C
  H6       1.0000 0.97940  0.33080  0.08770  Biso   1.000  H
  O13      1.0000 0.84100  0.48340  0.02940  Biso   1.000  O
  H7       1.0000 0.02900  0.85710  0.73360  Biso   1.000  H
  H8       1.0000 0.01130  0.85710  0.80140  Biso   1.000  H
  H9       1.0000 0.95970  0.85710  0.71500  Biso   1.000  H
  Mn3      1.0000 0.36132  0.33864  0.92139  Biso   1.000  Mn
  O14      1.0000 0.31770  0.40320  0.81520  Biso   1.000  O
  O15      1.0000 0.20700  0.73940  0.60750  Biso   1.000  O
  O16      1.0000 0.32420  0.60580  0.48960  Biso   1.000  O
  O17      1.0000 0.57120  0.74590  0.09670  Biso   1.000  O
  O18      1.0000 0.56960  0.74730  0.98240  Biso   1.000  O
  C19      1.0000 0.33090  0.39880  0.75980  Biso   1.000  C
  Mn4      1.0000 0.38032  0.20501  0.78541  Biso   1.000  Mn
  O19      1.0000 0.35730  0.33750  0.74770  Biso   1.000  O
  C20      1.0000 0.31210  0.47310  0.70430  Biso   1.000  C
  O20      1.0000 0.20380  0.68050  0.70960  Biso   1.000  O
  O21      1.0000 0.40040  0.07380  0.82680  Biso   1.000  O
  O22      1.0000 0.46510  0.19970  0.77020  Biso   1.000  O
  C21      1.0000 0.33710  0.47700  0.65240  Biso   1.000  C
  C22      1.0000 0.27540  0.54030  0.70690  Biso   1.000  C
  C23      1.0000 0.43420  0.00870  0.83980  Biso   1.000  C
  H10      1.0000 0.36320  0.43360  0.65200  Biso   1.000  H
  C24      1.0000 0.32210  0.54780  0.60100  Biso   1.000  C
  C25      1.0000 0.26060  0.61010  0.65440  Biso   1.000  C
  H11      1.0000 0.26070  0.53930  0.74320  Biso   1.000  H
  O23      1.0000 0.46110  0.98660  0.80200  Biso   1.000  O
  C26      1.0000 0.44330  0.95220  0.90730  Biso   1.000  C
  O24      1.0000 0.41640  0.92380  0.13490  Biso   1.000  O
  C27      1.0000 0.34870  0.55030  0.54470  Biso   1.000  C
  C28      1.0000 0.28270  0.61050  0.60250  Biso   1.000  C
  C29      1.0000 0.22100  0.68270  0.65740  Biso   1.000  C
  C30      1.0000 0.41040  0.97030  0.95030  Biso   1.000  C
  C31      1.0000 0.48530  0.88840  0.93190  Biso   1.000  C
  O25      1.0000 0.39440  0.50610  0.55820  Biso   1.000  O
  H12      1.0000 0.27080  0.65490  0.56620  Biso   1.000  H
  H13      1.0000 0.38020  0.01290  0.93310  Biso   1.000  H
  C32      1.0000 0.42320  0.92480  0.01660  Biso   1.000  C
  H14      1.0000 0.50570  0.87540  0.90300  Biso   1.000  H
  C33      1.0000 0.49940  0.84060  0.99930  Biso   1.000  C
  C34      1.0000 0.46930  0.86030  0.04160  Biso   1.000  C
  C35      1.0000 0.39280  0.94630  0.06400  Biso   1.000  C
  C36      1.0000 0.54920  0.77510  0.02680  Biso   1.000  C
  H15      1.0000 0.47940  0.83080  0.08770  Biso   1.000  H
  O26      1.0000 0.34100  0.98340  0.02940  Biso   1.000  O
  H16      1.0000 0.52900  0.35710  0.73360  Biso   1.000  H
  H17      1.0000 0.51130  0.35710  0.80140  Biso   1.000  H
  H18      1.0000 0.45970  0.35710  0.71500  Biso   1.000  H
  Mn5      1.0000 0.13868  0.83864  0.57861  Biso   1.000  Mn
  O27      1.0000 0.18230  0.90320  0.68480  Biso   1.000  O
  O28      1.0000 0.29300  0.23940  0.89250  Biso   1.000  O
  O29      1.0000 0.17580  0.10580  0.01040  Biso   1.000  O
  O30      1.0000 0.92880  0.24590  0.40330  Biso   1.000  O
  O31      1.0000 0.93040  0.24730  0.51760  Biso   1.000  O
  C37      1.0000 0.16910  0.89880  0.74020  Biso   1.000  C
  Mn6      1.0000 0.11968  0.70501  0.71459  Biso   1.000  Mn
  O32      1.0000 0.14270  0.83750  0.75230  Biso   1.000  O
  C38      1.0000 0.18790  0.97310  0.79570  Biso   1.000  C
  O33      1.0000 0.29620  0.18050  0.79040  Biso   1.000  O
  O34      1.0000 0.09960  0.57380  0.67320  Biso   1.000  O
  O35      1.0000 0.03490  0.69970  0.72980  Biso   1.000  O
  C39      1.0000 0.16290  0.97700  0.84760  Biso   1.000  C
  C40      1.0000 0.22460  0.04030  0.79310  Biso   1.000  C
  C41      1.0000 0.06580  0.50870  0.66020  Biso   1.000  C
  H19      1.0000 0.13680  0.93360  0.84800  Biso   1.000  H
  C42      1.0000 0.17790  0.04780  0.89900  Biso   1.000  C
  C43      1.0000 0.23940  0.11010  0.84560  Biso   1.000  C
  H20      1.0000 0.23930  0.03930  0.75680  Biso   1.000  H
  O36      1.0000 0.03890  0.48660  0.69800  Biso   1.000  O
  C44      1.0000 0.05670  0.45220  0.59270  Biso   1.000  C
  O37      1.0000 0.08360  0.42380  0.36510  Biso   1.000  O
  C45      1.0000 0.15130  0.05030  0.95530  Biso   1.000  C
  C46      1.0000 0.21730  0.11050  0.89750  Biso   1.000  C
  C47      1.0000 0.27900  0.18270  0.84260  Biso   1.000  C
  C48      1.0000 0.08960  0.47030  0.54970  Biso   1.000  C
  C49      1.0000 0.01470  0.38840  0.56810  Biso   1.000  C
  O38      1.0000 0.10560  0.00610  0.94180  Biso   1.000  O
  H21      1.0000 0.22920  0.15490  0.93380  Biso   1.000  H
  H22      1.0000 0.11980  0.51290  0.56690  Biso   1.000  H
  C50      1.0000 0.07680  0.42480  0.48340  Biso   1.000  C
  H23      1.0000 0.99430  0.37540  0.59700  Biso   1.000  H
  C51      1.0000 0.00060  0.34060  0.50070  Biso   1.000  C
  C52      1.0000 0.03070  0.36030  0.45840  Biso   1.000  C
  C53      1.0000 0.10720  0.44630  0.43600  Biso   1.000  C
  C54      1.0000 0.95080  0.27510  0.47320  Biso   1.000  C
  H24      1.0000 0.02060  0.33080  0.41230  Biso   1.000  H
  O39      1.0000 0.15900  0.48340  0.47060  Biso   1.000  O
  H25      1.0000 0.97100  0.85710  0.76640  Biso   1.000  H
  H26      1.0000 0.98870  0.85710  0.69860  Biso   1.000  H
  H27      1.0000 0.04030  0.85710  0.78500  Biso   1.000  H
  Mn7      1.0000 0.63868  0.33864  0.57861  Biso   1.000  Mn
  O40      1.0000 0.68230  0.40320  0.68480  Biso   1.000  O
  O41      1.0000 0.79300  0.73940  0.89250  Biso   1.000  O
  O42      1.0000 0.67580  0.60580  0.01040  Biso   1.000  O
  O43      1.0000 0.42880  0.74590  0.40330  Biso   1.000  O
  O44      1.0000 0.43040  0.74730  0.51760  Biso   1.000  O
  C55      1.0000 0.66910  0.39880  0.74020  Biso   1.000  C
  Mn8      1.0000 0.61968  0.20501  0.71459  Biso   1.000  Mn
  O45      1.0000 0.64270  0.33750  0.75230  Biso   1.000  O
  C56      1.0000 0.68790  0.47310  0.79570  Biso   1.000  C
  O46      1.0000 0.79620  0.68050  0.79040  Biso   1.000  O
  O47      1.0000 0.59960  0.07380  0.67320  Biso   1.000  O
  O48      1.0000 0.53490  0.19970  0.72980  Biso   1.000  O
  C57      1.0000 0.66290  0.47700  0.84760  Biso   1.000  C
  C58      1.0000 0.72460  0.54030  0.79310  Biso   1.000  C
  C59      1.0000 0.56580  0.00870  0.66020  Biso   1.000  C
  H28      1.0000 0.63680  0.43360  0.84800  Biso   1.000  H
  C60      1.0000 0.67790  0.54780  0.89900  Biso   1.000  C
  C61      1.0000 0.73940  0.61010  0.84560  Biso   1.000  C
  H29      1.0000 0.73930  0.53930  0.75680  Biso   1.000  H
  O49      1.0000 0.53890  0.98660  0.69800  Biso   1.000  O
  C62      1.0000 0.55670  0.95220  0.59270  Biso   1.000  C
  O50      1.0000 0.58360  0.92380  0.36510  Biso   1.000  O
  C63      1.0000 0.65130  0.55030  0.95530  Biso   1.000  C
  C64      1.0000 0.71730  0.61050  0.89750  Biso   1.000  C
  C65      1.0000 0.77900  0.68270  0.84260  Biso   1.000  C
  C66      1.0000 0.58960  0.97030  0.54970  Biso   1.000  C
  C67      1.0000 0.51470  0.88840  0.56810  Biso   1.000  C
  O51      1.0000 0.60560  0.50610  0.94180  Biso   1.000  O
  H30      1.0000 0.72920  0.65490  0.93380  Biso   1.000  H
  H31      1.0000 0.61980  0.01290  0.56690  Biso   1.000  H
  C68      1.0000 0.57680  0.92480  0.48340  Biso   1.000  C
  H32      1.0000 0.49430  0.87540  0.59700  Biso   1.000  H
  C69      1.0000 0.50060  0.84060  0.50070  Biso   1.000  C
  C70      1.0000 0.53070  0.86030  0.45840  Biso   1.000  C
  C71      1.0000 0.60720  0.94630  0.43600  Biso   1.000  C
  C72      1.0000 0.45080  0.77510  0.47320  Biso   1.000  C
  H33      1.0000 0.52060  0.83080  0.41230  Biso   1.000  H
  O52      1.0000 0.65900  0.98340  0.47060  Biso   1.000  O
  H34      1.0000 0.47100  0.35710  0.76640  Biso   1.000  H
  H35      1.0000 0.48870  0.35710  0.69860  Biso   1.000  H
  H36      1.0000 0.54030  0.35710  0.78500  Biso   1.000  H
  Mn9      1.0000 0.13868  0.16136  0.07861  Biso   1.000  Mn
  O53      1.0000 0.18230  0.09680  0.18480  Biso   1.000  O
  O54      1.0000 0.29300  0.76060  0.39250  Biso   1.000  O
  O55      1.0000 0.17580  0.89420  0.51040  Biso   1.000  O
  O56      1.0000 0.92880  0.75410  0.90330  Biso   1.000  O
  O57      1.0000 0.93040  0.75270  0.01760  Biso   1.000  O
  C73      1.0000 0.16910  0.10120  0.24020  Biso   1.000  C
  Mn10     1.0000 0.11968  0.29499  0.21459  Biso   1.000  Mn
  O58      1.0000 0.14270  0.16250  0.25230  Biso   1.000  O
  C74      1.0000 0.18790  0.02690  0.29570  Biso   1.000  C
  O59      1.0000 0.29620  0.81950  0.29040  Biso   1.000  O
  O60      1.0000 0.09960  0.42620  0.17320  Biso   1.000  O
  O61      1.0000 0.03490  0.30030  0.22980  Biso   1.000  O
  C75      1.0000 0.16290  0.02300  0.34760  Biso   1.000  C
  C76      1.0000 0.22460  0.95970  0.29310  Biso   1.000  C
  C77      1.0000 0.06580  0.49130  0.16020  Biso   1.000  C
  H37      1.0000 0.13680  0.06640  0.34800  Biso   1.000  H
  C78      1.0000 0.17790  0.95220  0.39900  Biso   1.000  C
  C79      1.0000 0.23940  0.88990  0.34560  Biso   1.000  C
  H38      1.0000 0.23930  0.96070  0.25680  Biso   1.000  H
  O62      1.0000 0.03890  0.51340  0.19800  Biso   1.000  O
  C80      1.0000 0.05670  0.54780  0.09270  Biso   1.000  C
  O63      1.0000 0.08360  0.57620  0.86510  Biso   1.000  O
  C81      1.0000 0.15130  0.94970  0.45530  Biso   1.000  C
  C82      1.0000 0.21730  0.88950  0.39750  Biso   1.000  C
  C83      1.0000 0.27900  0.81730  0.34260  Biso   1.000  C
  C84      1.0000 0.08960  0.52970  0.04970  Biso   1.000  C
  C85      1.0000 0.01470  0.61160  0.06810  Biso   1.000  C
  O64      1.0000 0.10560  0.99390  0.44180  Biso   1.000  O
  H39      1.0000 0.22920  0.84510  0.43380  Biso   1.000  H
  H40      1.0000 0.11980  0.48710  0.06690  Biso   1.000  H
  C86      1.0000 0.07680  0.57520  0.98340  Biso   1.000  C
  H41      1.0000 0.99430  0.62460  0.09700  Biso   1.000  H
  C87      1.0000 0.00060  0.65940  0.00070  Biso   1.000  C
  C88      1.0000 0.03070  0.63970  0.95840  Biso   1.000  C
  C89      1.0000 0.10720  0.55370  0.93600  Biso   1.000  C
  C90      1.0000 0.95080  0.72490  0.97320  Biso   1.000  C
  H42      1.0000 0.02060  0.66920  0.91230  Biso   1.000  H
  O65      1.0000 0.15900  0.51660  0.97060  Biso   1.000  O
  H43      1.0000 0.97100  0.14290  0.26640  Biso   1.000  H
  H44      1.0000 0.98870  0.14290  0.19860  Biso   1.000  H
  H45      1.0000 0.04030  0.14290  0.28500  Biso   1.000  H
  Mn11     1.0000 0.63868  0.66136  0.07861  Biso   1.000  Mn
  O66      1.0000 0.68230  0.59680  0.18480  Biso   1.000  O
  O67      1.0000 0.79300  0.26060  0.39250  Biso   1.000  O
  O68      1.0000 0.67580  0.39420  0.51040  Biso   1.000  O
  O69      1.0000 0.42880  0.25410  0.90330  Biso   1.000  O
  O70      1.0000 0.43040  0.25270  0.01760  Biso   1.000  O
  C91      1.0000 0.66910  0.60120  0.24020  Biso   1.000  C
  Mn12     1.0000 0.61968  0.79499  0.21459  Biso   1.000  Mn
  O71      1.0000 0.64270  0.66250  0.25230  Biso   1.000  O
  C92      1.0000 0.68790  0.52690  0.29570  Biso   1.000  C
  O72      1.0000 0.79620  0.31950  0.29040  Biso   1.000  O
  O73      1.0000 0.59960  0.92620  0.17320  Biso   1.000  O
  O74      1.0000 0.53490  0.80030  0.22980  Biso   1.000  O
  C93      1.0000 0.66290  0.52300  0.34760  Biso   1.000  C
  C94      1.0000 0.72460  0.45970  0.29310  Biso   1.000  C
  C95      1.0000 0.56580  0.99130  0.16020  Biso   1.000  C
  H46      1.0000 0.63680  0.56640  0.34800  Biso   1.000  H
  C96      1.0000 0.67790  0.45220  0.39900  Biso   1.000  C
  C97      1.0000 0.73940  0.38990  0.34560  Biso   1.000  C
  H47      1.0000 0.73930  0.46070  0.25680  Biso   1.000  H
  O75      1.0000 0.53890  0.01340  0.19800  Biso   1.000  O
  C98      1.0000 0.55670  0.04780  0.09270  Biso   1.000  C
  O76      1.0000 0.58360  0.07620  0.86510  Biso   1.000  O
  C99      1.0000 0.65130  0.44970  0.45530  Biso   1.000  C
  C100     1.0000 0.71730  0.38950  0.39750  Biso   1.000  C
  C101     1.0000 0.77900  0.31730  0.34260  Biso   1.000  C
  C102     1.0000 0.58960  0.02970  0.04970  Biso   1.000  C
  C103     1.0000 0.51470  0.11160  0.06810  Biso   1.000  C
  O77      1.0000 0.60560  0.49390  0.44180  Biso   1.000  O
  H48      1.0000 0.72920  0.34510  0.43380  Biso   1.000  H
  H49      1.0000 0.61980  0.98710  0.06690  Biso   1.000  H
  C104     1.0000 0.57680  0.07520  0.98340  Biso   1.000  C
  H50      1.0000 0.49430  0.12460  0.09700  Biso   1.000  H
  C105     1.0000 0.50060  0.15940  0.00070  Biso   1.000  C
  C106     1.0000 0.53070  0.13970  0.95840  Biso   1.000  C
  C107     1.0000 0.60720  0.05370  0.93600  Biso   1.000  C
  C108     1.0000 0.45080  0.22490  0.97320  Biso   1.000  C
  H51      1.0000 0.52060  0.16920  0.91230  Biso   1.000  H
  O78      1.0000 0.65900  0.01660  0.97060  Biso   1.000  O
  H52      1.0000 0.47100  0.64290  0.26640  Biso   1.000  H
  H53      1.0000 0.48870  0.64290  0.19860  Biso   1.000  H
  H54      1.0000 0.54030  0.64290  0.28500  Biso   1.000  H
  Mn13     1.0000 0.86132  0.16136  0.42139  Biso   1.000  Mn
  O79      1.0000 0.81770  0.09680  0.31520  Biso   1.000  O
  O80      1.0000 0.70700  0.76060  0.10750  Biso   1.000  O
  O81      1.0000 0.82420  0.89420  0.98960  Biso   1.000  O
  O82      1.0000 0.07120  0.75410  0.59670  Biso   1.000  O
  O83      1.0000 0.06960  0.75270  0.48240  Biso   1.000  O
  C109     1.0000 0.83090  0.10120  0.25980  Biso   1.000  C
  Mn14     1.0000 0.88032  0.29499  0.28541  Biso   1.000  Mn
  O84      1.0000 0.85730  0.16250  0.24770  Biso   1.000  O
  C110     1.0000 0.81210  0.02690  0.20430  Biso   1.000  C
  O85      1.0000 0.70380  0.81950  0.20960  Biso   1.000  O
  O86      1.0000 0.90040  0.42620  0.32680  Biso   1.000  O
  O87      1.0000 0.96510  0.30030  0.27020  Biso   1.000  O
  C111     1.0000 0.83710  0.02300  0.15240  Biso   1.000  C
  C112     1.0000 0.77540  0.95970  0.20690  Biso   1.000  C
  C113     1.0000 0.93420  0.49130  0.33980  Biso   1.000  C
  H55      1.0000 0.86320  0.06640  0.15200  Biso   1.000  H
  C114     1.0000 0.82210  0.95220  0.10100  Biso   1.000  C
  C115     1.0000 0.76060  0.88990  0.15440  Biso   1.000  C
  H56      1.0000 0.76070  0.96070  0.24320  Biso   1.000  H
  O88      1.0000 0.96110  0.51340  0.30200  Biso   1.000  O
  C116     1.0000 0.94330  0.54780  0.40730  Biso   1.000  C
  O89      1.0000 0.91640  0.57620  0.63490  Biso   1.000  O
  C117     1.0000 0.84870  0.94970  0.04470  Biso   1.000  C
  C118     1.0000 0.78270  0.88950  0.10250  Biso   1.000  C
  C119     1.0000 0.72100  0.81730  0.15740  Biso   1.000  C
  C120     1.0000 0.91040  0.52970  0.45030  Biso   1.000  C
  C121     1.0000 0.98530  0.61160  0.43190  Biso   1.000  C
  O90      1.0000 0.89440  0.99390  0.05820  Biso   1.000  O
  H57      1.0000 0.77080  0.84510  0.06620  Biso   1.000  H
  H58      1.0000 0.88020  0.48710  0.43310  Biso   1.000  H
  C122     1.0000 0.92320  0.57520  0.51660  Biso   1.000  C
  H59      1.0000 0.00570  0.62460  0.40300  Biso   1.000  H
  C123     1.0000 0.99940  0.65940  0.49930  Biso   1.000  C
  C124     1.0000 0.96930  0.63970  0.54160  Biso   1.000  C
  C125     1.0000 0.89280  0.55370  0.56400  Biso   1.000  C
  C126     1.0000 0.04920  0.72490  0.52680  Biso   1.000  C
  H60      1.0000 0.97940  0.66920  0.58770  Biso   1.000  H
  O91      1.0000 0.84100  0.51660  0.52940  Biso   1.000  O
  H61      1.0000 0.02900  0.14290  0.23360  Biso   1.000  H
  H62      1.0000 0.01130  0.14290  0.30140  Biso   1.000  H
  H63      1.0000 0.95970  0.14290  0.21500  Biso   1.000  H
  Mn15     1.0000 0.36132  0.66136  0.42139  Biso   1.000  Mn
  O92      1.0000 0.31770  0.59680  0.31520  Biso   1.000  O
  O93      1.0000 0.20700  0.26060  0.10750  Biso   1.000  O
  O94      1.0000 0.32420  0.39420  0.98960  Biso   1.000  O
  O95      1.0000 0.57120  0.25410  0.59670  Biso   1.000  O
  O96      1.0000 0.56960  0.25270  0.48240  Biso   1.000  O
  C127     1.0000 0.33090  0.60120  0.25980  Biso   1.000  C
  Mn16     1.0000 0.38032  0.79499  0.28541  Biso   1.000  Mn
  O97      1.0000 0.35730  0.66250  0.24770  Biso   1.000  O
  C128     1.0000 0.31210  0.52690  0.20430  Biso   1.000  C
  O98      1.0000 0.20380  0.31950  0.20960  Biso   1.000  O
  O99      1.0000 0.40040  0.92620  0.32680  Biso   1.000  O
  O100     1.0000 0.46510  0.80030  0.27020  Biso   1.000  O
  C129     1.0000 0.33710  0.52300  0.15240  Biso   1.000  C
  C130     1.0000 0.27540  0.45970  0.20690  Biso   1.000  C
  C131     1.0000 0.43420  0.99130  0.33980  Biso   1.000  C
  H64      1.0000 0.36320  0.56640  0.15200  Biso   1.000  H
  C132     1.0000 0.32210  0.45220  0.10100  Biso   1.000  C
  C133     1.0000 0.26060  0.38990  0.15440  Biso   1.000  C
  H65      1.0000 0.26070  0.46070  0.24320  Biso   1.000  H
  O101     1.0000 0.46110  0.01340  0.30200  Biso   1.000  O
  C134     1.0000 0.44330  0.04780  0.40730  Biso   1.000  C
  O102     1.0000 0.41640  0.07620  0.63490  Biso   1.000  O
  C135     1.0000 0.34870  0.44970  0.04470  Biso   1.000  C
  C136     1.0000 0.28270  0.38950  0.10250  Biso   1.000  C
  C137     1.0000 0.22100  0.31730  0.15740  Biso   1.000  C
  C138     1.0000 0.41040  0.02970  0.45030  Biso   1.000  C
  C139     1.0000 0.48530  0.11160  0.43190  Biso   1.000  C
  O103     1.0000 0.39440  0.49390  0.05820  Biso   1.000  O
  H66      1.0000 0.27080  0.34510  0.06620  Biso   1.000  H
  H67      1.0000 0.38020  0.98710  0.43310  Biso   1.000  H
  C140     1.0000 0.42320  0.07520  0.51660  Biso   1.000  C
  H68      1.0000 0.50570  0.12460  0.40300  Biso   1.000  H
  C141     1.0000 0.49940  0.15940  0.49930  Biso   1.000  C
  C142     1.0000 0.46930  0.13970  0.54160  Biso   1.000  C
  C143     1.0000 0.39280  0.05370  0.56400  Biso   1.000  C
  C144     1.0000 0.54920  0.22490  0.52680  Biso   1.000  C
  H69      1.0000 0.47940  0.16920  0.58770  Biso   1.000  H
  O104     1.0000 0.34100  0.01660  0.52940  Biso   1.000  O
  H70      1.0000 0.52900  0.64290  0.23360  Biso   1.000  H
  H71      1.0000 0.51130  0.64290  0.30140  Biso   1.000  H
  H72      1.0000 0.45970  0.64290  0.21500  Biso   1.000  H
  Mn17     1.0000 0.00000  0.56802  0.75000  Biso   1.000  Mn
  C145     1.0000 0.00000  0.74020  0.75000  Biso   1.000  C
  C146     1.0000 0.00000  0.83640  0.75000  Biso   1.000  C
  Mn18     1.0000 0.50000  0.06802  0.75000  Biso   1.000  Mn
  C147     1.0000 0.50000  0.24020  0.75000  Biso   1.000  C
  C148     1.0000 0.50000  0.33640  0.75000  Biso   1.000  C
  Mn19     1.0000 0.00000  0.43198  0.25000  Biso   1.000  Mn
  C149     1.0000 0.00000  0.25980  0.25000  Biso   1.000  C
  C150     1.0000 0.00000  0.16360  0.25000  Biso   1.000  C
  Mn20     1.0000 0.50000  0.93198  0.25000  Biso   1.000  Mn
  C151     1.0000 0.50000  0.75980  0.25000  Biso   1.000  C
  C152     1.0000 0.50000  0.66360  0.25000  Biso   1.000  C
