data_image0
_cell_length_a       13.12
_cell_length_b       13.049
_cell_length_c       12.85
_cell_angle_alpha    90
_cell_angle_beta     105.7
_cell_angle_gamma    90

_symmetry_space_group_name_H-M    "P 1"
_symmetry_int_tables_number       1

loop_
  _symmetry_equiv_pos_as_xyz
  'x, y, z'

loop_
  _atom_site_label
  _atom_site_occupancy
  _atom_site_fract_x
  _atom_site_fract_y
  _atom_site_fract_z
  _atom_site_thermal_displace_type
  _atom_site_B_iso_or_equiv
  _atom_site_type_symbol
  Er1      1.0000 0.26620  0.06720  0.32320  Biso   1.000  Er
  O1       1.0000 0.21800  0.01900  0.95700  Biso   1.000  O
  O2       1.0000 0.19500  0.05300  0.11700  Biso   1.000  O
  O3       1.0000 0.08510  0.06800  0.29200  Biso   1.000  O
  O4       1.0000 0.41800  0.08400  0.25700  Biso   1.000  O
  O5       1.0000 0.23100  0.40700  0.22300  Biso   1.000  O
  O6       1.0000 0.25300  0.24200  0.26200  Biso   1.000  O
  O7       1.0000 0.55400  0.94600  0.55400  Biso   1.000  O
  O8       1.0000 0.31700  0.18800  0.49400  Biso   1.000  O
  C1       1.0000 0.23800  0.01300  0.05500  Biso   1.000  C
  H1       1.0000 0.29460  0.97030  0.08730  Biso   1.000  H
  C2       1.0000 0.24000  0.31700  0.20300  Biso   1.000  C
  H2       1.0000 0.23690  0.30220  0.13150  Biso   1.000  H
  C3       1.0000 0.51700  0.03000  0.52500  Biso   1.000  C
  O9       1.0000 0.25400  0.19200  0.42700  Biso   1.000  O
  H3       1.0000 0.19260  0.25410  0.43900  Biso   1.000  H
  H4       1.0000 0.54760  0.08400  0.56940  Biso   1.000  H
  Er2      1.0000 0.76620  0.56720  0.32320  Biso   1.000  Er
  O10      1.0000 0.71800  0.51900  0.95700  Biso   1.000  O
  O11      1.0000 0.69500  0.55300  0.11700  Biso   1.000  O
  O12      1.0000 0.58510  0.56800  0.29200  Biso   1.000  O
  O13      1.0000 0.91800  0.58400  0.25700  Biso   1.000  O
  O14      1.0000 0.73100  0.90700  0.22300  Biso   1.000  O
  O15      1.0000 0.75300  0.74200  0.26200  Biso   1.000  O
  O16      1.0000 0.05400  0.44600  0.55400  Biso   1.000  O
  O17      1.0000 0.81700  0.68800  0.49400  Biso   1.000  O
  C4       1.0000 0.73800  0.51300  0.05500  Biso   1.000  C
  H5       1.0000 0.79460  0.47030  0.08730  Biso   1.000  H
  C5       1.0000 0.74000  0.81700  0.20300  Biso   1.000  C
  H6       1.0000 0.73690  0.80220  0.13150  Biso   1.000  H
  C6       1.0000 0.01700  0.53000  0.52500  Biso   1.000  C
  O18      1.0000 0.75400  0.69200  0.42700  Biso   1.000  O
  H7       1.0000 0.69260  0.75410  0.43900  Biso   1.000  H
  H8       1.0000 0.04760  0.58400  0.56940  Biso   1.000  H
  Er3      1.0000 0.73380  0.06720  0.17680  Biso   1.000  Er
  O19      1.0000 0.78200  0.01900  0.54300  Biso   1.000  O
  O20      1.0000 0.80500  0.05300  0.38300  Biso   1.000  O
  O21      1.0000 0.91490  0.06800  0.20800  Biso   1.000  O
  O22      1.0000 0.58200  0.08400  0.24300  Biso   1.000  O
  O23      1.0000 0.76900  0.40700  0.27700  Biso   1.000  O
  O24      1.0000 0.74700  0.24200  0.23800  Biso   1.000  O
  O25      1.0000 0.44600  0.94600  0.94600  Biso   1.000  O
  O26      1.0000 0.68300  0.18800  0.00600  Biso   1.000  O
  C7       1.0000 0.76200  0.01300  0.44500  Biso   1.000  C
  H9       1.0000 0.70540  0.97030  0.41270  Biso   1.000  H
  C8       1.0000 0.76000  0.31700  0.29700  Biso   1.000  C
  H10      1.0000 0.76310  0.30220  0.36850  Biso   1.000  H
  C9       1.0000 0.48300  0.03000  0.97500  Biso   1.000  C
  O27      1.0000 0.74600  0.19200  0.07300  Biso   1.000  O
  H11      1.0000 0.80740  0.25410  0.06100  Biso   1.000  H
  H12      1.0000 0.45240  0.08400  0.93060  Biso   1.000  H
  Er4      1.0000 0.23380  0.56720  0.17680  Biso   1.000  Er
  O28      1.0000 0.28200  0.51900  0.54300  Biso   1.000  O
  O29      1.0000 0.30500  0.55300  0.38300  Biso   1.000  O
  O30      1.0000 0.41490  0.56800  0.20800  Biso   1.000  O
  O31      1.0000 0.08200  0.58400  0.24300  Biso   1.000  O
  O32      1.0000 0.26900  0.90700  0.27700  Biso   1.000  O
  O33      1.0000 0.24700  0.74200  0.23800  Biso   1.000  O
  O34      1.0000 0.94600  0.44600  0.94600  Biso   1.000  O
  O35      1.0000 0.18300  0.68800  0.00600  Biso   1.000  O
  C10      1.0000 0.26200  0.51300  0.44500  Biso   1.000  C
  H13      1.0000 0.20540  0.47030  0.41270  Biso   1.000  H
  C11      1.0000 0.26000  0.81700  0.29700  Biso   1.000  C
  H14      1.0000 0.26310  0.80220  0.36850  Biso   1.000  H
  C12      1.0000 0.98300  0.53000  0.97500  Biso   1.000  C
  O36      1.0000 0.24600  0.69200  0.07300  Biso   1.000  O
  H15      1.0000 0.30740  0.75410  0.06100  Biso   1.000  H
  H16      1.0000 0.95240  0.58400  0.93060  Biso   1.000  H
  Er5      1.0000 0.73380  0.93280  0.67680  Biso   1.000  Er
  O37      1.0000 0.78200  0.98100  0.04300  Biso   1.000  O
  O38      1.0000 0.80500  0.94700  0.88300  Biso   1.000  O
  O39      1.0000 0.91490  0.93200  0.70800  Biso   1.000  O
  O40      1.0000 0.58200  0.91600  0.74300  Biso   1.000  O
  O41      1.0000 0.76900  0.59300  0.77700  Biso   1.000  O
  O42      1.0000 0.74700  0.75800  0.73800  Biso   1.000  O
  O43      1.0000 0.44600  0.05400  0.44600  Biso   1.000  O
  O44      1.0000 0.68300  0.81200  0.50600  Biso   1.000  O
  C13      1.0000 0.76200  0.98700  0.94500  Biso   1.000  C
  H17      1.0000 0.70540  0.02970  0.91270  Biso   1.000  H
  C14      1.0000 0.76000  0.68300  0.79700  Biso   1.000  C
  H18      1.0000 0.76310  0.69780  0.86850  Biso   1.000  H
  C15      1.0000 0.48300  0.97000  0.47500  Biso   1.000  C
  O45      1.0000 0.74600  0.80800  0.57300  Biso   1.000  O
  H19      1.0000 0.80740  0.74590  0.56100  Biso   1.000  H
  H20      1.0000 0.45240  0.91600  0.43060  Biso   1.000  H
  Er6      1.0000 0.23380  0.43280  0.67680  Biso   1.000  Er
  O46      1.0000 0.28200  0.48100  0.04300  Biso   1.000  O
  O47      1.0000 0.30500  0.44700  0.88300  Biso   1.000  O
  O48      1.0000 0.41490  0.43200  0.70800  Biso   1.000  O
  O49      1.0000 0.08200  0.41600  0.74300  Biso   1.000  O
  O50      1.0000 0.26900  0.09300  0.77700  Biso   1.000  O
  O51      1.0000 0.24700  0.25800  0.73800  Biso   1.000  O
  O52      1.0000 0.94600  0.55400  0.44600  Biso   1.000  O
  O53      1.0000 0.18300  0.31200  0.50600  Biso   1.000  O
  C16      1.0000 0.26200  0.48700  0.94500  Biso   1.000  C
  H21      1.0000 0.20540  0.52970  0.91270  Biso   1.000  H
  C17      1.0000 0.26000  0.18300  0.79700  Biso   1.000  C
  H22      1.0000 0.26310  0.19780  0.86850  Biso   1.000  H
  C18      1.0000 0.98300  0.47000  0.47500  Biso   1.000  C
  O54      1.0000 0.24600  0.30800  0.57300  Biso   1.000  O
  H23      1.0000 0.30740  0.24590  0.56100  Biso   1.000  H
  H24      1.0000 0.95240  0.41600  0.43060  Biso   1.000  H
  Er7      1.0000 0.26620  0.93280  0.82320  Biso   1.000  Er
  O55      1.0000 0.21800  0.98100  0.45700  Biso   1.000  O
  O56      1.0000 0.19500  0.94700  0.61700  Biso   1.000  O
  O57      1.0000 0.08510  0.93200  0.79200  Biso   1.000  O
  O58      1.0000 0.41800  0.91600  0.75700  Biso   1.000  O
  O59      1.0000 0.23100  0.59300  0.72300  Biso   1.000  O
  O60      1.0000 0.25300  0.75800  0.76200  Biso   1.000  O
  O61      1.0000 0.55400  0.05400  0.05400  Biso   1.000  O
  O62      1.0000 0.31700  0.81200  0.99400  Biso   1.000  O
  C19      1.0000 0.23800  0.98700  0.55500  Biso   1.000  C
  H25      1.0000 0.29460  0.02970  0.58730  Biso   1.000  H
  C20      1.0000 0.24000  0.68300  0.70300  Biso   1.000  C
  H26      1.0000 0.23690  0.69780  0.63150  Biso   1.000  H
  C21      1.0000 0.51700  0.97000  0.02500  Biso   1.000  C
  O63      1.0000 0.25400  0.80800  0.92700  Biso   1.000  O
  H27      1.0000 0.19260  0.74590  0.93900  Biso   1.000  H
  H28      1.0000 0.54760  0.91600  0.06940  Biso   1.000  H
  Er8      1.0000 0.76620  0.43280  0.82320  Biso   1.000  Er
  O64      1.0000 0.71800  0.48100  0.45700  Biso   1.000  O
  O65      1.0000 0.69500  0.44700  0.61700  Biso   1.000  O
  O66      1.0000 0.58510  0.43200  0.79200  Biso   1.000  O
  O67      1.0000 0.91800  0.41600  0.75700  Biso   1.000  O
  O68      1.0000 0.73100  0.09300  0.72300  Biso   1.000  O
  O69      1.0000 0.75300  0.25800  0.76200  Biso   1.000  O
  O70      1.0000 0.05400  0.55400  0.05400  Biso   1.000  O
  O71      1.0000 0.81700  0.31200  0.99400  Biso   1.000  O
  C22      1.0000 0.73800  0.48700  0.55500  Biso   1.000  C
  H29      1.0000 0.79460  0.52970  0.58730  Biso   1.000  H
  C23      1.0000 0.74000  0.18300  0.70300  Biso   1.000  C
  H30      1.0000 0.73690  0.19780  0.63150  Biso   1.000  H
  C24      1.0000 0.01700  0.47000  0.02500  Biso   1.000  C
  O72      1.0000 0.75400  0.30800  0.92700  Biso   1.000  O
  H31      1.0000 0.69260  0.24590  0.93900  Biso   1.000  H
  H32      1.0000 0.04760  0.41600  0.06940  Biso   1.000  H
  C25      1.0000 0.00000  0.10700  0.25000  Biso   1.000  C
  H33      1.0000 0.00000  0.17840  0.25000  Biso   1.000  H
  C26      1.0000 0.50000  0.60700  0.25000  Biso   1.000  C
  H34      1.0000 0.50000  0.67840  0.25000  Biso   1.000  H
  C27      1.0000 0.00000  0.89300  0.75000  Biso   1.000  C
  H35      1.0000 0.00000  0.82160  0.75000  Biso   1.000  H
  C28      1.0000 0.50000  0.39300  0.75000  Biso   1.000  C
  H36      1.0000 0.50000  0.32160  0.75000  Biso   1.000  H
  C29      1.0000 0.50000  0.04500  0.25000  Biso   1.000  C
  H37      1.0000 0.50000  0.97320  0.25000  Biso   1.000  H
  C30      1.0000 0.00000  0.54500  0.25000  Biso   1.000  C
  H38      1.0000 0.00000  0.47320  0.25000  Biso   1.000  H
  C31      1.0000 0.50000  0.95500  0.75000  Biso   1.000  C
  H39      1.0000 0.50000  0.02680  0.75000  Biso   1.000  H
  C32      1.0000 0.00000  0.45500  0.75000  Biso   1.000  C
  H40      1.0000 0.00000  0.52680  0.75000  Biso   1.000  H
  C33      1.0000 0.25000  0.25000  0.50000  Biso   1.000  C
  C34      1.0000 0.75000  0.25000  0.00000  Biso   1.000  C
  C35      1.0000 0.75000  0.75000  0.50000  Biso   1.000  C
  C36      1.0000 0.25000  0.75000  0.00000  Biso   1.000  C
