data_image0
_cell_length_a       14.7243
_cell_length_b       12.9861
_cell_length_c       12.7671
_cell_angle_alpha    90
_cell_angle_beta     105.008
_cell_angle_gamma    90

_symmetry_space_group_name_H-M    "P 1"
_symmetry_int_tables_number       1

loop_
  _symmetry_equiv_pos_as_xyz
  'x, y, z'

loop_
  _atom_site_label
  _atom_site_occupancy
  _atom_site_fract_x
  _atom_site_fract_y
  _atom_site_fract_z
  _atom_site_thermal_displace_type
  _atom_site_B_iso_or_equiv
  _atom_site_type_symbol
  Er1      1.0000 0.23514  0.06821  0.31083  Biso   1.000  Er
  O1       1.0000 0.18780  0.01910  0.95190  Biso   1.000  O
  O2       1.0000 0.18730  0.05810  0.12010  Biso   1.000  O
  O3       1.0000 0.07720  0.08750  0.26740  Biso   1.000  O
  O4       1.0000 0.38340  0.04730  0.26750  Biso   1.000  O
  O5       1.0000 0.22660  0.89440  0.27440  Biso   1.000  O
  O6       1.0000 0.24360  0.72870  0.25450  Biso   1.000  O
  O7       1.0000 0.38290  0.02380  0.43140  Biso   1.000  O
  O8       1.0000 0.27720  0.18060  0.45190  Biso   1.000  O
  C1       1.0000 0.22220  0.01790  0.05230  Biso   1.000  C
  H1       1.0000 0.27900  0.98360  0.07800  Biso   1.000  H
  C2       1.0000 0.27060  0.81900  0.25860  Biso   1.000  C
  H2       1.0000 0.33020  0.83070  0.24880  Biso   1.000  H
  C3       1.0000 0.42430  0.02420  0.35960  Biso   1.000  C
  H3       1.0000 0.48760  0.00660  0.37600  Biso   1.000  H
  O9       1.0000 0.20770  0.19040  0.43350  Biso   1.000  O
  H4       1.0000 0.18510  0.25820  0.48210  Biso   1.000  H
  Er2      1.0000 0.73514  0.56821  0.31083  Biso   1.000  Er
  O10      1.0000 0.68780  0.51910  0.95190  Biso   1.000  O
  O11      1.0000 0.68730  0.55810  0.12010  Biso   1.000  O
  O12      1.0000 0.57720  0.58750  0.26740  Biso   1.000  O
  O13      1.0000 0.88340  0.54730  0.26750  Biso   1.000  O
  O14      1.0000 0.72660  0.39440  0.27440  Biso   1.000  O
  O15      1.0000 0.74360  0.22870  0.25450  Biso   1.000  O
  O16      1.0000 0.88290  0.52380  0.43140  Biso   1.000  O
  O17      1.0000 0.77720  0.68060  0.45190  Biso   1.000  O
  C4       1.0000 0.72220  0.51790  0.05230  Biso   1.000  C
  H5       1.0000 0.77900  0.48360  0.07800  Biso   1.000  H
  C5       1.0000 0.77060  0.31900  0.25860  Biso   1.000  C
  H6       1.0000 0.83020  0.33070  0.24880  Biso   1.000  H
  C6       1.0000 0.92430  0.52420  0.35960  Biso   1.000  C
  H7       1.0000 0.98760  0.50660  0.37600  Biso   1.000  H
  O18      1.0000 0.70770  0.69040  0.43350  Biso   1.000  O
  H8       1.0000 0.68510  0.75820  0.48210  Biso   1.000  H
  Er3      1.0000 0.76486  0.06821  0.18917  Biso   1.000  Er
  O19      1.0000 0.81220  0.01910  0.54810  Biso   1.000  O
  O20      1.0000 0.81270  0.05810  0.37990  Biso   1.000  O
  O21      1.0000 0.92280  0.08750  0.23260  Biso   1.000  O
  O22      1.0000 0.61660  0.04730  0.23250  Biso   1.000  O
  O23      1.0000 0.77340  0.89440  0.22560  Biso   1.000  O
  O24      1.0000 0.75640  0.72870  0.24550  Biso   1.000  O
  O25      1.0000 0.61710  0.02380  0.06860  Biso   1.000  O
  O26      1.0000 0.72280  0.18060  0.04810  Biso   1.000  O
  C7       1.0000 0.77780  0.01790  0.44770  Biso   1.000  C
  H9       1.0000 0.72100  0.98360  0.42200  Biso   1.000  H
  C8       1.0000 0.72940  0.81900  0.24140  Biso   1.000  C
  H10      1.0000 0.66980  0.83070  0.25120  Biso   1.000  H
  C9       1.0000 0.57570  0.02420  0.14040  Biso   1.000  C
  H11      1.0000 0.51240  0.00660  0.12400  Biso   1.000  H
  O27      1.0000 0.79230  0.19040  0.06650  Biso   1.000  O
  H12      1.0000 0.81490  0.25820  0.01790  Biso   1.000  H
  Er4      1.0000 0.26486  0.56821  0.18917  Biso   1.000  Er
  O28      1.0000 0.31220  0.51910  0.54810  Biso   1.000  O
  O29      1.0000 0.31270  0.55810  0.37990  Biso   1.000  O
  O30      1.0000 0.42280  0.58750  0.23260  Biso   1.000  O
  O31      1.0000 0.11660  0.54730  0.23250  Biso   1.000  O
  O32      1.0000 0.27340  0.39440  0.22560  Biso   1.000  O
  O33      1.0000 0.25640  0.22870  0.24550  Biso   1.000  O
  O34      1.0000 0.11710  0.52380  0.06860  Biso   1.000  O
  O35      1.0000 0.22280  0.68060  0.04810  Biso   1.000  O
  C10      1.0000 0.27780  0.51790  0.44770  Biso   1.000  C
  H13      1.0000 0.22100  0.48360  0.42200  Biso   1.000  H
  C11      1.0000 0.22940  0.31900  0.24140  Biso   1.000  C
  H14      1.0000 0.16980  0.33070  0.25120  Biso   1.000  H
  C12      1.0000 0.07570  0.52420  0.14040  Biso   1.000  C
  H15      1.0000 0.01240  0.50660  0.12400  Biso   1.000  H
  O36      1.0000 0.29230  0.69040  0.06650  Biso   1.000  O
  H16      1.0000 0.31490  0.75820  0.01790  Biso   1.000  H
  Er5      1.0000 0.76486  0.93179  0.68917  Biso   1.000  Er
  O37      1.0000 0.81220  0.98090  0.04810  Biso   1.000  O
  O38      1.0000 0.81270  0.94190  0.87990  Biso   1.000  O
  O39      1.0000 0.92280  0.91250  0.73260  Biso   1.000  O
  O40      1.0000 0.61660  0.95270  0.73250  Biso   1.000  O
  O41      1.0000 0.77340  0.10560  0.72560  Biso   1.000  O
  O42      1.0000 0.75640  0.27130  0.74550  Biso   1.000  O
  O43      1.0000 0.61710  0.97620  0.56860  Biso   1.000  O
  O44      1.0000 0.72280  0.81940  0.54810  Biso   1.000  O
  C13      1.0000 0.77780  0.98210  0.94770  Biso   1.000  C
  H17      1.0000 0.72100  0.01640  0.92200  Biso   1.000  H
  C14      1.0000 0.72940  0.18100  0.74140  Biso   1.000  C
  H18      1.0000 0.66980  0.16930  0.75120  Biso   1.000  H
  C15      1.0000 0.57570  0.97580  0.64040  Biso   1.000  C
  H19      1.0000 0.51240  0.99340  0.62400  Biso   1.000  H
  O45      1.0000 0.79230  0.80960  0.56650  Biso   1.000  O
  H20      1.0000 0.81490  0.74180  0.51790  Biso   1.000  H
  Er6      1.0000 0.26486  0.43179  0.68917  Biso   1.000  Er
  O46      1.0000 0.31220  0.48090  0.04810  Biso   1.000  O
  O47      1.0000 0.31270  0.44190  0.87990  Biso   1.000  O
  O48      1.0000 0.42280  0.41250  0.73260  Biso   1.000  O
  O49      1.0000 0.11660  0.45270  0.73250  Biso   1.000  O
  O50      1.0000 0.27340  0.60560  0.72560  Biso   1.000  O
  O51      1.0000 0.25640  0.77130  0.74550  Biso   1.000  O
  O52      1.0000 0.11710  0.47620  0.56860  Biso   1.000  O
  O53      1.0000 0.22280  0.31940  0.54810  Biso   1.000  O
  C16      1.0000 0.27780  0.48210  0.94770  Biso   1.000  C
  H21      1.0000 0.22100  0.51640  0.92200  Biso   1.000  H
  C17      1.0000 0.22940  0.68100  0.74140  Biso   1.000  C
  H22      1.0000 0.16980  0.66930  0.75120  Biso   1.000  H
  C18      1.0000 0.07570  0.47580  0.64040  Biso   1.000  C
  H23      1.0000 0.01240  0.49340  0.62400  Biso   1.000  H
  O54      1.0000 0.29230  0.30960  0.56650  Biso   1.000  O
  H24      1.0000 0.31490  0.24180  0.51790  Biso   1.000  H
  Er7      1.0000 0.23514  0.93179  0.81083  Biso   1.000  Er
  O55      1.0000 0.18780  0.98090  0.45190  Biso   1.000  O
  O56      1.0000 0.18730  0.94190  0.62010  Biso   1.000  O
  O57      1.0000 0.07720  0.91250  0.76740  Biso   1.000  O
  O58      1.0000 0.38340  0.95270  0.76750  Biso   1.000  O
  O59      1.0000 0.22660  0.10560  0.77440  Biso   1.000  O
  O60      1.0000 0.24360  0.27130  0.75450  Biso   1.000  O
  O61      1.0000 0.38290  0.97620  0.93140  Biso   1.000  O
  O62      1.0000 0.27720  0.81940  0.95190  Biso   1.000  O
  C19      1.0000 0.22220  0.98210  0.55230  Biso   1.000  C
  H25      1.0000 0.27900  0.01640  0.57800  Biso   1.000  H
  C20      1.0000 0.27060  0.18100  0.75860  Biso   1.000  C
  H26      1.0000 0.33020  0.16930  0.74880  Biso   1.000  H
  C21      1.0000 0.42430  0.97580  0.85960  Biso   1.000  C
  H27      1.0000 0.48760  0.99340  0.87600  Biso   1.000  H
  O63      1.0000 0.20770  0.80960  0.93350  Biso   1.000  O
  H28      1.0000 0.18510  0.74180  0.98210  Biso   1.000  H
  Er8      1.0000 0.73514  0.43179  0.81083  Biso   1.000  Er
  O64      1.0000 0.68780  0.48090  0.45190  Biso   1.000  O
  O65      1.0000 0.68730  0.44190  0.62010  Biso   1.000  O
  O66      1.0000 0.57720  0.41250  0.76740  Biso   1.000  O
  O67      1.0000 0.88340  0.45270  0.76750  Biso   1.000  O
  O68      1.0000 0.72660  0.60560  0.77440  Biso   1.000  O
  O69      1.0000 0.74360  0.77130  0.75450  Biso   1.000  O
  O70      1.0000 0.88290  0.47620  0.93140  Biso   1.000  O
  O71      1.0000 0.77720  0.31940  0.95190  Biso   1.000  O
  C22      1.0000 0.72220  0.48210  0.55230  Biso   1.000  C
  H29      1.0000 0.77900  0.51640  0.57800  Biso   1.000  H
  C23      1.0000 0.77060  0.68100  0.75860  Biso   1.000  C
  H30      1.0000 0.83020  0.66930  0.74880  Biso   1.000  H
  C24      1.0000 0.92430  0.47580  0.85960  Biso   1.000  C
  H31      1.0000 0.98760  0.49340  0.87600  Biso   1.000  H
  O72      1.0000 0.70770  0.30960  0.93350  Biso   1.000  O
  H32      1.0000 0.68510  0.24180  0.98210  Biso   1.000  H
  C25      1.0000 0.00000  0.12700  0.25000  Biso   1.000  C
  H33      1.0000 0.00000  0.19860  0.25000  Biso   1.000  H
  C26      1.0000 0.50000  0.62700  0.25000  Biso   1.000  C
  H34      1.0000 0.50000  0.69860  0.25000  Biso   1.000  H
  C27      1.0000 0.00000  0.87300  0.75000  Biso   1.000  C
  H35      1.0000 0.00000  0.80140  0.75000  Biso   1.000  H
  C28      1.0000 0.50000  0.37300  0.75000  Biso   1.000  C
  H36      1.0000 0.50000  0.30140  0.75000  Biso   1.000  H
  C29      1.0000 0.25000  0.25000  0.50000  Biso   1.000  C
  C30      1.0000 0.75000  0.25000  0.00000  Biso   1.000  C
  C31      1.0000 0.75000  0.75000  0.50000  Biso   1.000  C
  C32      1.0000 0.25000  0.75000  0.00000  Biso   1.000  C
