data_image0
_cell_length_a       14.639
_cell_length_b       12.852
_cell_length_c       12.8392
_cell_angle_alpha    90
_cell_angle_beta     104.29
_cell_angle_gamma    90

_symmetry_space_group_name_H-M    "P 1"
_symmetry_int_tables_number       1

loop_
  _symmetry_equiv_pos_as_xyz
  'x, y, z'

loop_
  _atom_site_label
  _atom_site_occupancy
  _atom_site_fract_x
  _atom_site_fract_y
  _atom_site_fract_z
  _atom_site_thermal_displace_type
  _atom_site_B_iso_or_equiv
  _atom_site_type_symbol
  Er1      1.0000 0.23611  0.06735  0.32048  Biso   1.000  Er
  O1       1.0000 0.19590  0.01470  0.96710  Biso   1.000  O
  O2       1.0000 0.19240  0.05110  0.13350  Biso   1.000  O
  O3       1.0000 0.07710  0.07030  0.27290  Biso   1.000  O
  O4       1.0000 0.39000  0.06200  0.43200  Biso   1.000  O
  O5       1.0000 0.22580  0.88770  0.29530  Biso   1.000  O
  O6       1.0000 0.24130  0.72590  0.25110  Biso   1.000  O
  O7       1.0000 0.38390  0.04070  0.27420  Biso   1.000  O
  O8       1.0000 0.28840  0.18500  0.45680  Biso   1.000  O
  C1       1.0000 0.23050  0.01280  0.06370  Biso   1.000  C
  H1       1.0000 0.28900  0.98110  0.08780  Biso   1.000  H
  C2       1.0000 0.26670  0.81580  0.26510  Biso   1.000  C
  H2       1.0000 0.32450  0.83160  0.25100  Biso   1.000  H
  C3       1.0000 0.42510  0.02010  0.36600  Biso   1.000  C
  H3       1.0000 0.47760  0.97680  0.38400  Biso   1.000  H
  O9       1.0000 0.38500  0.98700  0.43100  Biso   1.000  O
  O10      1.0000 0.19490  0.20120  0.43100  Biso   1.000  O
  H4       1.0000 0.18520  0.26120  0.48210  Biso   1.000  H
  Er2      1.0000 0.73611  0.56735  0.32048  Biso   1.000  Er
  O11      1.0000 0.69590  0.51470  0.96710  Biso   1.000  O
  O12      1.0000 0.69240  0.55110  0.13350  Biso   1.000  O
  O13      1.0000 0.57710  0.57030  0.27290  Biso   1.000  O
  O14      1.0000 0.89000  0.56200  0.43200  Biso   1.000  O
  O15      1.0000 0.72580  0.38770  0.29530  Biso   1.000  O
  O16      1.0000 0.74130  0.22590  0.25110  Biso   1.000  O
  O17      1.0000 0.88390  0.54070  0.27420  Biso   1.000  O
  O18      1.0000 0.78840  0.68500  0.45680  Biso   1.000  O
  C4       1.0000 0.73050  0.51280  0.06370  Biso   1.000  C
  H5       1.0000 0.78900  0.48110  0.08780  Biso   1.000  H
  C5       1.0000 0.76670  0.31580  0.26510  Biso   1.000  C
  H6       1.0000 0.82450  0.33160  0.25100  Biso   1.000  H
  C6       1.0000 0.92510  0.52010  0.36600  Biso   1.000  C
  H7       1.0000 0.97760  0.47680  0.38400  Biso   1.000  H
  O19      1.0000 0.88500  0.48700  0.43100  Biso   1.000  O
  O20      1.0000 0.69490  0.70120  0.43100  Biso   1.000  O
  H8       1.0000 0.68520  0.76120  0.48210  Biso   1.000  H
  Er3      1.0000 0.76389  0.06735  0.17952  Biso   1.000  Er
  O21      1.0000 0.80410  0.01470  0.53290  Biso   1.000  O
  O22      1.0000 0.80760  0.05110  0.36650  Biso   1.000  O
  O23      1.0000 0.92290  0.07030  0.22710  Biso   1.000  O
  O24      1.0000 0.61000  0.06200  0.06800  Biso   1.000  O
  O25      1.0000 0.77420  0.88770  0.20470  Biso   1.000  O
  O26      1.0000 0.75870  0.72590  0.24890  Biso   1.000  O
  O27      1.0000 0.61610  0.04070  0.22580  Biso   1.000  O
  O28      1.0000 0.71160  0.18500  0.04320  Biso   1.000  O
  C7       1.0000 0.76950  0.01280  0.43630  Biso   1.000  C
  H9       1.0000 0.71100  0.98110  0.41220  Biso   1.000  H
  C8       1.0000 0.73330  0.81580  0.23490  Biso   1.000  C
  H10      1.0000 0.67550  0.83160  0.24900  Biso   1.000  H
  C9       1.0000 0.57490  0.02010  0.13400  Biso   1.000  C
  H11      1.0000 0.52240  0.97680  0.11600  Biso   1.000  H
  O29      1.0000 0.61500  0.98700  0.06900  Biso   1.000  O
  O30      1.0000 0.80510  0.20120  0.06900  Biso   1.000  O
  H12      1.0000 0.81480  0.26120  0.01790  Biso   1.000  H
  Er4      1.0000 0.26389  0.56735  0.17952  Biso   1.000  Er
  O31      1.0000 0.30410  0.51470  0.53290  Biso   1.000  O
  O32      1.0000 0.30760  0.55110  0.36650  Biso   1.000  O
  O33      1.0000 0.42290  0.57030  0.22710  Biso   1.000  O
  O34      1.0000 0.11000  0.56200  0.06800  Biso   1.000  O
  O35      1.0000 0.27420  0.38770  0.20470  Biso   1.000  O
  O36      1.0000 0.25870  0.22590  0.24890  Biso   1.000  O
  O37      1.0000 0.11610  0.54070  0.22580  Biso   1.000  O
  O38      1.0000 0.21160  0.68500  0.04320  Biso   1.000  O
  C10      1.0000 0.26950  0.51280  0.43630  Biso   1.000  C
  H13      1.0000 0.21100  0.48110  0.41220  Biso   1.000  H
  C11      1.0000 0.23330  0.31580  0.23490  Biso   1.000  C
  H14      1.0000 0.17550  0.33160  0.24900  Biso   1.000  H
  C12      1.0000 0.07490  0.52010  0.13400  Biso   1.000  C
  H15      1.0000 0.02240  0.47680  0.11600  Biso   1.000  H
  O39      1.0000 0.11500  0.48700  0.06900  Biso   1.000  O
  O40      1.0000 0.30510  0.70120  0.06900  Biso   1.000  O
  H16      1.0000 0.31480  0.76120  0.01790  Biso   1.000  H
  Er5      1.0000 0.76389  0.93265  0.67952  Biso   1.000  Er
  O41      1.0000 0.80410  0.98530  0.03290  Biso   1.000  O
  O42      1.0000 0.80760  0.94890  0.86650  Biso   1.000  O
  O43      1.0000 0.92290  0.92970  0.72710  Biso   1.000  O
  O44      1.0000 0.61000  0.93800  0.56800  Biso   1.000  O
  O45      1.0000 0.77420  0.11230  0.70470  Biso   1.000  O
  O46      1.0000 0.75870  0.27410  0.74890  Biso   1.000  O
  O47      1.0000 0.61610  0.95930  0.72580  Biso   1.000  O
  O48      1.0000 0.71160  0.81500  0.54320  Biso   1.000  O
  C13      1.0000 0.76950  0.98720  0.93630  Biso   1.000  C
  H17      1.0000 0.71100  0.01890  0.91220  Biso   1.000  H
  C14      1.0000 0.73330  0.18420  0.73490  Biso   1.000  C
  H18      1.0000 0.67550  0.16840  0.74900  Biso   1.000  H
  C15      1.0000 0.57490  0.97990  0.63400  Biso   1.000  C
  H19      1.0000 0.52240  0.02320  0.61600  Biso   1.000  H
  O49      1.0000 0.61500  0.01300  0.56900  Biso   1.000  O
  O50      1.0000 0.80510  0.79880  0.56900  Biso   1.000  O
  H20      1.0000 0.81480  0.73880  0.51790  Biso   1.000  H
  Er6      1.0000 0.26389  0.43265  0.67952  Biso   1.000  Er
  O51      1.0000 0.30410  0.48530  0.03290  Biso   1.000  O
  O52      1.0000 0.30760  0.44890  0.86650  Biso   1.000  O
  O53      1.0000 0.42290  0.42970  0.72710  Biso   1.000  O
  O54      1.0000 0.11000  0.43800  0.56800  Biso   1.000  O
  O55      1.0000 0.27420  0.61230  0.70470  Biso   1.000  O
  O56      1.0000 0.25870  0.77410  0.74890  Biso   1.000  O
  O57      1.0000 0.11610  0.45930  0.72580  Biso   1.000  O
  O58      1.0000 0.21160  0.31500  0.54320  Biso   1.000  O
  C16      1.0000 0.26950  0.48720  0.93630  Biso   1.000  C
  H21      1.0000 0.21100  0.51890  0.91220  Biso   1.000  H
  C17      1.0000 0.23330  0.68420  0.73490  Biso   1.000  C
  H22      1.0000 0.17550  0.66840  0.74900  Biso   1.000  H
  C18      1.0000 0.07490  0.47990  0.63400  Biso   1.000  C
  H23      1.0000 0.02240  0.52320  0.61600  Biso   1.000  H
  O59      1.0000 0.11500  0.51300  0.56900  Biso   1.000  O
  O60      1.0000 0.30510  0.29880  0.56900  Biso   1.000  O
  H24      1.0000 0.31480  0.23880  0.51790  Biso   1.000  H
  Er7      1.0000 0.23611  0.93265  0.82048  Biso   1.000  Er
  O61      1.0000 0.19590  0.98530  0.46710  Biso   1.000  O
  O62      1.0000 0.19240  0.94890  0.63350  Biso   1.000  O
  O63      1.0000 0.07710  0.92970  0.77290  Biso   1.000  O
  O64      1.0000 0.39000  0.93800  0.93200  Biso   1.000  O
  O65      1.0000 0.22580  0.11230  0.79530  Biso   1.000  O
  O66      1.0000 0.24130  0.27410  0.75110  Biso   1.000  O
  O67      1.0000 0.38390  0.95930  0.77420  Biso   1.000  O
  O68      1.0000 0.28840  0.81500  0.95680  Biso   1.000  O
  C19      1.0000 0.23050  0.98720  0.56370  Biso   1.000  C
  H25      1.0000 0.28900  0.01890  0.58780  Biso   1.000  H
  C20      1.0000 0.26670  0.18420  0.76510  Biso   1.000  C
  H26      1.0000 0.32450  0.16840  0.75100  Biso   1.000  H
  C21      1.0000 0.42510  0.97990  0.86600  Biso   1.000  C
  H27      1.0000 0.47760  0.02320  0.88400  Biso   1.000  H
  O69      1.0000 0.38500  0.01300  0.93100  Biso   1.000  O
  O70      1.0000 0.19490  0.79880  0.93100  Biso   1.000  O
  H28      1.0000 0.18520  0.73880  0.98210  Biso   1.000  H
  Er8      1.0000 0.73611  0.43265  0.82048  Biso   1.000  Er
  O71      1.0000 0.69590  0.48530  0.46710  Biso   1.000  O
  O72      1.0000 0.69240  0.44890  0.63350  Biso   1.000  O
  O73      1.0000 0.57710  0.42970  0.77290  Biso   1.000  O
  O74      1.0000 0.89000  0.43800  0.93200  Biso   1.000  O
  O75      1.0000 0.72580  0.61230  0.79530  Biso   1.000  O
  O76      1.0000 0.74130  0.77410  0.75110  Biso   1.000  O
  O77      1.0000 0.88390  0.45930  0.77420  Biso   1.000  O
  O78      1.0000 0.78840  0.31500  0.95680  Biso   1.000  O
  C22      1.0000 0.73050  0.48720  0.56370  Biso   1.000  C
  H29      1.0000 0.78900  0.51890  0.58780  Biso   1.000  H
  C23      1.0000 0.76670  0.68420  0.76510  Biso   1.000  C
  H30      1.0000 0.82450  0.66840  0.75100  Biso   1.000  H
  C24      1.0000 0.92510  0.47990  0.86600  Biso   1.000  C
  H31      1.0000 0.97760  0.52320  0.88400  Biso   1.000  H
  O79      1.0000 0.88500  0.51300  0.93100  Biso   1.000  O
  O80      1.0000 0.69490  0.29880  0.93100  Biso   1.000  O
  H32      1.0000 0.68520  0.23880  0.98210  Biso   1.000  H
  C25      1.0000 0.00000  0.10800  0.25000  Biso   1.000  C
  H33      1.0000 0.00000  0.17990  0.25000  Biso   1.000  H
  C26      1.0000 0.50000  0.60800  0.25000  Biso   1.000  C
  H34      1.0000 0.50000  0.67990  0.25000  Biso   1.000  H
  C27      1.0000 0.00000  0.89200  0.75000  Biso   1.000  C
  H35      1.0000 0.00000  0.82010  0.75000  Biso   1.000  H
  C28      1.0000 0.50000  0.39200  0.75000  Biso   1.000  C
  H36      1.0000 0.50000  0.32010  0.75000  Biso   1.000  H
  C29      1.0000 0.25000  0.25000  0.50000  Biso   1.000  C
  C30      1.0000 0.75000  0.25000  0.00000  Biso   1.000  C
  C31      1.0000 0.75000  0.75000  0.50000  Biso   1.000  C
  C32      1.0000 0.25000  0.75000  0.00000  Biso   1.000  C
