data_image0
_cell_length_a       14.7325
_cell_length_b       12.999
_cell_length_c       12.7787
_cell_angle_alpha    90
_cell_angle_beta     104.975
_cell_angle_gamma    90

_symmetry_space_group_name_H-M    "P 1"
_symmetry_int_tables_number       1

loop_
  _symmetry_equiv_pos_as_xyz
  'x, y, z'

loop_
  _atom_site_label
  _atom_site_occupancy
  _atom_site_fract_x
  _atom_site_fract_y
  _atom_site_fract_z
  _atom_site_thermal_displace_type
  _atom_site_B_iso_or_equiv
  _atom_site_type_symbol
  Er1      1.0000 0.23523  0.06807  0.81115  Biso   1.000  Er
  O1       1.0000 0.38380  0.04740  0.76780  Biso   1.000  O
  O2       1.0000 0.38350  0.02300  0.93070  Biso   1.000  O
  O3       1.0000 0.20670  0.19050  0.93150  Biso   1.000  O
  O4       1.0000 0.18740  0.05730  0.62030  Biso   1.000  O
  O5       1.0000 0.18780  0.01800  0.45240  Biso   1.000  O
  O6       1.0000 0.25650  0.22890  0.74540  Biso   1.000  O
  O7       1.0000 0.27320  0.39420  0.72490  Biso   1.000  O
  O8       1.0000 0.07620  0.08580  0.76790  Biso   1.000  O
  C1       1.0000 0.42390  0.02320  0.86080  Biso   1.000  C
  H1       1.0000 0.48700  0.00460  0.87730  Biso   1.000  H
  C2       1.0000 0.22350  0.01750  0.55320  Biso   1.000  C
  H2       1.0000 0.28120  0.98480  0.57890  Biso   1.000  H
  C3       1.0000 0.22980  0.31820  0.74030  Biso   1.000  C
  H3       1.0000 0.16990  0.32950  0.74910  Biso   1.000  H
  O9       1.0000 0.22240  0.31960  0.04640  Biso   1.000  O
  H4       1.0000 0.18470  0.26600  0.97300  Biso   1.000  H
  Er2      1.0000 0.73523  0.56807  0.81115  Biso   1.000  Er
  O10      1.0000 0.88380  0.54740  0.76780  Biso   1.000  O
  O11      1.0000 0.88350  0.52300  0.93070  Biso   1.000  O
  O12      1.0000 0.70670  0.69050  0.93150  Biso   1.000  O
  O13      1.0000 0.68740  0.55730  0.62030  Biso   1.000  O
  O14      1.0000 0.68780  0.51800  0.45240  Biso   1.000  O
  O15      1.0000 0.75650  0.72890  0.74540  Biso   1.000  O
  O16      1.0000 0.77320  0.89420  0.72490  Biso   1.000  O
  O17      1.0000 0.57620  0.58580  0.76790  Biso   1.000  O
  C4       1.0000 0.92390  0.52320  0.86080  Biso   1.000  C
  H5       1.0000 0.98700  0.50460  0.87730  Biso   1.000  H
  C5       1.0000 0.72350  0.51750  0.55320  Biso   1.000  C
  H6       1.0000 0.78120  0.48480  0.57890  Biso   1.000  H
  C6       1.0000 0.72980  0.81820  0.74030  Biso   1.000  C
  H7       1.0000 0.66990  0.82950  0.74910  Biso   1.000  H
  O18      1.0000 0.72240  0.81960  0.04640  Biso   1.000  O
  H8       1.0000 0.68470  0.76600  0.97300  Biso   1.000  H
  Er3      1.0000 0.76477  0.06807  0.68885  Biso   1.000  Er
  O19      1.0000 0.61620  0.04740  0.73220  Biso   1.000  O
  O20      1.0000 0.61650  0.02300  0.56930  Biso   1.000  O
  O21      1.0000 0.79330  0.19050  0.56850  Biso   1.000  O
  O22      1.0000 0.81260  0.05730  0.87970  Biso   1.000  O
  O23      1.0000 0.81220  0.01800  0.04760  Biso   1.000  O
  O24      1.0000 0.74350  0.22890  0.75460  Biso   1.000  O
  O25      1.0000 0.72680  0.39420  0.77510  Biso   1.000  O
  O26      1.0000 0.92380  0.08580  0.73210  Biso   1.000  O
  C7       1.0000 0.57610  0.02320  0.63920  Biso   1.000  C
  H9       1.0000 0.51300  0.00460  0.62270  Biso   1.000  H
  C8       1.0000 0.77650  0.01750  0.94680  Biso   1.000  C
  H10      1.0000 0.71880  0.98480  0.92110  Biso   1.000  H
  C9       1.0000 0.77020  0.31820  0.75970  Biso   1.000  C
  H11      1.0000 0.83010  0.32950  0.75090  Biso   1.000  H
  O27      1.0000 0.77760  0.31960  0.45360  Biso   1.000  O
  H12      1.0000 0.81530  0.26600  0.52700  Biso   1.000  H
  Er4      1.0000 0.26477  0.56807  0.68885  Biso   1.000  Er
  O28      1.0000 0.11620  0.54740  0.73220  Biso   1.000  O
  O29      1.0000 0.11650  0.52300  0.56930  Biso   1.000  O
  O30      1.0000 0.29330  0.69050  0.56850  Biso   1.000  O
  O31      1.0000 0.31260  0.55730  0.87970  Biso   1.000  O
  O32      1.0000 0.31220  0.51800  0.04760  Biso   1.000  O
  O33      1.0000 0.24350  0.72890  0.75460  Biso   1.000  O
  O34      1.0000 0.22680  0.89420  0.77510  Biso   1.000  O
  O35      1.0000 0.42380  0.58580  0.73210  Biso   1.000  O
  C10      1.0000 0.07610  0.52320  0.63920  Biso   1.000  C
  H13      1.0000 0.01300  0.50460  0.62270  Biso   1.000  H
  C11      1.0000 0.27650  0.51750  0.94680  Biso   1.000  C
  H14      1.0000 0.21880  0.48480  0.92110  Biso   1.000  H
  C12      1.0000 0.27020  0.81820  0.75970  Biso   1.000  C
  H15      1.0000 0.33010  0.82950  0.75090  Biso   1.000  H
  O36      1.0000 0.27760  0.81960  0.45360  Biso   1.000  O
  H16      1.0000 0.31530  0.76600  0.52700  Biso   1.000  H
  Er5      1.0000 0.76477  0.93193  0.18885  Biso   1.000  Er
  O37      1.0000 0.61620  0.95260  0.23220  Biso   1.000  O
  O38      1.0000 0.61650  0.97700  0.06930  Biso   1.000  O
  O39      1.0000 0.79330  0.80950  0.06850  Biso   1.000  O
  O40      1.0000 0.81260  0.94270  0.37970  Biso   1.000  O
  O41      1.0000 0.81220  0.98200  0.54760  Biso   1.000  O
  O42      1.0000 0.74350  0.77110  0.25460  Biso   1.000  O
  O43      1.0000 0.72680  0.60580  0.27510  Biso   1.000  O
  O44      1.0000 0.92380  0.91420  0.23210  Biso   1.000  O
  C13      1.0000 0.57610  0.97680  0.13920  Biso   1.000  C
  H17      1.0000 0.51300  0.99540  0.12270  Biso   1.000  H
  C14      1.0000 0.77650  0.98250  0.44680  Biso   1.000  C
  H18      1.0000 0.71880  0.01520  0.42110  Biso   1.000  H
  C15      1.0000 0.77020  0.68180  0.25970  Biso   1.000  C
  H19      1.0000 0.83010  0.67050  0.25090  Biso   1.000  H
  O45      1.0000 0.77760  0.68040  0.95360  Biso   1.000  O
  H20      1.0000 0.81530  0.73400  0.02700  Biso   1.000  H
  Er6      1.0000 0.26477  0.43193  0.18885  Biso   1.000  Er
  O46      1.0000 0.11620  0.45260  0.23220  Biso   1.000  O
  O47      1.0000 0.11650  0.47700  0.06930  Biso   1.000  O
  O48      1.0000 0.29330  0.30950  0.06850  Biso   1.000  O
  O49      1.0000 0.31260  0.44270  0.37970  Biso   1.000  O
  O50      1.0000 0.31220  0.48200  0.54760  Biso   1.000  O
  O51      1.0000 0.24350  0.27110  0.25460  Biso   1.000  O
  O52      1.0000 0.22680  0.10580  0.27510  Biso   1.000  O
  O53      1.0000 0.42380  0.41420  0.23210  Biso   1.000  O
  C16      1.0000 0.07610  0.47680  0.13920  Biso   1.000  C
  H21      1.0000 0.01300  0.49540  0.12270  Biso   1.000  H
  C17      1.0000 0.27650  0.48250  0.44680  Biso   1.000  C
  H22      1.0000 0.21880  0.51520  0.42110  Biso   1.000  H
  C18      1.0000 0.27020  0.18180  0.25970  Biso   1.000  C
  H23      1.0000 0.33010  0.17050  0.25090  Biso   1.000  H
  O54      1.0000 0.27760  0.18040  0.95360  Biso   1.000  O
  H24      1.0000 0.31530  0.23400  0.02700  Biso   1.000  H
  Er7      1.0000 0.23523  0.93193  0.31115  Biso   1.000  Er
  O55      1.0000 0.38380  0.95260  0.26780  Biso   1.000  O
  O56      1.0000 0.38350  0.97700  0.43070  Biso   1.000  O
  O57      1.0000 0.20670  0.80950  0.43150  Biso   1.000  O
  O58      1.0000 0.18740  0.94270  0.12030  Biso   1.000  O
  O59      1.0000 0.18780  0.98200  0.95240  Biso   1.000  O
  O60      1.0000 0.25650  0.77110  0.24540  Biso   1.000  O
  O61      1.0000 0.27320  0.60580  0.22490  Biso   1.000  O
  O62      1.0000 0.07620  0.91420  0.26790  Biso   1.000  O
  C19      1.0000 0.42390  0.97680  0.36080  Biso   1.000  C
  H25      1.0000 0.48700  0.99540  0.37730  Biso   1.000  H
  C20      1.0000 0.22350  0.98250  0.05320  Biso   1.000  C
  H26      1.0000 0.28120  0.01520  0.07890  Biso   1.000  H
  C21      1.0000 0.22980  0.68180  0.24030  Biso   1.000  C
  H27      1.0000 0.16990  0.67050  0.24910  Biso   1.000  H
  O63      1.0000 0.22240  0.68040  0.54640  Biso   1.000  O
  H28      1.0000 0.18470  0.73400  0.47300  Biso   1.000  H
  Er8      1.0000 0.73523  0.43193  0.31115  Biso   1.000  Er
  O64      1.0000 0.88380  0.45260  0.26780  Biso   1.000  O
  O65      1.0000 0.88350  0.47700  0.43070  Biso   1.000  O
  O66      1.0000 0.70670  0.30950  0.43150  Biso   1.000  O
  O67      1.0000 0.68740  0.44270  0.12030  Biso   1.000  O
  O68      1.0000 0.68780  0.48200  0.95240  Biso   1.000  O
  O69      1.0000 0.75650  0.27110  0.24540  Biso   1.000  O
  O70      1.0000 0.77320  0.10580  0.22490  Biso   1.000  O
  O71      1.0000 0.57620  0.41420  0.26790  Biso   1.000  O
  C22      1.0000 0.92390  0.47680  0.36080  Biso   1.000  C
  H29      1.0000 0.98700  0.49540  0.37730  Biso   1.000  H
  C23      1.0000 0.72350  0.48250  0.05320  Biso   1.000  C
  H30      1.0000 0.78120  0.51520  0.07890  Biso   1.000  H
  C24      1.0000 0.72980  0.18180  0.24030  Biso   1.000  C
  H31      1.0000 0.66990  0.17050  0.24910  Biso   1.000  H
  O72      1.0000 0.72240  0.18040  0.54640  Biso   1.000  O
  H32      1.0000 0.68470  0.23400  0.47300  Biso   1.000  H
  C25      1.0000 0.25000  0.25000  0.00000  Biso   1.000  C
  C26      1.0000 0.75000  0.25000  0.50000  Biso   1.000  C
  C27      1.0000 0.75000  0.75000  0.00000  Biso   1.000  C
  C28      1.0000 0.25000  0.75000  0.50000  Biso   1.000  C
  C29      1.0000 0.00000  0.12630  0.75000  Biso   1.000  C
  H33      1.0000 0.00000  0.19780  0.75000  Biso   1.000  H
  C30      1.0000 0.50000  0.62630  0.75000  Biso   1.000  C
  H34      1.0000 0.50000  0.69780  0.75000  Biso   1.000  H
  C31      1.0000 0.00000  0.87370  0.25000  Biso   1.000  C
  H35      1.0000 0.00000  0.80220  0.25000  Biso   1.000  H
  C32      1.0000 0.50000  0.37370  0.25000  Biso   1.000  C
  H36      1.0000 0.50000  0.30220  0.25000  Biso   1.000  H
