data_image0
_cell_length_a       21.4745
_cell_length_b       7.4295
_cell_length_c       26.173
_cell_angle_alpha    90
_cell_angle_beta     127.366
_cell_angle_gamma    90

_symmetry_space_group_name_H-M    "P 1"
_symmetry_int_tables_number       1

loop_
  _symmetry_equiv_pos_as_xyz
  'x, y, z'

loop_
  _atom_site_label
  _atom_site_occupancy
  _atom_site_fract_x
  _atom_site_fract_y
  _atom_site_fract_z
  _atom_site_thermal_displace_type
  _atom_site_B_iso_or_equiv
  _atom_site_type_symbol
  Ba1      1.0000 0.54553  0.20736  0.73378  Biso   1.000  Ba
  Ba2      1.0000 0.04870  0.97090  0.31093  Biso   1.000  Ba
  F1       1.0000 0.35904  0.46860  0.51315  Biso   1.000  F
  F2       1.0000 0.23839  0.48570  0.38998  Biso   1.000  F
  F3       1.0000 0.06587  0.42920  0.44316  Biso   1.000  F
  F4       1.0000 0.18585  0.42520  0.56698  Biso   1.000  F
  F5       1.0000 0.27083  0.11780  0.65661  Biso   1.000  F
  F6       1.0000 0.14422  0.15050  0.64894  Biso   1.000  F
  F7       1.0000 0.29770  0.35780  0.86381  Biso   1.000  F
  F8       1.0000 0.42256  0.33980  0.86864  Biso   1.000  F
  O1       1.0000 0.40150  0.34310  0.63339  Biso   1.000  O
  O2       1.0000 0.34410  0.56240  0.64992  Biso   1.000  O
  O3       1.0000 0.07050  0.61210  0.31403  Biso   1.000  O
  O4       1.0000 0.03560  0.33380  0.31744  Biso   1.000  O
  O5       1.0000 0.46982  0.34320  0.78682  Biso   1.000  O
  O6       1.0000 0.43480  0.06610  0.74890  Biso   1.000  O
  O7       1.0000 0.13800  0.39460  0.78160  Biso   1.000  O
  O8       1.0000 0.09140  0.14690  0.72140  Biso   1.000  O
  C1       1.0000 0.34780  0.45080  0.61640  Biso   1.000  C
  C2       1.0000 0.27740  0.44720  0.54540  Biso   1.000  C
  C3       1.0000 0.28690  0.45900  0.49730  Biso   1.000  C
  C4       1.0000 0.22420  0.46720  0.43350  Biso   1.000  C
  C5       1.0000 0.14820  0.45710  0.41250  Biso   1.000  C
  C6       1.0000 0.13870  0.43920  0.46000  Biso   1.000  C
  C7       1.0000 0.20100  0.43820  0.52420  Biso   1.000  C
  C8       1.0000 0.07920  0.46890  0.34260  Biso   1.000  C
  C9       1.0000 0.42480  0.21180  0.76640  Biso   1.000  C
  C10      1.0000 0.35190  0.22820  0.76320  Biso   1.000  C
  C11      1.0000 0.27900  0.17940  0.70830  Biso   1.000  C
  C12      1.0000 0.21270  0.19360  0.70530  Biso   1.000  C
  C13      1.0000 0.21450  0.25450  0.75620  Biso   1.000  C
  C14      1.0000 0.28780  0.30200  0.81080  Biso   1.000  C
  C15      1.0000 0.35430  0.29160  0.81350  Biso   1.000  C
  C16      1.0000 0.14130  0.26700  0.75350  Biso   1.000  C
  O9       1.0000 0.02410  0.95200  0.40430  Biso   1.000  O
  C17      1.0000 0.06470  0.00640  0.47080  Biso   1.000  C
  H1       1.0000 0.03530  0.09450  0.47570  Biso   1.000  H
  H2       1.0000 0.11700  0.05150  0.48990  Biso   1.000  H
  C18      1.0000 0.06600  0.82230  0.49730  Biso   1.000  C
  H3       1.0000 0.09180  0.83190  0.54260  Biso   1.000  H
  H4       1.0000 0.09390  0.73840  0.49000  Biso   1.000  H
  H5       1.0000 0.01330  0.78090  0.47600  Biso   1.000  H
  O10      1.0000 0.06620  0.96900  0.41850  Biso   1.000  O
  C19      1.0000 0.04220  0.84400  0.44490  Biso   1.000  C
  H6       1.0000 0.04000  0.72310  0.43000  Biso   1.000  H
  H7       1.0000 0.99080  0.87560  0.43240  Biso   1.000  H
  C20      1.0000 0.10470  0.85600  0.51930  Biso   1.000  C
  H8       1.0000 0.09120  0.77360  0.53950  Biso   1.000  H
  H9       1.0000 0.10610  0.97620  0.53330  Biso   1.000  H
  H10      1.0000 0.15520  0.82500  0.53090  Biso   1.000  H
  Ba3      1.0000 0.45447  0.70736  0.76622  Biso   1.000  Ba
  Ba4      1.0000 0.95130  0.47090  0.18907  Biso   1.000  Ba
  F9       1.0000 0.64096  0.96860  0.98685  Biso   1.000  F
  F10      1.0000 0.76161  0.98570  0.11002  Biso   1.000  F
  F11      1.0000 0.93413  0.92920  0.05684  Biso   1.000  F
  F12      1.0000 0.81415  0.92520  0.93302  Biso   1.000  F
  F13      1.0000 0.72917  0.61780  0.84339  Biso   1.000  F
  F14      1.0000 0.85578  0.65050  0.85106  Biso   1.000  F
  F15      1.0000 0.70230  0.85780  0.63619  Biso   1.000  F
  F16      1.0000 0.57744  0.83980  0.63136  Biso   1.000  F
  O11      1.0000 0.59850  0.84310  0.86661  Biso   1.000  O
  O12      1.0000 0.65590  0.06240  0.85008  Biso   1.000  O
  O13      1.0000 0.92950  0.11210  0.18597  Biso   1.000  O
  O14      1.0000 0.96440  0.83380  0.18256  Biso   1.000  O
  O15      1.0000 0.53018  0.84320  0.71318  Biso   1.000  O
  O16      1.0000 0.56520  0.56610  0.75110  Biso   1.000  O
  O17      1.0000 0.86200  0.89460  0.71840  Biso   1.000  O
  O18      1.0000 0.90860  0.64690  0.77860  Biso   1.000  O
  C21      1.0000 0.65220  0.95080  0.88360  Biso   1.000  C
  C22      1.0000 0.72260  0.94720  0.95460  Biso   1.000  C
  C23      1.0000 0.71310  0.95900  0.00270  Biso   1.000  C
  C24      1.0000 0.77580  0.96720  0.06650  Biso   1.000  C
  C25      1.0000 0.85180  0.95710  0.08750  Biso   1.000  C
  C26      1.0000 0.86130  0.93920  0.04000  Biso   1.000  C
  C27      1.0000 0.79900  0.93820  0.97580  Biso   1.000  C
  C28      1.0000 0.92080  0.96890  0.15740  Biso   1.000  C
  C29      1.0000 0.57520  0.71180  0.73360  Biso   1.000  C
  C30      1.0000 0.64810  0.72820  0.73680  Biso   1.000  C
  C31      1.0000 0.72100  0.67940  0.79170  Biso   1.000  C
  C32      1.0000 0.78730  0.69360  0.79470  Biso   1.000  C
  C33      1.0000 0.78550  0.75450  0.74380  Biso   1.000  C
  C34      1.0000 0.71220  0.80200  0.68920  Biso   1.000  C
  C35      1.0000 0.64570  0.79160  0.68650  Biso   1.000  C
  C36      1.0000 0.85870  0.76700  0.74650  Biso   1.000  C
  O19      1.0000 0.97590  0.45200  0.09570  Biso   1.000  O
  C37      1.0000 0.93530  0.50640  0.02920  Biso   1.000  C
  H11      1.0000 0.96470  0.59450  0.02430  Biso   1.000  H
  H12      1.0000 0.88300  0.55150  0.01010  Biso   1.000  H
  C38      1.0000 0.93400  0.32230  0.00270  Biso   1.000  C
  H13      1.0000 0.90820  0.33190  0.95740  Biso   1.000  H
  H14      1.0000 0.90610  0.23840  0.01000  Biso   1.000  H
  H15      1.0000 0.98670  0.28090  0.02400  Biso   1.000  H
  O20      1.0000 0.93380  0.46900  0.08150  Biso   1.000  O
  C39      1.0000 0.95780  0.34400  0.05510  Biso   1.000  C
  H16      1.0000 0.96000  0.22310  0.07000  Biso   1.000  H
  H17      1.0000 0.00920  0.37560  0.06760  Biso   1.000  H
  C40      1.0000 0.89530  0.35600  0.98070  Biso   1.000  C
  H18      1.0000 0.90880  0.27360  0.96050  Biso   1.000  H
  H19      1.0000 0.89390  0.47620  0.96670  Biso   1.000  H
  H20      1.0000 0.84480  0.32500  0.96910  Biso   1.000  H
  Ba5      1.0000 0.45447  0.79264  0.26622  Biso   1.000  Ba
  Ba6      1.0000 0.95130  0.02910  0.68907  Biso   1.000  Ba
  F17      1.0000 0.64096  0.53140  0.48685  Biso   1.000  F
  F18      1.0000 0.76161  0.51430  0.61002  Biso   1.000  F
  F19      1.0000 0.93413  0.57080  0.55684  Biso   1.000  F
  F20      1.0000 0.81415  0.57480  0.43302  Biso   1.000  F
  F21      1.0000 0.72917  0.88220  0.34339  Biso   1.000  F
  F22      1.0000 0.85578  0.84950  0.35106  Biso   1.000  F
  F23      1.0000 0.70230  0.64220  0.13619  Biso   1.000  F
  F24      1.0000 0.57744  0.66020  0.13136  Biso   1.000  F
  O21      1.0000 0.59850  0.65690  0.36661  Biso   1.000  O
  O22      1.0000 0.65590  0.43760  0.35008  Biso   1.000  O
  O23      1.0000 0.92950  0.38790  0.68597  Biso   1.000  O
  O24      1.0000 0.96440  0.66620  0.68256  Biso   1.000  O
  O25      1.0000 0.53018  0.65680  0.21318  Biso   1.000  O
  O26      1.0000 0.56520  0.93390  0.25110  Biso   1.000  O
  O27      1.0000 0.86200  0.60540  0.21840  Biso   1.000  O
  O28      1.0000 0.90860  0.85310  0.27860  Biso   1.000  O
  C41      1.0000 0.65220  0.54920  0.38360  Biso   1.000  C
  C42      1.0000 0.72260  0.55280  0.45460  Biso   1.000  C
  C43      1.0000 0.71310  0.54100  0.50270  Biso   1.000  C
  C44      1.0000 0.77580  0.53280  0.56650  Biso   1.000  C
  C45      1.0000 0.85180  0.54290  0.58750  Biso   1.000  C
  C46      1.0000 0.86130  0.56080  0.54000  Biso   1.000  C
  C47      1.0000 0.79900  0.56180  0.47580  Biso   1.000  C
  C48      1.0000 0.92080  0.53110  0.65740  Biso   1.000  C
  C49      1.0000 0.57520  0.78820  0.23360  Biso   1.000  C
  C50      1.0000 0.64810  0.77180  0.23680  Biso   1.000  C
  C51      1.0000 0.72100  0.82060  0.29170  Biso   1.000  C
  C52      1.0000 0.78730  0.80640  0.29470  Biso   1.000  C
  C53      1.0000 0.78550  0.74550  0.24380  Biso   1.000  C
  C54      1.0000 0.71220  0.69800  0.18920  Biso   1.000  C
  C55      1.0000 0.64570  0.70840  0.18650  Biso   1.000  C
  C56      1.0000 0.85870  0.73300  0.24650  Biso   1.000  C
  O29      1.0000 0.97590  0.04800  0.59570  Biso   1.000  O
  C57      1.0000 0.93530  0.99360  0.52920  Biso   1.000  C
  H21      1.0000 0.96470  0.90550  0.52430  Biso   1.000  H
  H22      1.0000 0.88300  0.94850  0.51010  Biso   1.000  H
  C58      1.0000 0.93400  0.17770  0.50270  Biso   1.000  C
  H23      1.0000 0.90820  0.16810  0.45740  Biso   1.000  H
  H24      1.0000 0.90610  0.26160  0.51000  Biso   1.000  H
  H25      1.0000 0.98670  0.21910  0.52400  Biso   1.000  H
  O30      1.0000 0.93380  0.03100  0.58150  Biso   1.000  O
  C59      1.0000 0.95780  0.15600  0.55510  Biso   1.000  C
  H26      1.0000 0.96000  0.27690  0.57000  Biso   1.000  H
  H27      1.0000 0.00920  0.12440  0.56760  Biso   1.000  H
  C60      1.0000 0.89530  0.14400  0.48070  Biso   1.000  C
  H28      1.0000 0.90880  0.22640  0.46050  Biso   1.000  H
  H29      1.0000 0.89390  0.02380  0.46670  Biso   1.000  H
  H30      1.0000 0.84480  0.17500  0.46910  Biso   1.000  H
  Ba7      1.0000 0.54553  0.29264  0.23378  Biso   1.000  Ba
  Ba8      1.0000 0.04870  0.52910  0.81093  Biso   1.000  Ba
  F25      1.0000 0.35904  0.03140  0.01315  Biso   1.000  F
  F26      1.0000 0.23839  0.01430  0.88998  Biso   1.000  F
  F27      1.0000 0.06587  0.07080  0.94316  Biso   1.000  F
  F28      1.0000 0.18585  0.07480  0.06698  Biso   1.000  F
  F29      1.0000 0.27083  0.38220  0.15661  Biso   1.000  F
  F30      1.0000 0.14422  0.34950  0.14894  Biso   1.000  F
  F31      1.0000 0.29770  0.14220  0.36381  Biso   1.000  F
  F32      1.0000 0.42256  0.16020  0.36864  Biso   1.000  F
  O31      1.0000 0.40150  0.15690  0.13339  Biso   1.000  O
  O32      1.0000 0.34410  0.93760  0.14992  Biso   1.000  O
  O33      1.0000 0.07050  0.88790  0.81403  Biso   1.000  O
  O34      1.0000 0.03560  0.16620  0.81744  Biso   1.000  O
  O35      1.0000 0.46982  0.15680  0.28682  Biso   1.000  O
  O36      1.0000 0.43480  0.43390  0.24890  Biso   1.000  O
  O37      1.0000 0.13800  0.10540  0.28160  Biso   1.000  O
  O38      1.0000 0.09140  0.35310  0.22140  Biso   1.000  O
  C61      1.0000 0.34780  0.04920  0.11640  Biso   1.000  C
  C62      1.0000 0.27740  0.05280  0.04540  Biso   1.000  C
  C63      1.0000 0.28690  0.04100  0.99730  Biso   1.000  C
  C64      1.0000 0.22420  0.03280  0.93350  Biso   1.000  C
  C65      1.0000 0.14820  0.04290  0.91250  Biso   1.000  C
  C66      1.0000 0.13870  0.06080  0.96000  Biso   1.000  C
  C67      1.0000 0.20100  0.06180  0.02420  Biso   1.000  C
  C68      1.0000 0.07920  0.03110  0.84260  Biso   1.000  C
  C69      1.0000 0.42480  0.28820  0.26640  Biso   1.000  C
  C70      1.0000 0.35190  0.27180  0.26320  Biso   1.000  C
  C71      1.0000 0.27900  0.32060  0.20830  Biso   1.000  C
  C72      1.0000 0.21270  0.30640  0.20530  Biso   1.000  C
  C73      1.0000 0.21450  0.24550  0.25620  Biso   1.000  C
  C74      1.0000 0.28780  0.19800  0.31080  Biso   1.000  C
  C75      1.0000 0.35430  0.20840  0.31350  Biso   1.000  C
  C76      1.0000 0.14130  0.23300  0.25350  Biso   1.000  C
  O39      1.0000 0.02410  0.54800  0.90430  Biso   1.000  O
  C77      1.0000 0.06470  0.49360  0.97080  Biso   1.000  C
  H31      1.0000 0.03530  0.40550  0.97570  Biso   1.000  H
  H32      1.0000 0.11700  0.44850  0.98990  Biso   1.000  H
  C78      1.0000 0.06600  0.67770  0.99730  Biso   1.000  C
  H33      1.0000 0.09180  0.66810  0.04260  Biso   1.000  H
  H34      1.0000 0.09390  0.76160  0.99000  Biso   1.000  H
  H35      1.0000 0.01330  0.71910  0.97600  Biso   1.000  H
  O40      1.0000 0.06620  0.53100  0.91850  Biso   1.000  O
  C79      1.0000 0.04220  0.65600  0.94490  Biso   1.000  C
  H36      1.0000 0.04000  0.77690  0.93000  Biso   1.000  H
  H37      1.0000 0.99080  0.62440  0.93240  Biso   1.000  H
  C80      1.0000 0.10470  0.64400  0.01930  Biso   1.000  C
  H38      1.0000 0.09120  0.72640  0.03950  Biso   1.000  H
  H39      1.0000 0.10610  0.52380  0.03330  Biso   1.000  H
  H40      1.0000 0.15520  0.67500  0.03090  Biso   1.000  H
