data_image0
_cell_length_a       13.386
_cell_length_b       21.482
_cell_length_c       10.176
_cell_angle_alpha    90
_cell_angle_beta     94.752
_cell_angle_gamma    90

_symmetry_space_group_name_H-M    "P 1"
_symmetry_int_tables_number       1

loop_
  _symmetry_equiv_pos_as_xyz
  'x, y, z'

loop_
  _atom_site_label
  _atom_site_occupancy
  _atom_site_fract_x
  _atom_site_fract_y
  _atom_site_fract_z
  _atom_site_thermal_displace_type
  _atom_site_B_iso_or_equiv
  _atom_site_type_symbol
  Cd1      1.0000 0.51522  0.57310  0.41900  Biso   1.000  Cd
  O1       1.0000 0.00440  0.86616  0.37214  Biso   1.000  O
  C1       1.0000 0.89673  0.78043  0.24654  Biso   1.000  C
  C2       1.0000 0.85720  0.75710  0.12720  Biso   1.000  C
  H1       1.0000 0.88260  0.77000  0.04710  Biso   1.000  H
  C3       1.0000 0.77950  0.71430  0.12690  Biso   1.000  C
  H2       1.0000 0.75280  0.69670  0.04590  Biso   1.000  H
  C4       1.0000 0.74016  0.69696  0.24479  Biso   1.000  C
  C5       1.0000 0.78480  0.72007  0.36250  Biso   1.000  C
  H3       1.0000 0.76130  0.70650  0.44330  Biso   1.000  H
  C6       1.0000 0.86300  0.76264  0.36530  Biso   1.000  C
  H4       1.0000 0.89230  0.77890  0.44630  Biso   1.000  H
  C7       1.0000 0.65243  0.65289  0.24625  Biso   1.000  C
  O2       1.0000 0.62065  0.62974  0.13743  Biso   1.000  O
  O3       1.0000 0.61986  0.64348  0.35720  Biso   1.000  O
  O4       1.0000 0.00492  0.28242  0.12808  Biso   1.000  O
  C8       1.0000 0.10519  0.36581  0.26844  Biso   1.000  C
  C9       1.0000 0.13875  0.38825  0.39254  Biso   1.000  C
  H5       1.0000 0.10400  0.37810  0.46740  Biso   1.000  H
  C10      1.0000 0.22332  0.42561  0.40586  Biso   1.000  C
  H6       1.0000 0.24740  0.44080  0.49030  Biso   1.000  H
  C11      1.0000 0.27308  0.44084  0.29507  Biso   1.000  C
  C12      1.0000 0.23793  0.41879  0.17107  Biso   1.000  C
  H7       1.0000 0.27180  0.42950  0.09580  Biso   1.000  H
  C13      1.0000 0.15385  0.38131  0.15740  Biso   1.000  C
  H8       1.0000 0.12950  0.36630  0.07300  Biso   1.000  H
  C14      1.0000 0.36325  0.48288  0.30633  Biso   1.000  C
  O5       1.0000 0.40942  0.49072  0.42103  Biso   1.000  O
  O6       1.0000 0.38609  0.50926  0.20491  Biso   1.000  O
  C15      1.0000 0.88370  0.73450  0.14680  Biso   1.000  C
  H9       1.0000 0.92870  0.73170  0.07960  Biso   1.000  H
  C16      1.0000 0.80270  0.69330  0.14980  Biso   1.000  C
  H10      1.0000 0.79230  0.66230  0.08330  Biso   1.000  H
  C17      1.0000 0.74910  0.74410  0.34130  Biso   1.000  C
  H11      1.0000 0.70090  0.74790  0.40430  Biso   1.000  H
  C18      1.0000 0.82930  0.78460  0.34280  Biso   1.000  C
  H12      1.0000 0.83830  0.81540  0.40970  Biso   1.000  H
  Cd2      1.0000 0.48478  0.57310  0.08100  Biso   1.000  Cd
  O7       1.0000 0.99560  0.86616  0.12786  Biso   1.000  O
  C19      1.0000 0.10327  0.78043  0.25346  Biso   1.000  C
  C20      1.0000 0.14280  0.75710  0.37280  Biso   1.000  C
  H13      1.0000 0.11740  0.77000  0.45290  Biso   1.000  H
  C21      1.0000 0.22050  0.71430  0.37310  Biso   1.000  C
  H14      1.0000 0.24720  0.69670  0.45410  Biso   1.000  H
  C22      1.0000 0.25984  0.69696  0.25521  Biso   1.000  C
  C23      1.0000 0.21520  0.72007  0.13750  Biso   1.000  C
  H15      1.0000 0.23870  0.70650  0.05670  Biso   1.000  H
  C24      1.0000 0.13700  0.76264  0.13470  Biso   1.000  C
  H16      1.0000 0.10770  0.77890  0.05370  Biso   1.000  H
  C25      1.0000 0.34757  0.65289  0.25375  Biso   1.000  C
  O8       1.0000 0.37935  0.62974  0.36257  Biso   1.000  O
  O9       1.0000 0.38014  0.64348  0.14280  Biso   1.000  O
  O10      1.0000 0.99508  0.28242  0.37192  Biso   1.000  O
  C26      1.0000 0.89481  0.36581  0.23156  Biso   1.000  C
  C27      1.0000 0.86125  0.38825  0.10746  Biso   1.000  C
  H17      1.0000 0.89600  0.37810  0.03260  Biso   1.000  H
  C28      1.0000 0.77668  0.42561  0.09414  Biso   1.000  C
  H18      1.0000 0.75260  0.44080  0.00970  Biso   1.000  H
  C29      1.0000 0.72692  0.44084  0.20493  Biso   1.000  C
  C30      1.0000 0.76207  0.41879  0.32893  Biso   1.000  C
  H19      1.0000 0.72820  0.42950  0.40420  Biso   1.000  H
  C31      1.0000 0.84615  0.38131  0.34260  Biso   1.000  C
  H20      1.0000 0.87050  0.36630  0.42700  Biso   1.000  H
  C32      1.0000 0.63675  0.48288  0.19367  Biso   1.000  C
  O11      1.0000 0.59058  0.49072  0.07897  Biso   1.000  O
  O12      1.0000 0.61391  0.50926  0.29509  Biso   1.000  O
  C33      1.0000 0.11630  0.73450  0.35320  Biso   1.000  C
  H21      1.0000 0.07130  0.73170  0.42040  Biso   1.000  H
  C34      1.0000 0.19730  0.69330  0.35020  Biso   1.000  C
  H22      1.0000 0.20770  0.66230  0.41670  Biso   1.000  H
  C35      1.0000 0.25090  0.74410  0.15870  Biso   1.000  C
  H23      1.0000 0.29910  0.74790  0.09570  Biso   1.000  H
  C36      1.0000 0.17070  0.78460  0.15720  Biso   1.000  C
  H24      1.0000 0.16170  0.81540  0.09030  Biso   1.000  H
  Cd3      1.0000 0.48478  0.42690  0.58100  Biso   1.000  Cd
  O13      1.0000 0.99560  0.13384  0.62786  Biso   1.000  O
  C37      1.0000 0.10327  0.21957  0.75346  Biso   1.000  C
  C38      1.0000 0.14280  0.24290  0.87280  Biso   1.000  C
  H25      1.0000 0.11740  0.23000  0.95290  Biso   1.000  H
  C39      1.0000 0.22050  0.28570  0.87310  Biso   1.000  C
  H26      1.0000 0.24720  0.30330  0.95410  Biso   1.000  H
  C40      1.0000 0.25984  0.30304  0.75521  Biso   1.000  C
  C41      1.0000 0.21520  0.27993  0.63750  Biso   1.000  C
  H27      1.0000 0.23870  0.29350  0.55670  Biso   1.000  H
  C42      1.0000 0.13700  0.23736  0.63470  Biso   1.000  C
  H28      1.0000 0.10770  0.22110  0.55370  Biso   1.000  H
  C43      1.0000 0.34757  0.34711  0.75375  Biso   1.000  C
  O14      1.0000 0.37935  0.37026  0.86257  Biso   1.000  O
  O15      1.0000 0.38014  0.35652  0.64280  Biso   1.000  O
  O16      1.0000 0.99508  0.71758  0.87192  Biso   1.000  O
  C44      1.0000 0.89481  0.63419  0.73156  Biso   1.000  C
  C45      1.0000 0.86125  0.61175  0.60746  Biso   1.000  C
  H29      1.0000 0.89600  0.62190  0.53260  Biso   1.000  H
  C46      1.0000 0.77668  0.57439  0.59414  Biso   1.000  C
  H30      1.0000 0.75260  0.55920  0.50970  Biso   1.000  H
  C47      1.0000 0.72692  0.55916  0.70493  Biso   1.000  C
  C48      1.0000 0.76207  0.58121  0.82893  Biso   1.000  C
  H31      1.0000 0.72820  0.57050  0.90420  Biso   1.000  H
  C49      1.0000 0.84615  0.61869  0.84260  Biso   1.000  C
  H32      1.0000 0.87050  0.63370  0.92700  Biso   1.000  H
  C50      1.0000 0.63675  0.51712  0.69367  Biso   1.000  C
  O17      1.0000 0.59058  0.50928  0.57897  Biso   1.000  O
  O18      1.0000 0.61391  0.49074  0.79509  Biso   1.000  O
  C51      1.0000 0.11630  0.26550  0.85320  Biso   1.000  C
  H33      1.0000 0.07130  0.26830  0.92040  Biso   1.000  H
  C52      1.0000 0.19730  0.30670  0.85020  Biso   1.000  C
  H34      1.0000 0.20770  0.33770  0.91670  Biso   1.000  H
  C53      1.0000 0.25090  0.25590  0.65870  Biso   1.000  C
  H35      1.0000 0.29910  0.25210  0.59570  Biso   1.000  H
  C54      1.0000 0.17070  0.21540  0.65720  Biso   1.000  C
  H36      1.0000 0.16170  0.18460  0.59030  Biso   1.000  H
  Cd4      1.0000 0.51522  0.42690  0.91900  Biso   1.000  Cd
  O19      1.0000 0.00440  0.13384  0.87214  Biso   1.000  O
  C55      1.0000 0.89673  0.21957  0.74654  Biso   1.000  C
  C56      1.0000 0.85720  0.24290  0.62720  Biso   1.000  C
  H37      1.0000 0.88260  0.23000  0.54710  Biso   1.000  H
  C57      1.0000 0.77950  0.28570  0.62690  Biso   1.000  C
  H38      1.0000 0.75280  0.30330  0.54590  Biso   1.000  H
  C58      1.0000 0.74016  0.30304  0.74479  Biso   1.000  C
  C59      1.0000 0.78480  0.27993  0.86250  Biso   1.000  C
  H39      1.0000 0.76130  0.29350  0.94330  Biso   1.000  H
  C60      1.0000 0.86300  0.23736  0.86530  Biso   1.000  C
  H40      1.0000 0.89230  0.22110  0.94630  Biso   1.000  H
  C61      1.0000 0.65243  0.34711  0.74625  Biso   1.000  C
  O20      1.0000 0.62065  0.37026  0.63743  Biso   1.000  O
  O21      1.0000 0.61986  0.35652  0.85720  Biso   1.000  O
  O22      1.0000 0.00492  0.71758  0.62808  Biso   1.000  O
  C62      1.0000 0.10519  0.63419  0.76844  Biso   1.000  C
  C63      1.0000 0.13875  0.61175  0.89254  Biso   1.000  C
  H41      1.0000 0.10400  0.62190  0.96740  Biso   1.000  H
  C64      1.0000 0.22332  0.57439  0.90586  Biso   1.000  C
  H42      1.0000 0.24740  0.55920  0.99030  Biso   1.000  H
  C65      1.0000 0.27308  0.55916  0.79507  Biso   1.000  C
  C66      1.0000 0.23793  0.58121  0.67107  Biso   1.000  C
  H43      1.0000 0.27180  0.57050  0.59580  Biso   1.000  H
  C67      1.0000 0.15385  0.61869  0.65740  Biso   1.000  C
  H44      1.0000 0.12950  0.63370  0.57300  Biso   1.000  H
  C68      1.0000 0.36325  0.51712  0.80633  Biso   1.000  C
  O23      1.0000 0.40942  0.50928  0.92103  Biso   1.000  O
  O24      1.0000 0.38609  0.49074  0.70491  Biso   1.000  O
  C69      1.0000 0.88370  0.26550  0.64680  Biso   1.000  C
  H45      1.0000 0.92870  0.26830  0.57960  Biso   1.000  H
  C70      1.0000 0.80270  0.30670  0.64980  Biso   1.000  C
  H46      1.0000 0.79230  0.33770  0.58330  Biso   1.000  H
  C71      1.0000 0.74910  0.25590  0.84130  Biso   1.000  C
  H47      1.0000 0.70090  0.25210  0.90430  Biso   1.000  H
  C72      1.0000 0.82930  0.21540  0.84280  Biso   1.000  C
  H48      1.0000 0.83830  0.18460  0.90970  Biso   1.000  H
  S1       1.0000 0.00000  0.83155  0.25000  Biso   1.000  S
  S2       1.0000 0.00000  0.16845  0.75000  Biso   1.000  S
  S3       1.0000 0.00000  0.31575  0.25000  Biso   1.000  S
  S4       1.0000 0.00000  0.68425  0.75000  Biso   1.000  S
  Cd5      1.0000 0.01522  0.07310  0.41900  Biso   1.000  Cd
  O25      1.0000 0.50440  0.36616  0.37214  Biso   1.000  O
  C73      1.0000 0.39673  0.28043  0.24654  Biso   1.000  C
  C74      1.0000 0.35720  0.25710  0.12720  Biso   1.000  C
  H49      1.0000 0.38260  0.27000  0.04710  Biso   1.000  H
  C75      1.0000 0.27950  0.21430  0.12690  Biso   1.000  C
  H50      1.0000 0.25280  0.19670  0.04590  Biso   1.000  H
  C76      1.0000 0.24016  0.19696  0.24479  Biso   1.000  C
  C77      1.0000 0.28480  0.22007  0.36250  Biso   1.000  C
  H51      1.0000 0.26130  0.20650  0.44330  Biso   1.000  H
  C78      1.0000 0.36300  0.26264  0.36530  Biso   1.000  C
  H52      1.0000 0.39230  0.27890  0.44630  Biso   1.000  H
  C79      1.0000 0.15243  0.15289  0.24625  Biso   1.000  C
  O26      1.0000 0.12065  0.12974  0.13743  Biso   1.000  O
  O27      1.0000 0.11986  0.14348  0.35720  Biso   1.000  O
  O28      1.0000 0.50492  0.78242  0.12808  Biso   1.000  O
  C80      1.0000 0.60519  0.86581  0.26844  Biso   1.000  C
  C81      1.0000 0.63875  0.88825  0.39254  Biso   1.000  C
  H53      1.0000 0.60400  0.87810  0.46740  Biso   1.000  H
  C82      1.0000 0.72332  0.92561  0.40586  Biso   1.000  C
  H54      1.0000 0.74740  0.94080  0.49030  Biso   1.000  H
  C83      1.0000 0.77308  0.94084  0.29507  Biso   1.000  C
  C84      1.0000 0.73793  0.91879  0.17107  Biso   1.000  C
  H55      1.0000 0.77180  0.92950  0.09580  Biso   1.000  H
  C85      1.0000 0.65385  0.88131  0.15740  Biso   1.000  C
  H56      1.0000 0.62950  0.86630  0.07300  Biso   1.000  H
  C86      1.0000 0.86325  0.98288  0.30633  Biso   1.000  C
  O29      1.0000 0.90942  0.99072  0.42103  Biso   1.000  O
  O30      1.0000 0.88609  0.00926  0.20491  Biso   1.000  O
  C87      1.0000 0.38370  0.23450  0.14680  Biso   1.000  C
  H57      1.0000 0.42870  0.23170  0.07960  Biso   1.000  H
  C88      1.0000 0.30270  0.19330  0.14980  Biso   1.000  C
  H58      1.0000 0.29230  0.16230  0.08330  Biso   1.000  H
  C89      1.0000 0.24910  0.24410  0.34130  Biso   1.000  C
  H59      1.0000 0.20090  0.24790  0.40430  Biso   1.000  H
  C90      1.0000 0.32930  0.28460  0.34280  Biso   1.000  C
  H60      1.0000 0.33830  0.31540  0.40970  Biso   1.000  H
  Cd6      1.0000 0.98478  0.07310  0.08100  Biso   1.000  Cd
  O31      1.0000 0.49560  0.36616  0.12786  Biso   1.000  O
  C91      1.0000 0.60327  0.28043  0.25346  Biso   1.000  C
  C92      1.0000 0.64280  0.25710  0.37280  Biso   1.000  C
  H61      1.0000 0.61740  0.27000  0.45290  Biso   1.000  H
  C93      1.0000 0.72050  0.21430  0.37310  Biso   1.000  C
  H62      1.0000 0.74720  0.19670  0.45410  Biso   1.000  H
  C94      1.0000 0.75984  0.19696  0.25521  Biso   1.000  C
  C95      1.0000 0.71520  0.22007  0.13750  Biso   1.000  C
  H63      1.0000 0.73870  0.20650  0.05670  Biso   1.000  H
  C96      1.0000 0.63700  0.26264  0.13470  Biso   1.000  C
  H64      1.0000 0.60770  0.27890  0.05370  Biso   1.000  H
  C97      1.0000 0.84757  0.15289  0.25375  Biso   1.000  C
  O32      1.0000 0.87935  0.12974  0.36257  Biso   1.000  O
  O33      1.0000 0.88014  0.14348  0.14280  Biso   1.000  O
  O34      1.0000 0.49508  0.78242  0.37192  Biso   1.000  O
  C98      1.0000 0.39481  0.86581  0.23156  Biso   1.000  C
  C99      1.0000 0.36125  0.88825  0.10746  Biso   1.000  C
  H65      1.0000 0.39600  0.87810  0.03260  Biso   1.000  H
  C100     1.0000 0.27668  0.92561  0.09414  Biso   1.000  C
  H66      1.0000 0.25260  0.94080  0.00970  Biso   1.000  H
  C101     1.0000 0.22692  0.94084  0.20493  Biso   1.000  C
  C102     1.0000 0.26207  0.91879  0.32893  Biso   1.000  C
  H67      1.0000 0.22820  0.92950  0.40420  Biso   1.000  H
  C103     1.0000 0.34615  0.88131  0.34260  Biso   1.000  C
  H68      1.0000 0.37050  0.86630  0.42700  Biso   1.000  H
  C104     1.0000 0.13675  0.98288  0.19367  Biso   1.000  C
  O35      1.0000 0.09058  0.99072  0.07897  Biso   1.000  O
  O36      1.0000 0.11391  0.00926  0.29509  Biso   1.000  O
  C105     1.0000 0.61630  0.23450  0.35320  Biso   1.000  C
  H69      1.0000 0.57130  0.23170  0.42040  Biso   1.000  H
  C106     1.0000 0.69730  0.19330  0.35020  Biso   1.000  C
  H70      1.0000 0.70770  0.16230  0.41670  Biso   1.000  H
  C107     1.0000 0.75090  0.24410  0.15870  Biso   1.000  C
  H71      1.0000 0.79910  0.24790  0.09570  Biso   1.000  H
  C108     1.0000 0.67070  0.28460  0.15720  Biso   1.000  C
  H72      1.0000 0.66170  0.31540  0.09030  Biso   1.000  H
  Cd7      1.0000 0.98478  0.92690  0.58100  Biso   1.000  Cd
  O37      1.0000 0.49560  0.63384  0.62786  Biso   1.000  O
  C109     1.0000 0.60327  0.71957  0.75346  Biso   1.000  C
  C110     1.0000 0.64280  0.74290  0.87280  Biso   1.000  C
  H73      1.0000 0.61740  0.73000  0.95290  Biso   1.000  H
  C111     1.0000 0.72050  0.78570  0.87310  Biso   1.000  C
  H74      1.0000 0.74720  0.80330  0.95410  Biso   1.000  H
  C112     1.0000 0.75984  0.80304  0.75521  Biso   1.000  C
  C113     1.0000 0.71520  0.77993  0.63750  Biso   1.000  C
  H75      1.0000 0.73870  0.79350  0.55670  Biso   1.000  H
  C114     1.0000 0.63700  0.73736  0.63470  Biso   1.000  C
  H76      1.0000 0.60770  0.72110  0.55370  Biso   1.000  H
  C115     1.0000 0.84757  0.84711  0.75375  Biso   1.000  C
  O38      1.0000 0.87935  0.87026  0.86257  Biso   1.000  O
  O39      1.0000 0.88014  0.85652  0.64280  Biso   1.000  O
  O40      1.0000 0.49508  0.21758  0.87192  Biso   1.000  O
  C116     1.0000 0.39481  0.13419  0.73156  Biso   1.000  C
  C117     1.0000 0.36125  0.11175  0.60746  Biso   1.000  C
  H77      1.0000 0.39600  0.12190  0.53260  Biso   1.000  H
  C118     1.0000 0.27668  0.07439  0.59414  Biso   1.000  C
  H78      1.0000 0.25260  0.05920  0.50970  Biso   1.000  H
  C119     1.0000 0.22692  0.05916  0.70493  Biso   1.000  C
  C120     1.0000 0.26207  0.08121  0.82893  Biso   1.000  C
  H79      1.0000 0.22820  0.07050  0.90420  Biso   1.000  H
  C121     1.0000 0.34615  0.11869  0.84260  Biso   1.000  C
  H80      1.0000 0.37050  0.13370  0.92700  Biso   1.000  H
  C122     1.0000 0.13675  0.01712  0.69367  Biso   1.000  C
  O41      1.0000 0.09058  0.00928  0.57897  Biso   1.000  O
  O42      1.0000 0.11391  0.99074  0.79509  Biso   1.000  O
  C123     1.0000 0.61630  0.76550  0.85320  Biso   1.000  C
  H81      1.0000 0.57130  0.76830  0.92040  Biso   1.000  H
  C124     1.0000 0.69730  0.80670  0.85020  Biso   1.000  C
  H82      1.0000 0.70770  0.83770  0.91670  Biso   1.000  H
  C125     1.0000 0.75090  0.75590  0.65870  Biso   1.000  C
  H83      1.0000 0.79910  0.75210  0.59570  Biso   1.000  H
  C126     1.0000 0.67070  0.71540  0.65720  Biso   1.000  C
  H84      1.0000 0.66170  0.68460  0.59030  Biso   1.000  H
  Cd8      1.0000 0.01522  0.92690  0.91900  Biso   1.000  Cd
  O43      1.0000 0.50440  0.63384  0.87214  Biso   1.000  O
  C127     1.0000 0.39673  0.71957  0.74654  Biso   1.000  C
  C128     1.0000 0.35720  0.74290  0.62720  Biso   1.000  C
  H85      1.0000 0.38260  0.73000  0.54710  Biso   1.000  H
  C129     1.0000 0.27950  0.78570  0.62690  Biso   1.000  C
  H86      1.0000 0.25280  0.80330  0.54590  Biso   1.000  H
  C130     1.0000 0.24016  0.80304  0.74479  Biso   1.000  C
  C131     1.0000 0.28480  0.77993  0.86250  Biso   1.000  C
  H87      1.0000 0.26130  0.79350  0.94330  Biso   1.000  H
  C132     1.0000 0.36300  0.73736  0.86530  Biso   1.000  C
  H88      1.0000 0.39230  0.72110  0.94630  Biso   1.000  H
  C133     1.0000 0.15243  0.84711  0.74625  Biso   1.000  C
  O44      1.0000 0.12065  0.87026  0.63743  Biso   1.000  O
  O45      1.0000 0.11986  0.85652  0.85720  Biso   1.000  O
  O46      1.0000 0.50492  0.21758  0.62808  Biso   1.000  O
  C134     1.0000 0.60519  0.13419  0.76844  Biso   1.000  C
  C135     1.0000 0.63875  0.11175  0.89254  Biso   1.000  C
  H89      1.0000 0.60400  0.12190  0.96740  Biso   1.000  H
  C136     1.0000 0.72332  0.07439  0.90586  Biso   1.000  C
  H90      1.0000 0.74740  0.05920  0.99030  Biso   1.000  H
  C137     1.0000 0.77308  0.05916  0.79507  Biso   1.000  C
  C138     1.0000 0.73793  0.08121  0.67107  Biso   1.000  C
  H91      1.0000 0.77180  0.07050  0.59580  Biso   1.000  H
  C139     1.0000 0.65385  0.11869  0.65740  Biso   1.000  C
  H92      1.0000 0.62950  0.13370  0.57300  Biso   1.000  H
  C140     1.0000 0.86325  0.01712  0.80633  Biso   1.000  C
  O47      1.0000 0.90942  0.00928  0.92103  Biso   1.000  O
  O48      1.0000 0.88609  0.99074  0.70491  Biso   1.000  O
  C141     1.0000 0.38370  0.76550  0.64680  Biso   1.000  C
  H93      1.0000 0.42870  0.76830  0.57960  Biso   1.000  H
  C142     1.0000 0.30270  0.80670  0.64980  Biso   1.000  C
  H94      1.0000 0.29230  0.83770  0.58330  Biso   1.000  H
  C143     1.0000 0.24910  0.75590  0.84130  Biso   1.000  C
  H95      1.0000 0.20090  0.75210  0.90430  Biso   1.000  H
  C144     1.0000 0.32930  0.71540  0.84280  Biso   1.000  C
  H96      1.0000 0.33830  0.68460  0.90970  Biso   1.000  H
  S5       1.0000 0.50000  0.33155  0.25000  Biso   1.000  S
  S6       1.0000 0.50000  0.66845  0.75000  Biso   1.000  S
  S7       1.0000 0.50000  0.81575  0.25000  Biso   1.000  S
  S8       1.0000 0.50000  0.18425  0.75000  Biso   1.000  S
