data_image0
_cell_length_a       13.391
_cell_length_b       21.45
_cell_length_c       10.1758
_cell_angle_alpha    90
_cell_angle_beta     94.96
_cell_angle_gamma    90

_symmetry_space_group_name_H-M    "P 1"
_symmetry_int_tables_number       1

loop_
  _symmetry_equiv_pos_as_xyz
  'x, y, z'

loop_
  _atom_site_label
  _atom_site_occupancy
  _atom_site_fract_x
  _atom_site_fract_y
  _atom_site_fract_z
  _atom_site_thermal_displace_type
  _atom_site_B_iso_or_equiv
  _atom_site_type_symbol
  Cd1      1.0000 0.51544  0.57311  0.41908  Biso   1.000  Cd
  O1       1.0000 0.00476  0.86610  0.37210  Biso   1.000  O
  C1       1.0000 0.89708  0.78022  0.24692  Biso   1.000  C
  C2       1.0000 0.85720  0.75717  0.12730  Biso   1.000  C
  H1       1.0000 0.88250  0.77000  0.04720  Biso   1.000  H
  C3       1.0000 0.77890  0.71456  0.12690  Biso   1.000  C
  H2       1.0000 0.75130  0.69730  0.04580  Biso   1.000  H
  C4       1.0000 0.74011  0.69683  0.24543  Biso   1.000  C
  C5       1.0000 0.78589  0.71939  0.36329  Biso   1.000  C
  H3       1.0000 0.76340  0.70520  0.44410  Biso   1.000  H
  C6       1.0000 0.86383  0.76220  0.36615  Biso   1.000  C
  H4       1.0000 0.89330  0.77850  0.44720  Biso   1.000  H
  C7       1.0000 0.65248  0.65268  0.24672  Biso   1.000  C
  O2       1.0000 0.62047  0.62972  0.13791  Biso   1.000  O
  O3       1.0000 0.61998  0.64349  0.35806  Biso   1.000  O
  O4       1.0000 0.00460  0.28230  0.12821  Biso   1.000  O
  C8       1.0000 0.10488  0.36601  0.26828  Biso   1.000  C
  C9       1.0000 0.13827  0.38859  0.39232  Biso   1.000  C
  H5       1.0000 0.10350  0.37850  0.46700  Biso   1.000  H
  C10      1.0000 0.22318  0.42619  0.40576  Biso   1.000  C
  H6       1.0000 0.24710  0.44170  0.49010  Biso   1.000  H
  C11      1.0000 0.27311  0.44101  0.29481  Biso   1.000  C
  C12      1.0000 0.23775  0.41856  0.17070  Biso   1.000  C
  H7       1.0000 0.27160  0.42910  0.09550  Biso   1.000  H
  C13      1.0000 0.15373  0.38102  0.15694  Biso   1.000  C
  H8       1.0000 0.12950  0.36560  0.07260  Biso   1.000  H
  C14      1.0000 0.36310  0.48286  0.30594  Biso   1.000  C
  O5       1.0000 0.40953  0.49073  0.42053  Biso   1.000  O
  O6       1.0000 0.38587  0.50914  0.20448  Biso   1.000  O
  C15      1.0000 0.88320  0.73420  0.14800  Biso   1.000  C
  H9       1.0000 0.92830  0.73100  0.08130  Biso   1.000  H
  C16      1.0000 0.80210  0.69350  0.14970  Biso   1.000  C
  H10      1.0000 0.79080  0.66310  0.08210  Biso   1.000  H
  C17      1.0000 0.75030  0.74320  0.34260  Biso   1.000  C
  H11      1.0000 0.70300  0.74670  0.40660  Biso   1.000  H
  C18      1.0000 0.83090  0.78400  0.34350  Biso   1.000  C
  H12      1.0000 0.84060  0.81460  0.41080  Biso   1.000  H
  Cd2      1.0000 0.48456  0.57311  0.08092  Biso   1.000  Cd
  O7       1.0000 0.99524  0.86610  0.12790  Biso   1.000  O
  C19      1.0000 0.10292  0.78022  0.25308  Biso   1.000  C
  C20      1.0000 0.14280  0.75717  0.37270  Biso   1.000  C
  H13      1.0000 0.11750  0.77000  0.45280  Biso   1.000  H
  C21      1.0000 0.22110  0.71456  0.37310  Biso   1.000  C
  H14      1.0000 0.24870  0.69730  0.45420  Biso   1.000  H
  C22      1.0000 0.25989  0.69683  0.25457  Biso   1.000  C
  C23      1.0000 0.21411  0.71939  0.13671  Biso   1.000  C
  H15      1.0000 0.23660  0.70520  0.05590  Biso   1.000  H
  C24      1.0000 0.13617  0.76220  0.13385  Biso   1.000  C
  H16      1.0000 0.10670  0.77850  0.05280  Biso   1.000  H
  C25      1.0000 0.34752  0.65268  0.25328  Biso   1.000  C
  O8       1.0000 0.37953  0.62972  0.36209  Biso   1.000  O
  O9       1.0000 0.38002  0.64349  0.14194  Biso   1.000  O
  O10      1.0000 0.99540  0.28230  0.37179  Biso   1.000  O
  C26      1.0000 0.89512  0.36601  0.23172  Biso   1.000  C
  C27      1.0000 0.86173  0.38859  0.10768  Biso   1.000  C
  H17      1.0000 0.89650  0.37850  0.03300  Biso   1.000  H
  C28      1.0000 0.77682  0.42619  0.09424  Biso   1.000  C
  H18      1.0000 0.75290  0.44170  0.00990  Biso   1.000  H
  C29      1.0000 0.72689  0.44101  0.20519  Biso   1.000  C
  C30      1.0000 0.76225  0.41856  0.32930  Biso   1.000  C
  H19      1.0000 0.72840  0.42910  0.40450  Biso   1.000  H
  C31      1.0000 0.84627  0.38102  0.34306  Biso   1.000  C
  H20      1.0000 0.87050  0.36560  0.42740  Biso   1.000  H
  C32      1.0000 0.63690  0.48286  0.19406  Biso   1.000  C
  O11      1.0000 0.59047  0.49073  0.07947  Biso   1.000  O
  O12      1.0000 0.61413  0.50914  0.29552  Biso   1.000  O
  C33      1.0000 0.11680  0.73420  0.35200  Biso   1.000  C
  H21      1.0000 0.07170  0.73100  0.41870  Biso   1.000  H
  C34      1.0000 0.19790  0.69350  0.35030  Biso   1.000  C
  H22      1.0000 0.20920  0.66310  0.41790  Biso   1.000  H
  C35      1.0000 0.24970  0.74320  0.15740  Biso   1.000  C
  H23      1.0000 0.29700  0.74670  0.09340  Biso   1.000  H
  C36      1.0000 0.16910  0.78400  0.15650  Biso   1.000  C
  H24      1.0000 0.15940  0.81460  0.08920  Biso   1.000  H
  Cd3      1.0000 0.48456  0.42689  0.58092  Biso   1.000  Cd
  O13      1.0000 0.99524  0.13390  0.62790  Biso   1.000  O
  C37      1.0000 0.10292  0.21978  0.75308  Biso   1.000  C
  C38      1.0000 0.14280  0.24283  0.87270  Biso   1.000  C
  H25      1.0000 0.11750  0.23000  0.95280  Biso   1.000  H
  C39      1.0000 0.22110  0.28544  0.87310  Biso   1.000  C
  H26      1.0000 0.24870  0.30270  0.95420  Biso   1.000  H
  C40      1.0000 0.25989  0.30317  0.75457  Biso   1.000  C
  C41      1.0000 0.21411  0.28061  0.63671  Biso   1.000  C
  H27      1.0000 0.23660  0.29480  0.55590  Biso   1.000  H
  C42      1.0000 0.13617  0.23780  0.63385  Biso   1.000  C
  H28      1.0000 0.10670  0.22150  0.55280  Biso   1.000  H
  C43      1.0000 0.34752  0.34732  0.75328  Biso   1.000  C
  O14      1.0000 0.37953  0.37028  0.86209  Biso   1.000  O
  O15      1.0000 0.38002  0.35651  0.64194  Biso   1.000  O
  O16      1.0000 0.99540  0.71770  0.87179  Biso   1.000  O
  C44      1.0000 0.89512  0.63399  0.73172  Biso   1.000  C
  C45      1.0000 0.86173  0.61141  0.60768  Biso   1.000  C
  H29      1.0000 0.89650  0.62150  0.53300  Biso   1.000  H
  C46      1.0000 0.77682  0.57381  0.59424  Biso   1.000  C
  H30      1.0000 0.75290  0.55830  0.50990  Biso   1.000  H
  C47      1.0000 0.72689  0.55899  0.70519  Biso   1.000  C
  C48      1.0000 0.76225  0.58144  0.82930  Biso   1.000  C
  H31      1.0000 0.72840  0.57090  0.90450  Biso   1.000  H
  C49      1.0000 0.84627  0.61898  0.84306  Biso   1.000  C
  H32      1.0000 0.87050  0.63440  0.92740  Biso   1.000  H
  C50      1.0000 0.63690  0.51714  0.69406  Biso   1.000  C
  O17      1.0000 0.59047  0.50927  0.57947  Biso   1.000  O
  O18      1.0000 0.61413  0.49086  0.79552  Biso   1.000  O
  C51      1.0000 0.11680  0.26580  0.85200  Biso   1.000  C
  H33      1.0000 0.07170  0.26900  0.91870  Biso   1.000  H
  C52      1.0000 0.19790  0.30650  0.85030  Biso   1.000  C
  H34      1.0000 0.20920  0.33690  0.91790  Biso   1.000  H
  C53      1.0000 0.24970  0.25680  0.65740  Biso   1.000  C
  H35      1.0000 0.29700  0.25330  0.59340  Biso   1.000  H
  C54      1.0000 0.16910  0.21600  0.65650  Biso   1.000  C
  H36      1.0000 0.15940  0.18540  0.58920  Biso   1.000  H
  Cd4      1.0000 0.51544  0.42689  0.91908  Biso   1.000  Cd
  O19      1.0000 0.00476  0.13390  0.87210  Biso   1.000  O
  C55      1.0000 0.89708  0.21978  0.74692  Biso   1.000  C
  C56      1.0000 0.85720  0.24283  0.62730  Biso   1.000  C
  H37      1.0000 0.88250  0.23000  0.54720  Biso   1.000  H
  C57      1.0000 0.77890  0.28544  0.62690  Biso   1.000  C
  H38      1.0000 0.75130  0.30270  0.54580  Biso   1.000  H
  C58      1.0000 0.74011  0.30317  0.74543  Biso   1.000  C
  C59      1.0000 0.78589  0.28061  0.86329  Biso   1.000  C
  H39      1.0000 0.76340  0.29480  0.94410  Biso   1.000  H
  C60      1.0000 0.86383  0.23780  0.86615  Biso   1.000  C
  H40      1.0000 0.89330  0.22150  0.94720  Biso   1.000  H
  C61      1.0000 0.65248  0.34732  0.74672  Biso   1.000  C
  O20      1.0000 0.62047  0.37028  0.63791  Biso   1.000  O
  O21      1.0000 0.61998  0.35651  0.85806  Biso   1.000  O
  O22      1.0000 0.00460  0.71770  0.62821  Biso   1.000  O
  C62      1.0000 0.10488  0.63399  0.76828  Biso   1.000  C
  C63      1.0000 0.13827  0.61141  0.89232  Biso   1.000  C
  H41      1.0000 0.10350  0.62150  0.96700  Biso   1.000  H
  C64      1.0000 0.22318  0.57381  0.90576  Biso   1.000  C
  H42      1.0000 0.24710  0.55830  0.99010  Biso   1.000  H
  C65      1.0000 0.27311  0.55899  0.79481  Biso   1.000  C
  C66      1.0000 0.23775  0.58144  0.67070  Biso   1.000  C
  H43      1.0000 0.27160  0.57090  0.59550  Biso   1.000  H
  C67      1.0000 0.15373  0.61898  0.65694  Biso   1.000  C
  H44      1.0000 0.12950  0.63440  0.57260  Biso   1.000  H
  C68      1.0000 0.36310  0.51714  0.80594  Biso   1.000  C
  O23      1.0000 0.40953  0.50927  0.92053  Biso   1.000  O
  O24      1.0000 0.38587  0.49086  0.70448  Biso   1.000  O
  C69      1.0000 0.88320  0.26580  0.64800  Biso   1.000  C
  H45      1.0000 0.92830  0.26900  0.58130  Biso   1.000  H
  C70      1.0000 0.80210  0.30650  0.64970  Biso   1.000  C
  H46      1.0000 0.79080  0.33690  0.58210  Biso   1.000  H
  C71      1.0000 0.75030  0.25680  0.84260  Biso   1.000  C
  H47      1.0000 0.70300  0.25330  0.90660  Biso   1.000  H
  C72      1.0000 0.83090  0.21600  0.84350  Biso   1.000  C
  H48      1.0000 0.84060  0.18540  0.91080  Biso   1.000  H
  S1       1.0000 0.00000  0.83146  0.25000  Biso   1.000  S
  S2       1.0000 0.00000  0.16854  0.75000  Biso   1.000  S
  S3       1.0000 0.00000  0.31570  0.25000  Biso   1.000  S
  S4       1.0000 0.00000  0.68430  0.75000  Biso   1.000  S
  Cd5      1.0000 0.01544  0.07311  0.41908  Biso   1.000  Cd
  O25      1.0000 0.50476  0.36610  0.37210  Biso   1.000  O
  C73      1.0000 0.39708  0.28022  0.24692  Biso   1.000  C
  C74      1.0000 0.35720  0.25717  0.12730  Biso   1.000  C
  H49      1.0000 0.38250  0.27000  0.04720  Biso   1.000  H
  C75      1.0000 0.27890  0.21456  0.12690  Biso   1.000  C
  H50      1.0000 0.25130  0.19730  0.04580  Biso   1.000  H
  C76      1.0000 0.24011  0.19683  0.24543  Biso   1.000  C
  C77      1.0000 0.28589  0.21939  0.36329  Biso   1.000  C
  H51      1.0000 0.26340  0.20520  0.44410  Biso   1.000  H
  C78      1.0000 0.36383  0.26220  0.36615  Biso   1.000  C
  H52      1.0000 0.39330  0.27850  0.44720  Biso   1.000  H
  C79      1.0000 0.15248  0.15268  0.24672  Biso   1.000  C
  O26      1.0000 0.12047  0.12972  0.13791  Biso   1.000  O
  O27      1.0000 0.11998  0.14349  0.35806  Biso   1.000  O
  O28      1.0000 0.50460  0.78230  0.12821  Biso   1.000  O
  C80      1.0000 0.60488  0.86601  0.26828  Biso   1.000  C
  C81      1.0000 0.63827  0.88859  0.39232  Biso   1.000  C
  H53      1.0000 0.60350  0.87850  0.46700  Biso   1.000  H
  C82      1.0000 0.72318  0.92619  0.40576  Biso   1.000  C
  H54      1.0000 0.74710  0.94170  0.49010  Biso   1.000  H
  C83      1.0000 0.77311  0.94101  0.29481  Biso   1.000  C
  C84      1.0000 0.73775  0.91856  0.17070  Biso   1.000  C
  H55      1.0000 0.77160  0.92910  0.09550  Biso   1.000  H
  C85      1.0000 0.65373  0.88102  0.15694  Biso   1.000  C
  H56      1.0000 0.62950  0.86560  0.07260  Biso   1.000  H
  C86      1.0000 0.86310  0.98286  0.30594  Biso   1.000  C
  O29      1.0000 0.90953  0.99073  0.42053  Biso   1.000  O
  O30      1.0000 0.88587  0.00914  0.20448  Biso   1.000  O
  C87      1.0000 0.38320  0.23420  0.14800  Biso   1.000  C
  H57      1.0000 0.42830  0.23100  0.08130  Biso   1.000  H
  C88      1.0000 0.30210  0.19350  0.14970  Biso   1.000  C
  H58      1.0000 0.29080  0.16310  0.08210  Biso   1.000  H
  C89      1.0000 0.25030  0.24320  0.34260  Biso   1.000  C
  H59      1.0000 0.20300  0.24670  0.40660  Biso   1.000  H
  C90      1.0000 0.33090  0.28400  0.34350  Biso   1.000  C
  H60      1.0000 0.34060  0.31460  0.41080  Biso   1.000  H
  Cd6      1.0000 0.98456  0.07311  0.08092  Biso   1.000  Cd
  O31      1.0000 0.49524  0.36610  0.12790  Biso   1.000  O
  C91      1.0000 0.60292  0.28022  0.25308  Biso   1.000  C
  C92      1.0000 0.64280  0.25717  0.37270  Biso   1.000  C
  H61      1.0000 0.61750  0.27000  0.45280  Biso   1.000  H
  C93      1.0000 0.72110  0.21456  0.37310  Biso   1.000  C
  H62      1.0000 0.74870  0.19730  0.45420  Biso   1.000  H
  C94      1.0000 0.75989  0.19683  0.25457  Biso   1.000  C
  C95      1.0000 0.71411  0.21939  0.13671  Biso   1.000  C
  H63      1.0000 0.73660  0.20520  0.05590  Biso   1.000  H
  C96      1.0000 0.63617  0.26220  0.13385  Biso   1.000  C
  H64      1.0000 0.60670  0.27850  0.05280  Biso   1.000  H
  C97      1.0000 0.84752  0.15268  0.25328  Biso   1.000  C
  O32      1.0000 0.87953  0.12972  0.36209  Biso   1.000  O
  O33      1.0000 0.88002  0.14349  0.14194  Biso   1.000  O
  O34      1.0000 0.49540  0.78230  0.37179  Biso   1.000  O
  C98      1.0000 0.39512  0.86601  0.23172  Biso   1.000  C
  C99      1.0000 0.36173  0.88859  0.10768  Biso   1.000  C
  H65      1.0000 0.39650  0.87850  0.03300  Biso   1.000  H
  C100     1.0000 0.27682  0.92619  0.09424  Biso   1.000  C
  H66      1.0000 0.25290  0.94170  0.00990  Biso   1.000  H
  C101     1.0000 0.22689  0.94101  0.20519  Biso   1.000  C
  C102     1.0000 0.26225  0.91856  0.32930  Biso   1.000  C
  H67      1.0000 0.22840  0.92910  0.40450  Biso   1.000  H
  C103     1.0000 0.34627  0.88102  0.34306  Biso   1.000  C
  H68      1.0000 0.37050  0.86560  0.42740  Biso   1.000  H
  C104     1.0000 0.13690  0.98286  0.19406  Biso   1.000  C
  O35      1.0000 0.09047  0.99073  0.07947  Biso   1.000  O
  O36      1.0000 0.11413  0.00914  0.29552  Biso   1.000  O
  C105     1.0000 0.61680  0.23420  0.35200  Biso   1.000  C
  H69      1.0000 0.57170  0.23100  0.41870  Biso   1.000  H
  C106     1.0000 0.69790  0.19350  0.35030  Biso   1.000  C
  H70      1.0000 0.70920  0.16310  0.41790  Biso   1.000  H
  C107     1.0000 0.74970  0.24320  0.15740  Biso   1.000  C
  H71      1.0000 0.79700  0.24670  0.09340  Biso   1.000  H
  C108     1.0000 0.66910  0.28400  0.15650  Biso   1.000  C
  H72      1.0000 0.65940  0.31460  0.08920  Biso   1.000  H
  Cd7      1.0000 0.98456  0.92689  0.58092  Biso   1.000  Cd
  O37      1.0000 0.49524  0.63390  0.62790  Biso   1.000  O
  C109     1.0000 0.60292  0.71978  0.75308  Biso   1.000  C
  C110     1.0000 0.64280  0.74283  0.87270  Biso   1.000  C
  H73      1.0000 0.61750  0.73000  0.95280  Biso   1.000  H
  C111     1.0000 0.72110  0.78544  0.87310  Biso   1.000  C
  H74      1.0000 0.74870  0.80270  0.95420  Biso   1.000  H
  C112     1.0000 0.75989  0.80317  0.75457  Biso   1.000  C
  C113     1.0000 0.71411  0.78061  0.63671  Biso   1.000  C
  H75      1.0000 0.73660  0.79480  0.55590  Biso   1.000  H
  C114     1.0000 0.63617  0.73780  0.63385  Biso   1.000  C
  H76      1.0000 0.60670  0.72150  0.55280  Biso   1.000  H
  C115     1.0000 0.84752  0.84732  0.75328  Biso   1.000  C
  O38      1.0000 0.87953  0.87028  0.86209  Biso   1.000  O
  O39      1.0000 0.88002  0.85651  0.64194  Biso   1.000  O
  O40      1.0000 0.49540  0.21770  0.87179  Biso   1.000  O
  C116     1.0000 0.39512  0.13399  0.73172  Biso   1.000  C
  C117     1.0000 0.36173  0.11141  0.60768  Biso   1.000  C
  H77      1.0000 0.39650  0.12150  0.53300  Biso   1.000  H
  C118     1.0000 0.27682  0.07381  0.59424  Biso   1.000  C
  H78      1.0000 0.25290  0.05830  0.50990  Biso   1.000  H
  C119     1.0000 0.22689  0.05899  0.70519  Biso   1.000  C
  C120     1.0000 0.26225  0.08144  0.82930  Biso   1.000  C
  H79      1.0000 0.22840  0.07090  0.90450  Biso   1.000  H
  C121     1.0000 0.34627  0.11898  0.84306  Biso   1.000  C
  H80      1.0000 0.37050  0.13440  0.92740  Biso   1.000  H
  C122     1.0000 0.13690  0.01714  0.69406  Biso   1.000  C
  O41      1.0000 0.09047  0.00927  0.57947  Biso   1.000  O
  O42      1.0000 0.11413  0.99086  0.79552  Biso   1.000  O
  C123     1.0000 0.61680  0.76580  0.85200  Biso   1.000  C
  H81      1.0000 0.57170  0.76900  0.91870  Biso   1.000  H
  C124     1.0000 0.69790  0.80650  0.85030  Biso   1.000  C
  H82      1.0000 0.70920  0.83690  0.91790  Biso   1.000  H
  C125     1.0000 0.74970  0.75680  0.65740  Biso   1.000  C
  H83      1.0000 0.79700  0.75330  0.59340  Biso   1.000  H
  C126     1.0000 0.66910  0.71600  0.65650  Biso   1.000  C
  H84      1.0000 0.65940  0.68540  0.58920  Biso   1.000  H
  Cd8      1.0000 0.01544  0.92689  0.91908  Biso   1.000  Cd
  O43      1.0000 0.50476  0.63390  0.87210  Biso   1.000  O
  C127     1.0000 0.39708  0.71978  0.74692  Biso   1.000  C
  C128     1.0000 0.35720  0.74283  0.62730  Biso   1.000  C
  H85      1.0000 0.38250  0.73000  0.54720  Biso   1.000  H
  C129     1.0000 0.27890  0.78544  0.62690  Biso   1.000  C
  H86      1.0000 0.25130  0.80270  0.54580  Biso   1.000  H
  C130     1.0000 0.24011  0.80317  0.74543  Biso   1.000  C
  C131     1.0000 0.28589  0.78061  0.86329  Biso   1.000  C
  H87      1.0000 0.26340  0.79480  0.94410  Biso   1.000  H
  C132     1.0000 0.36383  0.73780  0.86615  Biso   1.000  C
  H88      1.0000 0.39330  0.72150  0.94720  Biso   1.000  H
  C133     1.0000 0.15248  0.84732  0.74672  Biso   1.000  C
  O44      1.0000 0.12047  0.87028  0.63791  Biso   1.000  O
  O45      1.0000 0.11998  0.85651  0.85806  Biso   1.000  O
  O46      1.0000 0.50460  0.21770  0.62821  Biso   1.000  O
  C134     1.0000 0.60488  0.13399  0.76828  Biso   1.000  C
  C135     1.0000 0.63827  0.11141  0.89232  Biso   1.000  C
  H89      1.0000 0.60350  0.12150  0.96700  Biso   1.000  H
  C136     1.0000 0.72318  0.07381  0.90576  Biso   1.000  C
  H90      1.0000 0.74710  0.05830  0.99010  Biso   1.000  H
  C137     1.0000 0.77311  0.05899  0.79481  Biso   1.000  C
  C138     1.0000 0.73775  0.08144  0.67070  Biso   1.000  C
  H91      1.0000 0.77160  0.07090  0.59550  Biso   1.000  H
  C139     1.0000 0.65373  0.11898  0.65694  Biso   1.000  C
  H92      1.0000 0.62950  0.13440  0.57260  Biso   1.000  H
  C140     1.0000 0.86310  0.01714  0.80594  Biso   1.000  C
  O47      1.0000 0.90953  0.00927  0.92053  Biso   1.000  O
  O48      1.0000 0.88587  0.99086  0.70448  Biso   1.000  O
  C141     1.0000 0.38320  0.76580  0.64800  Biso   1.000  C
  H93      1.0000 0.42830  0.76900  0.58130  Biso   1.000  H
  C142     1.0000 0.30210  0.80650  0.64970  Biso   1.000  C
  H94      1.0000 0.29080  0.83690  0.58210  Biso   1.000  H
  C143     1.0000 0.25030  0.75680  0.84260  Biso   1.000  C
  H95      1.0000 0.20300  0.75330  0.90660  Biso   1.000  H
  C144     1.0000 0.33090  0.71600  0.84350  Biso   1.000  C
  H96      1.0000 0.34060  0.68540  0.91080  Biso   1.000  H
  S5       1.0000 0.50000  0.33146  0.25000  Biso   1.000  S
  S6       1.0000 0.50000  0.66854  0.75000  Biso   1.000  S
  S7       1.0000 0.50000  0.81570  0.25000  Biso   1.000  S
  S8       1.0000 0.50000  0.18430  0.75000  Biso   1.000  S
