data_image0
_cell_length_a       9.0642
_cell_length_b       9.4507
_cell_length_c       19.858
_cell_angle_alpha    89.346
_cell_angle_beta     79.495
_cell_angle_gamma    86.028

_symmetry_space_group_name_H-M    "P 1"
_symmetry_int_tables_number       1

loop_
  _symmetry_equiv_pos_as_xyz
  'x, y, z'

loop_
  _atom_site_label
  _atom_site_occupancy
  _atom_site_fract_x
  _atom_site_fract_y
  _atom_site_fract_z
  _atom_site_thermal_displace_type
  _atom_site_B_iso_or_equiv
  _atom_site_type_symbol
  Al1      1.0000 0.73219  0.60809  0.50734  Biso   1.000  Al
  Al2      1.0000 0.84986  0.17980  0.54609  Biso   1.000  Al
  Al3      1.0000 0.15234  0.34285  0.29298  Biso   1.000  Al
  Al4      1.0000 0.29532  0.56018  0.09902  Biso   1.000  Al
  Al5      1.0000 0.72431  0.37902  0.11011  Biso   1.000  Al
  Al6      1.0000 0.15960  0.13616  0.02662  Biso   1.000  Al
  P1       1.0000 0.55080  0.34872  0.56690  Biso   1.000  P
  P2       1.0000 0.13101  0.14563  0.42498  Biso   1.000  P
  P3       1.0000 0.02963  0.55824  0.40146  Biso   1.000  P
  P4       1.0000 0.04195  0.33533  0.15391  Biso   1.000  P
  P5       1.0000 0.44772  0.44925  0.21966  Biso   1.000  P
  P6       1.0000 0.61995  0.64291  0.03069  Biso   1.000  P
  P7       1.0000 0.84301  0.18807  0.97965  Biso   1.000  P
  O1       1.0000 0.54360  0.30600  0.64274  Biso   1.000  O
  H1       1.0000 0.51350  0.37500  0.66730  Biso   1.000  H
  O2       1.0000 0.40580  0.31550  0.54395  Biso   1.000  O
  O3       1.0000 0.58800  0.50360  0.55588  Biso   1.000  O
  O4       1.0000 0.68120  0.25130  0.52618  Biso   1.000  O
  O5       1.0000 0.86090  0.55680  0.42867  Biso   1.000  O
  O6       1.0000 0.97130  0.16180  0.46694  Biso   1.000  O
  O7       1.0000 0.17760  0.98640  0.41586  Biso   1.000  O
  O8       1.0000 0.24440  0.21500  0.46042  Biso   1.000  O
  O9       1.0000 0.12560  0.20530  0.35314  Biso   1.000  O
  O10      1.0000 0.12580  0.46770  0.44240  Biso   1.000  O
  O11      1.0000 0.07240  0.71510  0.39912  Biso   1.000  O
  O12      1.0000 0.05970  0.50390  0.32656  Biso   1.000  O
  O13      1.0000 0.06150  0.29330  0.22725  Biso   1.000  O
  O14      1.0000 0.10040  0.20500  0.10864  Biso   1.000  O
  O15      1.0000 0.11990  0.46610  0.12930  Biso   1.000  O
  O16      1.0000 0.34660  0.34860  0.26695  Biso   1.000  O
  O17      1.0000 0.53860  0.53210  0.26008  Biso   1.000  O
  O18      1.0000 0.34470  0.54480  0.18262  Biso   1.000  O
  O19      1.0000 0.55670  0.35190  0.16731  Biso   1.000  O
  O20      1.0000 0.46070  0.66840  0.06912  Biso   1.000  O
  O21      1.0000 0.62680  0.57960  0.95980  Biso   1.000  O
  O22      1.0000 0.68980  0.78780  0.02310  Biso   1.000  O
  O23      1.0000 0.71630  0.54470  0.07174  Biso   1.000  O
  O24      1.0000 0.87130  0.36160  0.15590  Biso   1.000  O
  O25      1.0000 0.75610  0.24290  0.04891  Biso   1.000  O
  O26      1.0000 0.78700  0.04370  0.96534  Biso   1.000  O
  O27      1.0000 0.82600  0.29210  0.92223  Biso   1.000  O
  O28      1.0000 0.01150  0.16350  0.98168  Biso   1.000  O
  Al7      1.0000 0.26781  0.39191  0.49266  Biso   1.000  Al
  Al8      1.0000 0.15014  0.82020  0.45391  Biso   1.000  Al
  Al9      1.0000 0.84766  0.65715  0.70702  Biso   1.000  Al
  Al10     1.0000 0.70468  0.43982  0.90098  Biso   1.000  Al
  Al11     1.0000 0.27569  0.62098  0.88989  Biso   1.000  Al
  Al12     1.0000 0.84040  0.86384  0.97338  Biso   1.000  Al
  P8       1.0000 0.44920  0.65128  0.43310  Biso   1.000  P
  P9       1.0000 0.86899  0.85437  0.57502  Biso   1.000  P
  P10      1.0000 0.97037  0.44176  0.59854  Biso   1.000  P
  P11      1.0000 0.95805  0.66467  0.84609  Biso   1.000  P
  P12      1.0000 0.55228  0.55075  0.78034  Biso   1.000  P
  P13      1.0000 0.38005  0.35709  0.96931  Biso   1.000  P
  P14      1.0000 0.15699  0.81193  0.02035  Biso   1.000  P
  O29      1.0000 0.45640  0.69400  0.35726  Biso   1.000  O
  H2       1.0000 0.48650  0.62500  0.33270  Biso   1.000  H
  O30      1.0000 0.59420  0.68450  0.45605  Biso   1.000  O
  O31      1.0000 0.41200  0.49640  0.44412  Biso   1.000  O
  O32      1.0000 0.31880  0.74870  0.47382  Biso   1.000  O
  O33      1.0000 0.13910  0.44320  0.57133  Biso   1.000  O
  O34      1.0000 0.02870  0.83820  0.53306  Biso   1.000  O
  O35      1.0000 0.82240  0.01360  0.58414  Biso   1.000  O
  O36      1.0000 0.75560  0.78500  0.53958  Biso   1.000  O
  O37      1.0000 0.87440  0.79470  0.64686  Biso   1.000  O
  O38      1.0000 0.87420  0.53230  0.55760  Biso   1.000  O
  O39      1.0000 0.92760  0.28490  0.60088  Biso   1.000  O
  O40      1.0000 0.94030  0.49610  0.67344  Biso   1.000  O
  O41      1.0000 0.93850  0.70670  0.77275  Biso   1.000  O
  O42      1.0000 0.89960  0.79500  0.89136  Biso   1.000  O
  O43      1.0000 0.88010  0.53390  0.87070  Biso   1.000  O
  O44      1.0000 0.65340  0.65140  0.73305  Biso   1.000  O
  O45      1.0000 0.46140  0.46790  0.73992  Biso   1.000  O
  O46      1.0000 0.65530  0.45520  0.81738  Biso   1.000  O
  O47      1.0000 0.44330  0.64810  0.83269  Biso   1.000  O
  O48      1.0000 0.53930  0.33160  0.93088  Biso   1.000  O
  O49      1.0000 0.37320  0.42040  0.04020  Biso   1.000  O
  O50      1.0000 0.31020  0.21220  0.97690  Biso   1.000  O
  O51      1.0000 0.28370  0.45530  0.92826  Biso   1.000  O
  O52      1.0000 0.12870  0.63840  0.84410  Biso   1.000  O
  O53      1.0000 0.24390  0.75710  0.95109  Biso   1.000  O
  O54      1.0000 0.21300  0.95630  0.03466  Biso   1.000  O
  O55      1.0000 0.17400  0.70790  0.07777  Biso   1.000  O
  O56      1.0000 0.98850  0.83650  0.01832  Biso   1.000  O
