data_image0
_cell_length_a       15.0208
_cell_length_b       15.0208
_cell_length_c       19.217
_cell_angle_alpha    90
_cell_angle_beta     90
_cell_angle_gamma    90

_symmetry_space_group_name_H-M    "P 1"
_symmetry_int_tables_number       1

loop_
  _symmetry_equiv_pos_as_xyz
  'x, y, z'

loop_
  _atom_site_label
  _atom_site_occupancy
  _atom_site_fract_x
  _atom_site_fract_y
  _atom_site_fract_z
  _atom_site_thermal_displace_type
  _atom_site_B_iso_or_equiv
  _atom_site_type_symbol
  O1       1.0000 0.94670  0.87800  0.44282  Biso   1.000  O
  O2       1.0000 0.62170  0.55320  0.55745  Biso   1.000  O
  C1       1.0000 0.82910  0.73520  0.43740  Biso   1.000  C
  C2       1.0000 0.76460  0.66960  0.43750  Biso   1.000  C
  O3       1.0000 0.85660  0.76060  0.37540  Biso   1.000  O
  H1       1.0000 0.86780  0.72130  0.32910  Biso   1.000  H
  H2       1.0000 0.74330  0.64690  0.39400  Biso   1.000  H
  O4       1.0000 0.74530  0.64150  0.37590  Biso   1.000  O
  H3       1.0000 0.79070  0.61170  0.33800  Biso   1.000  H
  H4       1.0000 0.85370  0.75670  0.39530  Biso   1.000  H
  C3       1.0000 0.91210  0.03900  0.28680  Biso   1.000  C
  H5       1.0000 0.09600  0.89940  0.30400  Biso   1.000  H
  H6       1.0000 0.99740  0.86110  0.30270  Biso   1.000  H
  C4       1.0000 0.91730  0.03850  0.20710  Biso   1.000  C
  H7       1.0000 0.08810  0.89970  0.18990  Biso   1.000  H
  H8       1.0000 0.99590  0.86640  0.18850  Biso   1.000  H
  C5       1.0000 0.01290  0.90800  0.29030  Biso   1.000  C
  H9       1.0000 0.07040  0.88340  0.30650  Biso   1.000  H
  H10      1.0000 0.96480  0.86830  0.30700  Biso   1.000  H
  C6       1.0000 0.51200  0.41060  0.71060  Biso   1.000  C
  H11      1.0000 0.96330  0.87210  0.19350  Biso   1.000  H
  H12      1.0000 0.06880  0.88600  0.19300  Biso   1.000  H
  C7       1.0000 0.07460  0.06200  0.28950  Biso   1.000  C
  H13      1.0000 0.04300  0.86720  0.30870  Biso   1.000  H
  H14      1.0000 0.93700  0.87600  0.30450  Biso   1.000  H
  C8       1.0000 0.07560  0.05620  0.21080  Biso   1.000  C
  H15      1.0000 0.02990  0.86750  0.19490  Biso   1.000  H
  H16      1.0000 0.92970  0.88340  0.19050  Biso   1.000  H
  O5       1.0000 0.44670  0.37800  0.94282  Biso   1.000  O
  O6       1.0000 0.12170  0.05320  0.05745  Biso   1.000  O
  C9       1.0000 0.32910  0.23520  0.93740  Biso   1.000  C
  C10      1.0000 0.26460  0.16960  0.93750  Biso   1.000  C
  O7       1.0000 0.35660  0.26060  0.87540  Biso   1.000  O
  H17      1.0000 0.36780  0.22130  0.82910  Biso   1.000  H
  H18      1.0000 0.24330  0.14690  0.89400  Biso   1.000  H
  O8       1.0000 0.24530  0.14150  0.87590  Biso   1.000  O
  H19      1.0000 0.29070  0.11170  0.83800  Biso   1.000  H
  H20      1.0000 0.35370  0.25670  0.89530  Biso   1.000  H
  C11      1.0000 0.41210  0.53900  0.78680  Biso   1.000  C
  H21      1.0000 0.59600  0.39940  0.80400  Biso   1.000  H
  H22      1.0000 0.49740  0.36110  0.80270  Biso   1.000  H
  C12      1.0000 0.41730  0.53850  0.70710  Biso   1.000  C
  H23      1.0000 0.58810  0.39970  0.68990  Biso   1.000  H
  H24      1.0000 0.49590  0.36640  0.68850  Biso   1.000  H
  C13      1.0000 0.51290  0.40800  0.79030  Biso   1.000  C
  H25      1.0000 0.57040  0.38340  0.80650  Biso   1.000  H
  H26      1.0000 0.46480  0.36830  0.80700  Biso   1.000  H
  C14      1.0000 0.01200  0.91060  0.21060  Biso   1.000  C
  H27      1.0000 0.46330  0.37210  0.69350  Biso   1.000  H
  H28      1.0000 0.56880  0.38600  0.69300  Biso   1.000  H
  C15      1.0000 0.57460  0.56200  0.78950  Biso   1.000  C
  H29      1.0000 0.54300  0.36720  0.80870  Biso   1.000  H
  H30      1.0000 0.43700  0.37600  0.80450  Biso   1.000  H
  C16      1.0000 0.57560  0.55620  0.71080  Biso   1.000  C
  H31      1.0000 0.52990  0.36750  0.69490  Biso   1.000  H
  H32      1.0000 0.42970  0.38340  0.69050  Biso   1.000  H
  O9       1.0000 0.05330  0.12200  0.44282  Biso   1.000  O
  O10      1.0000 0.37830  0.44680  0.55745  Biso   1.000  O
  C17      1.0000 0.17090  0.26480  0.43740  Biso   1.000  C
  C18      1.0000 0.23540  0.33040  0.43750  Biso   1.000  C
  O11      1.0000 0.14340  0.23940  0.37540  Biso   1.000  O
  H33      1.0000 0.13220  0.27870  0.32910  Biso   1.000  H
  H34      1.0000 0.25670  0.35310  0.39400  Biso   1.000  H
  O12      1.0000 0.25470  0.35850  0.37590  Biso   1.000  O
  H35      1.0000 0.20930  0.38830  0.33800  Biso   1.000  H
  H36      1.0000 0.14630  0.24330  0.39530  Biso   1.000  H
  C19      1.0000 0.08790  0.96100  0.28680  Biso   1.000  C
  H37      1.0000 0.90400  0.10060  0.30400  Biso   1.000  H
  H38      1.0000 0.00260  0.13890  0.30270  Biso   1.000  H
  C20      1.0000 0.08270  0.96150  0.20710  Biso   1.000  C
  H39      1.0000 0.91190  0.10030  0.18990  Biso   1.000  H
  H40      1.0000 0.00410  0.13360  0.18850  Biso   1.000  H
  C21      1.0000 0.98710  0.09200  0.29030  Biso   1.000  C
  H41      1.0000 0.92960  0.11660  0.30650  Biso   1.000  H
  H42      1.0000 0.03520  0.13170  0.30700  Biso   1.000  H
  C22      1.0000 0.48800  0.58940  0.71060  Biso   1.000  C
  H43      1.0000 0.03670  0.12790  0.19350  Biso   1.000  H
  H44      1.0000 0.93120  0.11400  0.19300  Biso   1.000  H
  C23      1.0000 0.92540  0.93800  0.28950  Biso   1.000  C
  H45      1.0000 0.95700  0.13280  0.30870  Biso   1.000  H
  H46      1.0000 0.06300  0.12400  0.30450  Biso   1.000  H
  C24      1.0000 0.92440  0.94380  0.21080  Biso   1.000  C
  H47      1.0000 0.97010  0.13250  0.19490  Biso   1.000  H
  H48      1.0000 0.07030  0.11660  0.19050  Biso   1.000  H
  O13      1.0000 0.55330  0.62200  0.94282  Biso   1.000  O
  O14      1.0000 0.87830  0.94680  0.05745  Biso   1.000  O
  C25      1.0000 0.67090  0.76480  0.93740  Biso   1.000  C
  C26      1.0000 0.73540  0.83040  0.93750  Biso   1.000  C
  O15      1.0000 0.64340  0.73940  0.87540  Biso   1.000  O
  H49      1.0000 0.63220  0.77870  0.82910  Biso   1.000  H
  H50      1.0000 0.75670  0.85310  0.89400  Biso   1.000  H
  O16      1.0000 0.75470  0.85850  0.87590  Biso   1.000  O
  H51      1.0000 0.70930  0.88830  0.83800  Biso   1.000  H
  H52      1.0000 0.64630  0.74330  0.89530  Biso   1.000  H
  C27      1.0000 0.58790  0.46100  0.78680  Biso   1.000  C
  H53      1.0000 0.40400  0.60060  0.80400  Biso   1.000  H
  H54      1.0000 0.50260  0.63890  0.80270  Biso   1.000  H
  C28      1.0000 0.58270  0.46150  0.70710  Biso   1.000  C
  H55      1.0000 0.41190  0.60030  0.68990  Biso   1.000  H
  H56      1.0000 0.50410  0.63360  0.68850  Biso   1.000  H
  C29      1.0000 0.48710  0.59200  0.79030  Biso   1.000  C
  H57      1.0000 0.42960  0.61660  0.80650  Biso   1.000  H
  H58      1.0000 0.53520  0.63170  0.80700  Biso   1.000  H
  C30      1.0000 0.98800  0.08940  0.21060  Biso   1.000  C
  H59      1.0000 0.53670  0.62790  0.69350  Biso   1.000  H
  H60      1.0000 0.43120  0.61400  0.69300  Biso   1.000  H
  C31      1.0000 0.42540  0.43800  0.78950  Biso   1.000  C
  H61      1.0000 0.45700  0.63280  0.80870  Biso   1.000  H
  H62      1.0000 0.56300  0.62400  0.80450  Biso   1.000  H
  C32      1.0000 0.42440  0.44380  0.71080  Biso   1.000  C
  H63      1.0000 0.47010  0.63250  0.69490  Biso   1.000  H
  H64      1.0000 0.57030  0.61660  0.69050  Biso   1.000  H
  O17      1.0000 0.12200  0.94670  0.44282  Biso   1.000  O
  O18      1.0000 0.44680  0.62170  0.55745  Biso   1.000  O
  C33      1.0000 0.26480  0.82910  0.43740  Biso   1.000  C
  C34      1.0000 0.33040  0.76460  0.43750  Biso   1.000  C
  O19      1.0000 0.23940  0.85660  0.37540  Biso   1.000  O
  H65      1.0000 0.27870  0.86780  0.32910  Biso   1.000  H
  H66      1.0000 0.35310  0.74330  0.39400  Biso   1.000  H
  O20      1.0000 0.35850  0.74530  0.37590  Biso   1.000  O
  H67      1.0000 0.38830  0.79070  0.33800  Biso   1.000  H
  H68      1.0000 0.24330  0.85370  0.39530  Biso   1.000  H
  C35      1.0000 0.96100  0.91210  0.28680  Biso   1.000  C
  H69      1.0000 0.10060  0.09600  0.30400  Biso   1.000  H
  H70      1.0000 0.13890  0.99740  0.30270  Biso   1.000  H
  C36      1.0000 0.96150  0.91730  0.20710  Biso   1.000  C
  H71      1.0000 0.10030  0.08810  0.18990  Biso   1.000  H
  H72      1.0000 0.13360  0.99590  0.18850  Biso   1.000  H
  C37      1.0000 0.09200  0.01290  0.29030  Biso   1.000  C
  H73      1.0000 0.11660  0.07040  0.30650  Biso   1.000  H
  H74      1.0000 0.13170  0.96480  0.30700  Biso   1.000  H
  C38      1.0000 0.58940  0.51200  0.71060  Biso   1.000  C
  H75      1.0000 0.12790  0.96330  0.19350  Biso   1.000  H
  H76      1.0000 0.11400  0.06880  0.19300  Biso   1.000  H
  C39      1.0000 0.93800  0.07460  0.28950  Biso   1.000  C
  H77      1.0000 0.13280  0.04300  0.30870  Biso   1.000  H
  H78      1.0000 0.12400  0.93700  0.30450  Biso   1.000  H
  C40      1.0000 0.94380  0.07560  0.21080  Biso   1.000  C
  H79      1.0000 0.13250  0.02990  0.19490  Biso   1.000  H
  H80      1.0000 0.11660  0.92970  0.19050  Biso   1.000  H
  O21      1.0000 0.62200  0.44670  0.94282  Biso   1.000  O
  O22      1.0000 0.94680  0.12170  0.05745  Biso   1.000  O
  C41      1.0000 0.76480  0.32910  0.93740  Biso   1.000  C
  C42      1.0000 0.83040  0.26460  0.93750  Biso   1.000  C
  O23      1.0000 0.73940  0.35660  0.87540  Biso   1.000  O
  H81      1.0000 0.77870  0.36780  0.82910  Biso   1.000  H
  H82      1.0000 0.85310  0.24330  0.89400  Biso   1.000  H
  O24      1.0000 0.85850  0.24530  0.87590  Biso   1.000  O
  H83      1.0000 0.88830  0.29070  0.83800  Biso   1.000  H
  H84      1.0000 0.74330  0.35370  0.89530  Biso   1.000  H
  C43      1.0000 0.46100  0.41210  0.78680  Biso   1.000  C
  H85      1.0000 0.60060  0.59600  0.80400  Biso   1.000  H
  H86      1.0000 0.63890  0.49740  0.80270  Biso   1.000  H
  C44      1.0000 0.46150  0.41730  0.70710  Biso   1.000  C
  H87      1.0000 0.60030  0.58810  0.68990  Biso   1.000  H
  H88      1.0000 0.63360  0.49590  0.68850  Biso   1.000  H
  C45      1.0000 0.59200  0.51290  0.79030  Biso   1.000  C
  H89      1.0000 0.61660  0.57040  0.80650  Biso   1.000  H
  H90      1.0000 0.63170  0.46480  0.80700  Biso   1.000  H
  C46      1.0000 0.08940  0.01200  0.21060  Biso   1.000  C
  H91      1.0000 0.62790  0.46330  0.69350  Biso   1.000  H
  H92      1.0000 0.61400  0.56880  0.69300  Biso   1.000  H
  C47      1.0000 0.43800  0.57460  0.78950  Biso   1.000  C
  H93      1.0000 0.63280  0.54300  0.80870  Biso   1.000  H
  H94      1.0000 0.62400  0.43700  0.80450  Biso   1.000  H
  C48      1.0000 0.44380  0.57560  0.71080  Biso   1.000  C
  H95      1.0000 0.63250  0.52990  0.69490  Biso   1.000  H
  H96      1.0000 0.61660  0.42970  0.69050  Biso   1.000  H
  O25      1.0000 0.87800  0.05330  0.44282  Biso   1.000  O
  O26      1.0000 0.55320  0.37830  0.55745  Biso   1.000  O
  C49      1.0000 0.73520  0.17090  0.43740  Biso   1.000  C
  C50      1.0000 0.66960  0.23540  0.43750  Biso   1.000  C
  O27      1.0000 0.76060  0.14340  0.37540  Biso   1.000  O
  H97      1.0000 0.72130  0.13220  0.32910  Biso   1.000  H
  H98      1.0000 0.64690  0.25670  0.39400  Biso   1.000  H
  O28      1.0000 0.64150  0.25470  0.37590  Biso   1.000  O
  H99      1.0000 0.61170  0.20930  0.33800  Biso   1.000  H
  H100     1.0000 0.75670  0.14630  0.39530  Biso   1.000  H
  C51      1.0000 0.03900  0.08790  0.28680  Biso   1.000  C
  H101     1.0000 0.89940  0.90400  0.30400  Biso   1.000  H
  H102     1.0000 0.86110  0.00260  0.30270  Biso   1.000  H
  C52      1.0000 0.03850  0.08270  0.20710  Biso   1.000  C
  H103     1.0000 0.89970  0.91190  0.18990  Biso   1.000  H
  H104     1.0000 0.86640  0.00410  0.18850  Biso   1.000  H
  C53      1.0000 0.90800  0.98710  0.29030  Biso   1.000  C
  H105     1.0000 0.88340  0.92960  0.30650  Biso   1.000  H
  H106     1.0000 0.86830  0.03520  0.30700  Biso   1.000  H
  C54      1.0000 0.41060  0.48800  0.71060  Biso   1.000  C
  H107     1.0000 0.87210  0.03670  0.19350  Biso   1.000  H
  H108     1.0000 0.88600  0.93120  0.19300  Biso   1.000  H
  C55      1.0000 0.06200  0.92540  0.28950  Biso   1.000  C
  H109     1.0000 0.86720  0.95700  0.30870  Biso   1.000  H
  H110     1.0000 0.87600  0.06300  0.30450  Biso   1.000  H
  C56      1.0000 0.05620  0.92440  0.21080  Biso   1.000  C
  H111     1.0000 0.86750  0.97010  0.19490  Biso   1.000  H
  H112     1.0000 0.88340  0.07030  0.19050  Biso   1.000  H
  O29      1.0000 0.37800  0.55330  0.94282  Biso   1.000  O
  O30      1.0000 0.05320  0.87830  0.05745  Biso   1.000  O
  C57      1.0000 0.23520  0.67090  0.93740  Biso   1.000  C
  C58      1.0000 0.16960  0.73540  0.93750  Biso   1.000  C
  O31      1.0000 0.26060  0.64340  0.87540  Biso   1.000  O
  H113     1.0000 0.22130  0.63220  0.82910  Biso   1.000  H
  H114     1.0000 0.14690  0.75670  0.89400  Biso   1.000  H
  O32      1.0000 0.14150  0.75470  0.87590  Biso   1.000  O
  H115     1.0000 0.11170  0.70930  0.83800  Biso   1.000  H
  H116     1.0000 0.25670  0.64630  0.89530  Biso   1.000  H
  C59      1.0000 0.53900  0.58790  0.78680  Biso   1.000  C
  H117     1.0000 0.39940  0.40400  0.80400  Biso   1.000  H
  H118     1.0000 0.36110  0.50260  0.80270  Biso   1.000  H
  C60      1.0000 0.53850  0.58270  0.70710  Biso   1.000  C
  H119     1.0000 0.39970  0.41190  0.68990  Biso   1.000  H
  H120     1.0000 0.36640  0.50410  0.68850  Biso   1.000  H
  C61      1.0000 0.40800  0.48710  0.79030  Biso   1.000  C
  H121     1.0000 0.38340  0.42960  0.80650  Biso   1.000  H
  H122     1.0000 0.36830  0.53520  0.80700  Biso   1.000  H
  C62      1.0000 0.91060  0.98800  0.21060  Biso   1.000  C
  H123     1.0000 0.37210  0.53670  0.69350  Biso   1.000  H
  H124     1.0000 0.38600  0.43120  0.69300  Biso   1.000  H
  C63      1.0000 0.56200  0.42540  0.78950  Biso   1.000  C
  H125     1.0000 0.36720  0.45700  0.80870  Biso   1.000  H
  H126     1.0000 0.37600  0.56300  0.80450  Biso   1.000  H
  C64      1.0000 0.55620  0.42440  0.71080  Biso   1.000  C
  H127     1.0000 0.36750  0.47010  0.69490  Biso   1.000  H
  H128     1.0000 0.38340  0.57030  0.69050  Biso   1.000  H
  O33      1.0000 0.05330  0.12200  0.55718  Biso   1.000  O
  O34      1.0000 0.37830  0.44680  0.44255  Biso   1.000  O
  C65      1.0000 0.17090  0.26480  0.56260  Biso   1.000  C
  C66      1.0000 0.23540  0.33040  0.56250  Biso   1.000  C
  O35      1.0000 0.14340  0.23940  0.62460  Biso   1.000  O
  H129     1.0000 0.13220  0.27870  0.67090  Biso   1.000  H
  H130     1.0000 0.25670  0.35310  0.60600  Biso   1.000  H
  O36      1.0000 0.25470  0.35850  0.62410  Biso   1.000  O
  H131     1.0000 0.20930  0.38830  0.66200  Biso   1.000  H
  H132     1.0000 0.14630  0.24330  0.60470  Biso   1.000  H
  C67      1.0000 0.08790  0.96100  0.71320  Biso   1.000  C
  H133     1.0000 0.90400  0.10060  0.69600  Biso   1.000  H
  H134     1.0000 0.00260  0.13890  0.69730  Biso   1.000  H
  C68      1.0000 0.08270  0.96150  0.79290  Biso   1.000  C
  H135     1.0000 0.91190  0.10030  0.81010  Biso   1.000  H
  H136     1.0000 0.00410  0.13360  0.81150  Biso   1.000  H
  C69      1.0000 0.98710  0.09200  0.70970  Biso   1.000  C
  H137     1.0000 0.92960  0.11660  0.69350  Biso   1.000  H
  H138     1.0000 0.03520  0.13170  0.69300  Biso   1.000  H
  C70      1.0000 0.48800  0.58940  0.28940  Biso   1.000  C
  H139     1.0000 0.03670  0.12790  0.80650  Biso   1.000  H
  H140     1.0000 0.93120  0.11400  0.80700  Biso   1.000  H
  C71      1.0000 0.92540  0.93800  0.71050  Biso   1.000  C
  H141     1.0000 0.95700  0.13280  0.69130  Biso   1.000  H
  H142     1.0000 0.06300  0.12400  0.69550  Biso   1.000  H
  C72      1.0000 0.92440  0.94380  0.78920  Biso   1.000  C
  H143     1.0000 0.97010  0.13250  0.80510  Biso   1.000  H
  H144     1.0000 0.07030  0.11660  0.80950  Biso   1.000  H
  O37      1.0000 0.55330  0.62200  0.05718  Biso   1.000  O
  O38      1.0000 0.87830  0.94680  0.94255  Biso   1.000  O
  C73      1.0000 0.67090  0.76480  0.06260  Biso   1.000  C
  C74      1.0000 0.73540  0.83040  0.06250  Biso   1.000  C
  O39      1.0000 0.64340  0.73940  0.12460  Biso   1.000  O
  H145     1.0000 0.63220  0.77870  0.17090  Biso   1.000  H
  H146     1.0000 0.75670  0.85310  0.10600  Biso   1.000  H
  O40      1.0000 0.75470  0.85850  0.12410  Biso   1.000  O
  H147     1.0000 0.70930  0.88830  0.16200  Biso   1.000  H
  H148     1.0000 0.64630  0.74330  0.10470  Biso   1.000  H
  C75      1.0000 0.58790  0.46100  0.21320  Biso   1.000  C
  H149     1.0000 0.40400  0.60060  0.19600  Biso   1.000  H
  H150     1.0000 0.50260  0.63890  0.19730  Biso   1.000  H
  C76      1.0000 0.58270  0.46150  0.29290  Biso   1.000  C
  H151     1.0000 0.41190  0.60030  0.31010  Biso   1.000  H
  H152     1.0000 0.50410  0.63360  0.31150  Biso   1.000  H
  C77      1.0000 0.48710  0.59200  0.20970  Biso   1.000  C
  H153     1.0000 0.42960  0.61660  0.19350  Biso   1.000  H
  H154     1.0000 0.53520  0.63170  0.19300  Biso   1.000  H
  C78      1.0000 0.98800  0.08940  0.78940  Biso   1.000  C
  H155     1.0000 0.53670  0.62790  0.30650  Biso   1.000  H
  H156     1.0000 0.43120  0.61400  0.30700  Biso   1.000  H
  C79      1.0000 0.42540  0.43800  0.21050  Biso   1.000  C
  H157     1.0000 0.45700  0.63280  0.19130  Biso   1.000  H
  H158     1.0000 0.56300  0.62400  0.19550  Biso   1.000  H
  C80      1.0000 0.42440  0.44380  0.28920  Biso   1.000  C
  H159     1.0000 0.47010  0.63250  0.30510  Biso   1.000  H
  H160     1.0000 0.57030  0.61660  0.30950  Biso   1.000  H
  O41      1.0000 0.94670  0.87800  0.55718  Biso   1.000  O
  O42      1.0000 0.62170  0.55320  0.44255  Biso   1.000  O
  C81      1.0000 0.82910  0.73520  0.56260  Biso   1.000  C
  C82      1.0000 0.76460  0.66960  0.56250  Biso   1.000  C
  O43      1.0000 0.85660  0.76060  0.62460  Biso   1.000  O
  H161     1.0000 0.86780  0.72130  0.67090  Biso   1.000  H
  H162     1.0000 0.74330  0.64690  0.60600  Biso   1.000  H
  O44      1.0000 0.74530  0.64150  0.62410  Biso   1.000  O
  H163     1.0000 0.79070  0.61170  0.66200  Biso   1.000  H
  H164     1.0000 0.85370  0.75670  0.60470  Biso   1.000  H
  C83      1.0000 0.91210  0.03900  0.71320  Biso   1.000  C
  H165     1.0000 0.09600  0.89940  0.69600  Biso   1.000  H
  H166     1.0000 0.99740  0.86110  0.69730  Biso   1.000  H
  C84      1.0000 0.91730  0.03850  0.79290  Biso   1.000  C
  H167     1.0000 0.08810  0.89970  0.81010  Biso   1.000  H
  H168     1.0000 0.99590  0.86640  0.81150  Biso   1.000  H
  C85      1.0000 0.01290  0.90800  0.70970  Biso   1.000  C
  H169     1.0000 0.07040  0.88340  0.69350  Biso   1.000  H
  H170     1.0000 0.96480  0.86830  0.69300  Biso   1.000  H
  C86      1.0000 0.51200  0.41060  0.28940  Biso   1.000  C
  H171     1.0000 0.96330  0.87210  0.80650  Biso   1.000  H
  H172     1.0000 0.06880  0.88600  0.80700  Biso   1.000  H
  C87      1.0000 0.07460  0.06200  0.71050  Biso   1.000  C
  H173     1.0000 0.04300  0.86720  0.69130  Biso   1.000  H
  H174     1.0000 0.93700  0.87600  0.69550  Biso   1.000  H
  C88      1.0000 0.07560  0.05620  0.78920  Biso   1.000  C
  H175     1.0000 0.02990  0.86750  0.80510  Biso   1.000  H
  H176     1.0000 0.92970  0.88340  0.80950  Biso   1.000  H
  O45      1.0000 0.44670  0.37800  0.05718  Biso   1.000  O
  O46      1.0000 0.12170  0.05320  0.94255  Biso   1.000  O
  C89      1.0000 0.32910  0.23520  0.06260  Biso   1.000  C
  C90      1.0000 0.26460  0.16960  0.06250  Biso   1.000  C
  O47      1.0000 0.35660  0.26060  0.12460  Biso   1.000  O
  H177     1.0000 0.36780  0.22130  0.17090  Biso   1.000  H
  H178     1.0000 0.24330  0.14690  0.10600  Biso   1.000  H
  O48      1.0000 0.24530  0.14150  0.12410  Biso   1.000  O
  H179     1.0000 0.29070  0.11170  0.16200  Biso   1.000  H
  H180     1.0000 0.35370  0.25670  0.10470  Biso   1.000  H
  C91      1.0000 0.41210  0.53900  0.21320  Biso   1.000  C
  H181     1.0000 0.59600  0.39940  0.19600  Biso   1.000  H
  H182     1.0000 0.49740  0.36110  0.19730  Biso   1.000  H
  C92      1.0000 0.41730  0.53850  0.29290  Biso   1.000  C
  H183     1.0000 0.58810  0.39970  0.31010  Biso   1.000  H
  H184     1.0000 0.49590  0.36640  0.31150  Biso   1.000  H
  C93      1.0000 0.51290  0.40800  0.20970  Biso   1.000  C
  H185     1.0000 0.57040  0.38340  0.19350  Biso   1.000  H
  H186     1.0000 0.46480  0.36830  0.19300  Biso   1.000  H
  C94      1.0000 0.01200  0.91060  0.78940  Biso   1.000  C
  H187     1.0000 0.46330  0.37210  0.30650  Biso   1.000  H
  H188     1.0000 0.56880  0.38600  0.30700  Biso   1.000  H
  C95      1.0000 0.57460  0.56200  0.21050  Biso   1.000  C
  H189     1.0000 0.54300  0.36720  0.19130  Biso   1.000  H
  H190     1.0000 0.43700  0.37600  0.19550  Biso   1.000  H
  C96      1.0000 0.57560  0.55620  0.28920  Biso   1.000  C
  H191     1.0000 0.52990  0.36750  0.30510  Biso   1.000  H
  H192     1.0000 0.42970  0.38340  0.30950  Biso   1.000  H
  O49      1.0000 0.87800  0.05330  0.55718  Biso   1.000  O
  O50      1.0000 0.55320  0.37830  0.44255  Biso   1.000  O
  C97      1.0000 0.73520  0.17090  0.56260  Biso   1.000  C
  C98      1.0000 0.66960  0.23540  0.56250  Biso   1.000  C
  O51      1.0000 0.76060  0.14340  0.62460  Biso   1.000  O
  H193     1.0000 0.72130  0.13220  0.67090  Biso   1.000  H
  H194     1.0000 0.64690  0.25670  0.60600  Biso   1.000  H
  O52      1.0000 0.64150  0.25470  0.62410  Biso   1.000  O
  H195     1.0000 0.61170  0.20930  0.66200  Biso   1.000  H
  H196     1.0000 0.75670  0.14630  0.60470  Biso   1.000  H
  C99      1.0000 0.03900  0.08790  0.71320  Biso   1.000  C
  H197     1.0000 0.89940  0.90400  0.69600  Biso   1.000  H
  H198     1.0000 0.86110  0.00260  0.69730  Biso   1.000  H
  C100     1.0000 0.03850  0.08270  0.79290  Biso   1.000  C
  H199     1.0000 0.89970  0.91190  0.81010  Biso   1.000  H
  H200     1.0000 0.86640  0.00410  0.81150  Biso   1.000  H
  C101     1.0000 0.90800  0.98710  0.70970  Biso   1.000  C
  H201     1.0000 0.88340  0.92960  0.69350  Biso   1.000  H
  H202     1.0000 0.86830  0.03520  0.69300  Biso   1.000  H
  C102     1.0000 0.41060  0.48800  0.28940  Biso   1.000  C
  H203     1.0000 0.87210  0.03670  0.80650  Biso   1.000  H
  H204     1.0000 0.88600  0.93120  0.80700  Biso   1.000  H
  C103     1.0000 0.06200  0.92540  0.71050  Biso   1.000  C
  H205     1.0000 0.86720  0.95700  0.69130  Biso   1.000  H
  H206     1.0000 0.87600  0.06300  0.69550  Biso   1.000  H
  C104     1.0000 0.05620  0.92440  0.78920  Biso   1.000  C
  H207     1.0000 0.86750  0.97010  0.80510  Biso   1.000  H
  H208     1.0000 0.88340  0.07030  0.80950  Biso   1.000  H
  O53      1.0000 0.37800  0.55330  0.05718  Biso   1.000  O
  O54      1.0000 0.05320  0.87830  0.94255  Biso   1.000  O
  C105     1.0000 0.23520  0.67090  0.06260  Biso   1.000  C
  C106     1.0000 0.16960  0.73540  0.06250  Biso   1.000  C
  O55      1.0000 0.26060  0.64340  0.12460  Biso   1.000  O
  H209     1.0000 0.22130  0.63220  0.17090  Biso   1.000  H
  H210     1.0000 0.14690  0.75670  0.10600  Biso   1.000  H
  O56      1.0000 0.14150  0.75470  0.12410  Biso   1.000  O
  H211     1.0000 0.11170  0.70930  0.16200  Biso   1.000  H
  H212     1.0000 0.25670  0.64630  0.10470  Biso   1.000  H
  C107     1.0000 0.53900  0.58790  0.21320  Biso   1.000  C
  H213     1.0000 0.39940  0.40400  0.19600  Biso   1.000  H
  H214     1.0000 0.36110  0.50260  0.19730  Biso   1.000  H
  C108     1.0000 0.53850  0.58270  0.29290  Biso   1.000  C
  H215     1.0000 0.39970  0.41190  0.31010  Biso   1.000  H
  H216     1.0000 0.36640  0.50410  0.31150  Biso   1.000  H
  C109     1.0000 0.40800  0.48710  0.20970  Biso   1.000  C
  H217     1.0000 0.38340  0.42960  0.19350  Biso   1.000  H
  H218     1.0000 0.36830  0.53520  0.19300  Biso   1.000  H
  C110     1.0000 0.91060  0.98800  0.78940  Biso   1.000  C
  H219     1.0000 0.37210  0.53670  0.30650  Biso   1.000  H
  H220     1.0000 0.38600  0.43120  0.30700  Biso   1.000  H
  C111     1.0000 0.56200  0.42540  0.21050  Biso   1.000  C
  H221     1.0000 0.36720  0.45700  0.19130  Biso   1.000  H
  H222     1.0000 0.37600  0.56300  0.19550  Biso   1.000  H
  C112     1.0000 0.55620  0.42440  0.28920  Biso   1.000  C
  H223     1.0000 0.36750  0.47010  0.30510  Biso   1.000  H
  H224     1.0000 0.38340  0.57030  0.30950  Biso   1.000  H
  O57      1.0000 0.12200  0.94670  0.55718  Biso   1.000  O
  O58      1.0000 0.44680  0.62170  0.44255  Biso   1.000  O
  C113     1.0000 0.26480  0.82910  0.56260  Biso   1.000  C
  C114     1.0000 0.33040  0.76460  0.56250  Biso   1.000  C
  O59      1.0000 0.23940  0.85660  0.62460  Biso   1.000  O
  H225     1.0000 0.27870  0.86780  0.67090  Biso   1.000  H
  H226     1.0000 0.35310  0.74330  0.60600  Biso   1.000  H
  O60      1.0000 0.35850  0.74530  0.62410  Biso   1.000  O
  H227     1.0000 0.38830  0.79070  0.66200  Biso   1.000  H
  H228     1.0000 0.24330  0.85370  0.60470  Biso   1.000  H
  C115     1.0000 0.96100  0.91210  0.71320  Biso   1.000  C
  H229     1.0000 0.10060  0.09600  0.69600  Biso   1.000  H
  H230     1.0000 0.13890  0.99740  0.69730  Biso   1.000  H
  C116     1.0000 0.96150  0.91730  0.79290  Biso   1.000  C
  H231     1.0000 0.10030  0.08810  0.81010  Biso   1.000  H
  H232     1.0000 0.13360  0.99590  0.81150  Biso   1.000  H
  C117     1.0000 0.09200  0.01290  0.70970  Biso   1.000  C
  H233     1.0000 0.11660  0.07040  0.69350  Biso   1.000  H
  H234     1.0000 0.13170  0.96480  0.69300  Biso   1.000  H
  C118     1.0000 0.58940  0.51200  0.28940  Biso   1.000  C
  H235     1.0000 0.12790  0.96330  0.80650  Biso   1.000  H
  H236     1.0000 0.11400  0.06880  0.80700  Biso   1.000  H
  C119     1.0000 0.93800  0.07460  0.71050  Biso   1.000  C
  H237     1.0000 0.13280  0.04300  0.69130  Biso   1.000  H
  H238     1.0000 0.12400  0.93700  0.69550  Biso   1.000  H
  C120     1.0000 0.94380  0.07560  0.78920  Biso   1.000  C
  H239     1.0000 0.13250  0.02990  0.80510  Biso   1.000  H
  H240     1.0000 0.11660  0.92970  0.80950  Biso   1.000  H
  O61      1.0000 0.62200  0.44670  0.05718  Biso   1.000  O
  O62      1.0000 0.94680  0.12170  0.94255  Biso   1.000  O
  C121     1.0000 0.76480  0.32910  0.06260  Biso   1.000  C
  C122     1.0000 0.83040  0.26460  0.06250  Biso   1.000  C
  O63      1.0000 0.73940  0.35660  0.12460  Biso   1.000  O
  H241     1.0000 0.77870  0.36780  0.17090  Biso   1.000  H
  H242     1.0000 0.85310  0.24330  0.10600  Biso   1.000  H
  O64      1.0000 0.85850  0.24530  0.12410  Biso   1.000  O
  H243     1.0000 0.88830  0.29070  0.16200  Biso   1.000  H
  H244     1.0000 0.74330  0.35370  0.10470  Biso   1.000  H
  C123     1.0000 0.46100  0.41210  0.21320  Biso   1.000  C
  H245     1.0000 0.60060  0.59600  0.19600  Biso   1.000  H
  H246     1.0000 0.63890  0.49740  0.19730  Biso   1.000  H
  C124     1.0000 0.46150  0.41730  0.29290  Biso   1.000  C
  H247     1.0000 0.60030  0.58810  0.31010  Biso   1.000  H
  H248     1.0000 0.63360  0.49590  0.31150  Biso   1.000  H
  C125     1.0000 0.59200  0.51290  0.20970  Biso   1.000  C
  H249     1.0000 0.61660  0.57040  0.19350  Biso   1.000  H
  H250     1.0000 0.63170  0.46480  0.19300  Biso   1.000  H
  C126     1.0000 0.08940  0.01200  0.78940  Biso   1.000  C
  H251     1.0000 0.62790  0.46330  0.30650  Biso   1.000  H
  H252     1.0000 0.61400  0.56880  0.30700  Biso   1.000  H
  C127     1.0000 0.43800  0.57460  0.21050  Biso   1.000  C
  H253     1.0000 0.63280  0.54300  0.19130  Biso   1.000  H
  H254     1.0000 0.62400  0.43700  0.19550  Biso   1.000  H
  C128     1.0000 0.44380  0.57560  0.28920  Biso   1.000  C
  H255     1.0000 0.63250  0.52990  0.30510  Biso   1.000  H
  H256     1.0000 0.61660  0.42970  0.30950  Biso   1.000  H
  Zn1      1.0000 0.00000  0.00000  0.42277  Biso   1.000  Zn
  N1       1.0000 0.00000  0.00000  0.31430  Biso   1.000  N
  N2       1.0000 0.00000  0.00000  0.32040  Biso   1.000  N
  N3       1.0000 0.00000  0.00000  0.31560  Biso   1.000  N
  N4       1.0000 0.00000  0.00000  0.18730  Biso   1.000  N
  Zn2      1.0000 0.50000  0.50000  0.92277  Biso   1.000  Zn
  N5       1.0000 0.50000  0.50000  0.81430  Biso   1.000  N
  N6       1.0000 0.50000  0.50000  0.82040  Biso   1.000  N
  N7       1.0000 0.50000  0.50000  0.81560  Biso   1.000  N
  N8       1.0000 0.50000  0.50000  0.68730  Biso   1.000  N
  Zn3      1.0000 0.00000  0.00000  0.57723  Biso   1.000  Zn
  N9       1.0000 0.00000  0.00000  0.68570  Biso   1.000  N
  N10      1.0000 0.00000  0.00000  0.67960  Biso   1.000  N
  N11      1.0000 0.00000  0.00000  0.68440  Biso   1.000  N
  N12      1.0000 0.00000  0.00000  0.81270  Biso   1.000  N
  Zn4      1.0000 0.50000  0.50000  0.07723  Biso   1.000  Zn
  N13      1.0000 0.50000  0.50000  0.18570  Biso   1.000  N
  N14      1.0000 0.50000  0.50000  0.17960  Biso   1.000  N
  N15      1.0000 0.50000  0.50000  0.18440  Biso   1.000  N
  N16      1.0000 0.50000  0.50000  0.31270  Biso   1.000  N
  Zn5      1.0000 0.50000  0.50000  0.57728  Biso   1.000  Zn
  N17      1.0000 0.50000  0.50000  0.68080  Biso   1.000  N
  Zn6      1.0000 0.00000  0.00000  0.07728  Biso   1.000  Zn
  N18      1.0000 0.00000  0.00000  0.18080  Biso   1.000  N
  Zn7      1.0000 0.50000  0.50000  0.42272  Biso   1.000  Zn
  N19      1.0000 0.50000  0.50000  0.31920  Biso   1.000  N
  Zn8      1.0000 0.00000  0.00000  0.92272  Biso   1.000  Zn
  N20      1.0000 0.00000  0.00000  0.81920  Biso   1.000  N
  C129     1.0000 0.92290  0.84720  0.50000  Biso   1.000  C
  C130     1.0000 0.86210  0.77040  0.50000  Biso   1.000  C
  C131     1.0000 0.73100  0.63980  0.50000  Biso   1.000  C
  C132     1.0000 0.65180  0.57660  0.50000  Biso   1.000  C
  C133     1.0000 0.42290  0.34720  0.00000  Biso   1.000  C
  C134     1.0000 0.36210  0.27040  0.00000  Biso   1.000  C
  C135     1.0000 0.23100  0.13980  0.00000  Biso   1.000  C
  C136     1.0000 0.15180  0.07660  0.00000  Biso   1.000  C
  C137     1.0000 0.07710  0.15280  0.50000  Biso   1.000  C
  C138     1.0000 0.13790  0.22960  0.50000  Biso   1.000  C
  C139     1.0000 0.26900  0.36020  0.50000  Biso   1.000  C
  C140     1.0000 0.34820  0.42340  0.50000  Biso   1.000  C
  C141     1.0000 0.57710  0.65280  0.00000  Biso   1.000  C
  C142     1.0000 0.63790  0.72960  0.00000  Biso   1.000  C
  C143     1.0000 0.76900  0.86020  0.00000  Biso   1.000  C
  C144     1.0000 0.84820  0.92340  0.00000  Biso   1.000  C
  C145     1.0000 0.15280  0.92290  0.50000  Biso   1.000  C
  C146     1.0000 0.22960  0.86210  0.50000  Biso   1.000  C
  C147     1.0000 0.36020  0.73100  0.50000  Biso   1.000  C
  C148     1.0000 0.42340  0.65180  0.50000  Biso   1.000  C
  C149     1.0000 0.65280  0.42290  0.00000  Biso   1.000  C
  C150     1.0000 0.72960  0.36210  0.00000  Biso   1.000  C
  C151     1.0000 0.86020  0.23100  0.00000  Biso   1.000  C
  C152     1.0000 0.92340  0.15180  0.00000  Biso   1.000  C
  C153     1.0000 0.84720  0.07710  0.50000  Biso   1.000  C
  C154     1.0000 0.77040  0.13790  0.50000  Biso   1.000  C
  C155     1.0000 0.63980  0.26900  0.50000  Biso   1.000  C
  C156     1.0000 0.57660  0.34820  0.50000  Biso   1.000  C
  C157     1.0000 0.34720  0.57710  0.00000  Biso   1.000  C
  C158     1.0000 0.27040  0.63790  0.00000  Biso   1.000  C
  C159     1.0000 0.13980  0.76900  0.00000  Biso   1.000  C
  C160     1.0000 0.07660  0.84820  0.00000  Biso   1.000  C
