data_image0
_cell_length_a       23.01
_cell_length_b       9.672
_cell_length_c       26.09
_cell_angle_alpha    90
_cell_angle_beta     97.62
_cell_angle_gamma    90

_symmetry_space_group_name_H-M    "P 1"
_symmetry_int_tables_number       1

loop_
  _symmetry_equiv_pos_as_xyz
  'x, y, z'

loop_
  _atom_site_label
  _atom_site_occupancy
  _atom_site_fract_x
  _atom_site_fract_y
  _atom_site_fract_z
  _atom_site_thermal_displace_type
  _atom_site_B_iso_or_equiv
  _atom_site_type_symbol
  Zn1      1.0000 0.21504  0.12173  0.98905  Biso   1.000  Zn
  N1       1.0000 0.01570  0.04630  0.00480  Biso   1.000  N
  C1       1.0000 0.99700  0.14810  0.96950  Biso   1.000  C
  C2       1.0000 0.94930  0.14650  0.93070  Biso   1.000  C
  H1       1.0000 0.92530  0.06900  0.92610  Biso   1.000  H
  C3       1.0000 0.93760  0.26090  0.89880  Biso   1.000  C
  H2       1.0000 0.90570  0.25990  0.87280  Biso   1.000  H
  C4       1.0000 0.97350  0.37690  0.90560  Biso   1.000  C
  H3       1.0000 0.96560  0.45340  0.88430  Biso   1.000  H
  C5       1.0000 0.02110  0.37840  0.94440  Biso   1.000  C
  C6       1.0000 0.03290  0.26400  0.97640  Biso   1.000  C
  H4       1.0000 0.06470  0.26500  0.00230  Biso   1.000  H
  C7       1.0000 0.05900  0.49470  0.95280  Biso   1.000  C
  H5       1.0000 0.09110  0.48360  0.97810  Biso   1.000  H
  C8       1.0000 0.09460  0.72490  0.94700  Biso   1.000  C
  C9       1.0000 0.13900  0.70980  0.98830  Biso   1.000  C
  H6       1.0000 0.14370  0.62610  0.00590  Biso   1.000  H
  C10      1.0000 0.17630  0.81980  0.00330  Biso   1.000  C
  H7       1.0000 0.20590  0.80970  0.03090  Biso   1.000  H
  N2       1.0000 0.16920  0.94490  0.97700  Biso   1.000  N
  C11      1.0000 0.12480  0.96000  0.93570  Biso   1.000  C
  H8       1.0000 0.12010  0.04370  0.91810  Biso   1.000  H
  C12      1.0000 0.08750  0.85000  0.92070  Biso   1.000  C
  H9       1.0000 0.05780  0.86010  0.89310  Biso   1.000  H
  C13      1.0000 0.05500  0.61100  0.93060  Biso   1.000  C
  H10      1.0000 0.02580  0.62450  0.90290  Biso   1.000  H
  O1       1.0000 0.27460  0.07140  0.05154  Biso   1.000  O
  O2       1.0000 0.32720  0.25970  0.06854  Biso   1.000  O
  O3       1.0000 0.43070  0.89560  0.25805  Biso   1.000  O
  O4       1.0000 0.27850  0.90150  0.44268  Biso   1.000  O
  O5       1.0000 0.33240  0.71380  0.46024  Biso   1.000  O
  C14      1.0000 0.31240  0.14030  0.07730  Biso   1.000  C
  C15      1.0000 0.34360  0.07390  0.12630  Biso   1.000  C
  C16      1.0000 0.32470  0.95370  0.14300  Biso   1.000  C
  H11      1.0000 0.29210  0.91160  0.12440  Biso   1.000  H
  C17      1.0000 0.35140  0.89160  0.18620  Biso   1.000  C
  H12      1.0000 0.33750  0.80780  0.19720  Biso   1.000  H
  C18      1.0000 0.40000  0.95480  0.21420  Biso   1.000  C
  C19      1.0000 0.42030  0.07690  0.19810  Biso   1.000  C
  H13      1.0000 0.45300  0.11880  0.21650  Biso   1.000  H
  C20      1.0000 0.39190  0.13770  0.15430  Biso   1.000  C
  H14      1.0000 0.40500  0.22220  0.14330  Biso   1.000  H
  C21      1.0000 0.40190  0.88240  0.30090  Biso   1.000  C
  C22      1.0000 0.35560  0.96640  0.30970  Biso   1.000  C
  H15      1.0000 0.34220  0.03540  0.28630  Biso   1.000  H
  C23      1.0000 0.33000  0.94640  0.35330  Biso   1.000  C
  H16      1.0000 0.29880  0.00240  0.35930  Biso   1.000  H
  C24      1.0000 0.34950  0.84460  0.38880  Biso   1.000  C
  C25      1.0000 0.39490  0.76290  0.38010  Biso   1.000  C
  H17      1.0000 0.40790  0.69380  0.40370  Biso   1.000  H
  C26      1.0000 0.42250  0.78150  0.33590  Biso   1.000  C
  H18      1.0000 0.45410  0.72650  0.33020  Biso   1.000  H
  C27      1.0000 0.31850  0.82010  0.43460  Biso   1.000  C
  N3       1.0000 0.98900  0.00710  0.97740  Biso   1.000  N
  C28      1.0000 0.98120  0.13530  0.94990  Biso   1.000  C
  C29      1.0000 0.93600  0.13900  0.90890  Biso   1.000  C
  H19      1.0000 0.91300  0.06110  0.90070  Biso   1.000  H
  C30      1.0000 0.92530  0.25920  0.88000  Biso   1.000  C
  H20      1.0000 0.89510  0.26170  0.85250  Biso   1.000  H
  C31      1.0000 0.95980  0.37570  0.89210  Biso   1.000  C
  H21      1.0000 0.95260  0.45620  0.87270  Biso   1.000  H
  C32      1.0000 0.00500  0.37200  0.93310  Biso   1.000  C
  C33      1.0000 0.01570  0.25180  0.96200  Biso   1.000  C
  H22      1.0000 0.04590  0.24920  0.98940  Biso   1.000  H
  C34      1.0000 0.04130  0.49760  0.94540  Biso   1.000  C
  H23      1.0000 0.02400  0.56710  0.92390  Biso   1.000  H
  C35      1.0000 0.11550  0.68890  0.97320  Biso   1.000  C
  C36      1.0000 0.16460  0.71400  0.00910  Biso   1.000  C
  H24      1.0000 0.17870  0.64540  0.03250  Biso   1.000  H
  C37      1.0000 0.19250  0.84150  0.01010  Biso   1.000  C
  H25      1.0000 0.22540  0.85830  0.03410  Biso   1.000  H
  N4       1.0000 0.17140  0.94400  0.97520  Biso   1.000  N
  C38      1.0000 0.12230  0.91900  0.93930  Biso   1.000  C
  H26      1.0000 0.10810  0.98760  0.91590  Biso   1.000  H
  C39      1.0000 0.09430  0.79140  0.93830  Biso   1.000  C
  H27      1.0000 0.06140  0.77470  0.91430  Biso   1.000  H
  C40      1.0000 0.08620  0.55310  0.97260  Biso   1.000  C
  H28      1.0000 0.10440  0.49340  0.99770  Biso   1.000  H
  Zn2      1.0000 0.71504  0.62173  0.98905  Biso   1.000  Zn
  N5       1.0000 0.51570  0.54630  0.00480  Biso   1.000  N
  C41      1.0000 0.49700  0.64810  0.96950  Biso   1.000  C
  C42      1.0000 0.44930  0.64650  0.93070  Biso   1.000  C
  H29      1.0000 0.42530  0.56900  0.92610  Biso   1.000  H
  C43      1.0000 0.43760  0.76090  0.89880  Biso   1.000  C
  H30      1.0000 0.40570  0.75990  0.87280  Biso   1.000  H
  C44      1.0000 0.47350  0.87690  0.90560  Biso   1.000  C
  H31      1.0000 0.46560  0.95340  0.88430  Biso   1.000  H
  C45      1.0000 0.52110  0.87840  0.94440  Biso   1.000  C
  C46      1.0000 0.53290  0.76400  0.97640  Biso   1.000  C
  H32      1.0000 0.56470  0.76500  0.00230  Biso   1.000  H
  C47      1.0000 0.55900  0.99470  0.95280  Biso   1.000  C
  H33      1.0000 0.59110  0.98360  0.97810  Biso   1.000  H
  C48      1.0000 0.59460  0.22490  0.94700  Biso   1.000  C
  C49      1.0000 0.63900  0.20980  0.98830  Biso   1.000  C
  H34      1.0000 0.64370  0.12610  0.00590  Biso   1.000  H
  C50      1.0000 0.67630  0.31980  0.00330  Biso   1.000  C
  H35      1.0000 0.70590  0.30970  0.03090  Biso   1.000  H
  N6       1.0000 0.66920  0.44490  0.97700  Biso   1.000  N
  C51      1.0000 0.62480  0.46000  0.93570  Biso   1.000  C
  H36      1.0000 0.62010  0.54370  0.91810  Biso   1.000  H
  C52      1.0000 0.58750  0.35000  0.92070  Biso   1.000  C
  H37      1.0000 0.55780  0.36010  0.89310  Biso   1.000  H
  C53      1.0000 0.55500  0.11100  0.93060  Biso   1.000  C
  H38      1.0000 0.52580  0.12450  0.90290  Biso   1.000  H
  O6       1.0000 0.77460  0.57140  0.05154  Biso   1.000  O
  O7       1.0000 0.82720  0.75970  0.06854  Biso   1.000  O
  O8       1.0000 0.93070  0.39560  0.25805  Biso   1.000  O
  O9       1.0000 0.77850  0.40150  0.44268  Biso   1.000  O
  O10      1.0000 0.83240  0.21380  0.46024  Biso   1.000  O
  C54      1.0000 0.81240  0.64030  0.07730  Biso   1.000  C
  C55      1.0000 0.84360  0.57390  0.12630  Biso   1.000  C
  C56      1.0000 0.82470  0.45370  0.14300  Biso   1.000  C
  H39      1.0000 0.79210  0.41160  0.12440  Biso   1.000  H
  C57      1.0000 0.85140  0.39160  0.18620  Biso   1.000  C
  H40      1.0000 0.83750  0.30780  0.19720  Biso   1.000  H
  C58      1.0000 0.90000  0.45480  0.21420  Biso   1.000  C
  C59      1.0000 0.92030  0.57690  0.19810  Biso   1.000  C
  H41      1.0000 0.95300  0.61880  0.21650  Biso   1.000  H
  C60      1.0000 0.89190  0.63770  0.15430  Biso   1.000  C
  H42      1.0000 0.90500  0.72220  0.14330  Biso   1.000  H
  C61      1.0000 0.90190  0.38240  0.30090  Biso   1.000  C
  C62      1.0000 0.85560  0.46640  0.30970  Biso   1.000  C
  H43      1.0000 0.84220  0.53540  0.28630  Biso   1.000  H
  C63      1.0000 0.83000  0.44640  0.35330  Biso   1.000  C
  H44      1.0000 0.79880  0.50240  0.35930  Biso   1.000  H
  C64      1.0000 0.84950  0.34460  0.38880  Biso   1.000  C
  C65      1.0000 0.89490  0.26290  0.38010  Biso   1.000  C
  H45      1.0000 0.90790  0.19380  0.40370  Biso   1.000  H
  C66      1.0000 0.92250  0.28150  0.33590  Biso   1.000  C
  H46      1.0000 0.95410  0.22650  0.33020  Biso   1.000  H
  C67      1.0000 0.81850  0.32010  0.43460  Biso   1.000  C
  N7       1.0000 0.48900  0.50710  0.97740  Biso   1.000  N
  C68      1.0000 0.48120  0.63530  0.94990  Biso   1.000  C
  C69      1.0000 0.43600  0.63900  0.90890  Biso   1.000  C
  H47      1.0000 0.41300  0.56110  0.90070  Biso   1.000  H
  C70      1.0000 0.42530  0.75920  0.88000  Biso   1.000  C
  H48      1.0000 0.39510  0.76170  0.85250  Biso   1.000  H
  C71      1.0000 0.45980  0.87570  0.89210  Biso   1.000  C
  H49      1.0000 0.45260  0.95620  0.87270  Biso   1.000  H
  C72      1.0000 0.50500  0.87200  0.93310  Biso   1.000  C
  C73      1.0000 0.51570  0.75180  0.96200  Biso   1.000  C
  H50      1.0000 0.54590  0.74920  0.98940  Biso   1.000  H
  C74      1.0000 0.54130  0.99760  0.94540  Biso   1.000  C
  H51      1.0000 0.52400  0.06710  0.92390  Biso   1.000  H
  C75      1.0000 0.61550  0.18890  0.97320  Biso   1.000  C
  C76      1.0000 0.66460  0.21400  0.00910  Biso   1.000  C
  H52      1.0000 0.67870  0.14540  0.03250  Biso   1.000  H
  C77      1.0000 0.69250  0.34150  0.01010  Biso   1.000  C
  H53      1.0000 0.72540  0.35830  0.03410  Biso   1.000  H
  N8       1.0000 0.67140  0.44400  0.97520  Biso   1.000  N
  C78      1.0000 0.62230  0.41900  0.93930  Biso   1.000  C
  H54      1.0000 0.60810  0.48760  0.91590  Biso   1.000  H
  C79      1.0000 0.59430  0.29140  0.93830  Biso   1.000  C
  H55      1.0000 0.56140  0.27470  0.91430  Biso   1.000  H
  C80      1.0000 0.58620  0.05310  0.97260  Biso   1.000  C
  H56      1.0000 0.60440  0.99340  0.99770  Biso   1.000  H
  Zn3      1.0000 0.78496  0.12173  0.51095  Biso   1.000  Zn
  N9       1.0000 0.98430  0.04630  0.49520  Biso   1.000  N
  C81      1.0000 0.00300  0.14810  0.53050  Biso   1.000  C
  C82      1.0000 0.05070  0.14650  0.56930  Biso   1.000  C
  H57      1.0000 0.07470  0.06900  0.57390  Biso   1.000  H
  C83      1.0000 0.06240  0.26090  0.60120  Biso   1.000  C
  H58      1.0000 0.09430  0.25990  0.62720  Biso   1.000  H
  C84      1.0000 0.02650  0.37690  0.59440  Biso   1.000  C
  H59      1.0000 0.03440  0.45340  0.61570  Biso   1.000  H
  C85      1.0000 0.97890  0.37840  0.55560  Biso   1.000  C
  C86      1.0000 0.96710  0.26400  0.52360  Biso   1.000  C
  H60      1.0000 0.93530  0.26500  0.49770  Biso   1.000  H
  C87      1.0000 0.94100  0.49470  0.54720  Biso   1.000  C
  H61      1.0000 0.90890  0.48360  0.52190  Biso   1.000  H
  C88      1.0000 0.90540  0.72490  0.55300  Biso   1.000  C
  C89      1.0000 0.86100  0.70980  0.51170  Biso   1.000  C
  H62      1.0000 0.85630  0.62610  0.49410  Biso   1.000  H
  C90      1.0000 0.82370  0.81980  0.49670  Biso   1.000  C
  H63      1.0000 0.79410  0.80970  0.46910  Biso   1.000  H
  N10      1.0000 0.83080  0.94490  0.52300  Biso   1.000  N
  C91      1.0000 0.87520  0.96000  0.56430  Biso   1.000  C
  H64      1.0000 0.87990  0.04370  0.58190  Biso   1.000  H
  C92      1.0000 0.91250  0.85000  0.57930  Biso   1.000  C
  H65      1.0000 0.94220  0.86010  0.60690  Biso   1.000  H
  C93      1.0000 0.94500  0.61100  0.56940  Biso   1.000  C
  H66      1.0000 0.97420  0.62450  0.59710  Biso   1.000  H
  O11      1.0000 0.72540  0.07140  0.44846  Biso   1.000  O
  O12      1.0000 0.67280  0.25970  0.43146  Biso   1.000  O
  O13      1.0000 0.56930  0.89560  0.24195  Biso   1.000  O
  O14      1.0000 0.72150  0.90150  0.05732  Biso   1.000  O
  O15      1.0000 0.66760  0.71380  0.03976  Biso   1.000  O
  C94      1.0000 0.68760  0.14030  0.42270  Biso   1.000  C
  C95      1.0000 0.65640  0.07390  0.37370  Biso   1.000  C
  C96      1.0000 0.67530  0.95370  0.35700  Biso   1.000  C
  H67      1.0000 0.70790  0.91160  0.37560  Biso   1.000  H
  C97      1.0000 0.64860  0.89160  0.31380  Biso   1.000  C
  H68      1.0000 0.66250  0.80780  0.30280  Biso   1.000  H
  C98      1.0000 0.60000  0.95480  0.28580  Biso   1.000  C
  C99      1.0000 0.57970  0.07690  0.30190  Biso   1.000  C
  H69      1.0000 0.54700  0.11880  0.28350  Biso   1.000  H
  C100     1.0000 0.60810  0.13770  0.34570  Biso   1.000  C
  H70      1.0000 0.59500  0.22220  0.35670  Biso   1.000  H
  C101     1.0000 0.59810  0.88240  0.19910  Biso   1.000  C
  C102     1.0000 0.64440  0.96640  0.19030  Biso   1.000  C
  H71      1.0000 0.65780  0.03540  0.21370  Biso   1.000  H
  C103     1.0000 0.67000  0.94640  0.14670  Biso   1.000  C
  H72      1.0000 0.70120  0.00240  0.14070  Biso   1.000  H
  C104     1.0000 0.65050  0.84460  0.11120  Biso   1.000  C
  C105     1.0000 0.60510  0.76290  0.11990  Biso   1.000  C
  H73      1.0000 0.59210  0.69380  0.09630  Biso   1.000  H
  C106     1.0000 0.57750  0.78150  0.16410  Biso   1.000  C
  H74      1.0000 0.54590  0.72650  0.16980  Biso   1.000  H
  C107     1.0000 0.68150  0.82010  0.06540  Biso   1.000  C
  N11      1.0000 0.01100  0.00710  0.52260  Biso   1.000  N
  C108     1.0000 0.01880  0.13530  0.55010  Biso   1.000  C
  C109     1.0000 0.06400  0.13900  0.59110  Biso   1.000  C
  H75      1.0000 0.08700  0.06110  0.59930  Biso   1.000  H
  C110     1.0000 0.07470  0.25920  0.62000  Biso   1.000  C
  H76      1.0000 0.10490  0.26170  0.64750  Biso   1.000  H
  C111     1.0000 0.04020  0.37570  0.60790  Biso   1.000  C
  H77      1.0000 0.04740  0.45620  0.62730  Biso   1.000  H
  C112     1.0000 0.99500  0.37200  0.56690  Biso   1.000  C
  C113     1.0000 0.98430  0.25180  0.53800  Biso   1.000  C
  H78      1.0000 0.95410  0.24920  0.51060  Biso   1.000  H
  C114     1.0000 0.95870  0.49760  0.55460  Biso   1.000  C
  H79      1.0000 0.97600  0.56710  0.57610  Biso   1.000  H
  C115     1.0000 0.88450  0.68890  0.52680  Biso   1.000  C
  C116     1.0000 0.83540  0.71400  0.49090  Biso   1.000  C
  H80      1.0000 0.82130  0.64540  0.46750  Biso   1.000  H
  C117     1.0000 0.80750  0.84150  0.48990  Biso   1.000  C
  H81      1.0000 0.77460  0.85830  0.46590  Biso   1.000  H
  N12      1.0000 0.82860  0.94400  0.52480  Biso   1.000  N
  C118     1.0000 0.87770  0.91900  0.56070  Biso   1.000  C
  H82      1.0000 0.89190  0.98760  0.58410  Biso   1.000  H
  C119     1.0000 0.90570  0.79140  0.56170  Biso   1.000  C
  H83      1.0000 0.93860  0.77470  0.58570  Biso   1.000  H
  C120     1.0000 0.91380  0.55310  0.52740  Biso   1.000  C
  H84      1.0000 0.89560  0.49340  0.50230  Biso   1.000  H
  Zn4      1.0000 0.28496  0.62173  0.51095  Biso   1.000  Zn
  N13      1.0000 0.48430  0.54630  0.49520  Biso   1.000  N
  C121     1.0000 0.50300  0.64810  0.53050  Biso   1.000  C
  C122     1.0000 0.55070  0.64650  0.56930  Biso   1.000  C
  H85      1.0000 0.57470  0.56900  0.57390  Biso   1.000  H
  C123     1.0000 0.56240  0.76090  0.60120  Biso   1.000  C
  H86      1.0000 0.59430  0.75990  0.62720  Biso   1.000  H
  C124     1.0000 0.52650  0.87690  0.59440  Biso   1.000  C
  H87      1.0000 0.53440  0.95340  0.61570  Biso   1.000  H
  C125     1.0000 0.47890  0.87840  0.55560  Biso   1.000  C
  C126     1.0000 0.46710  0.76400  0.52360  Biso   1.000  C
  H88      1.0000 0.43530  0.76500  0.49770  Biso   1.000  H
  C127     1.0000 0.44100  0.99470  0.54720  Biso   1.000  C
  H89      1.0000 0.40890  0.98360  0.52190  Biso   1.000  H
  C128     1.0000 0.40540  0.22490  0.55300  Biso   1.000  C
  C129     1.0000 0.36100  0.20980  0.51170  Biso   1.000  C
  H90      1.0000 0.35630  0.12610  0.49410  Biso   1.000  H
  C130     1.0000 0.32370  0.31980  0.49670  Biso   1.000  C
  H91      1.0000 0.29410  0.30970  0.46910  Biso   1.000  H
  N14      1.0000 0.33080  0.44490  0.52300  Biso   1.000  N
  C131     1.0000 0.37520  0.46000  0.56430  Biso   1.000  C
  H92      1.0000 0.37990  0.54370  0.58190  Biso   1.000  H
  C132     1.0000 0.41250  0.35000  0.57930  Biso   1.000  C
  H93      1.0000 0.44220  0.36010  0.60690  Biso   1.000  H
  C133     1.0000 0.44500  0.11100  0.56940  Biso   1.000  C
  H94      1.0000 0.47420  0.12450  0.59710  Biso   1.000  H
  O16      1.0000 0.22540  0.57140  0.44846  Biso   1.000  O
  O17      1.0000 0.17280  0.75970  0.43146  Biso   1.000  O
  O18      1.0000 0.06930  0.39560  0.24195  Biso   1.000  O
  O19      1.0000 0.22150  0.40150  0.05732  Biso   1.000  O
  O20      1.0000 0.16760  0.21380  0.03976  Biso   1.000  O
  C134     1.0000 0.18760  0.64030  0.42270  Biso   1.000  C
  C135     1.0000 0.15640  0.57390  0.37370  Biso   1.000  C
  C136     1.0000 0.17530  0.45370  0.35700  Biso   1.000  C
  H95      1.0000 0.20790  0.41160  0.37560  Biso   1.000  H
  C137     1.0000 0.14860  0.39160  0.31380  Biso   1.000  C
  H96      1.0000 0.16250  0.30780  0.30280  Biso   1.000  H
  C138     1.0000 0.10000  0.45480  0.28580  Biso   1.000  C
  C139     1.0000 0.07970  0.57690  0.30190  Biso   1.000  C
  H97      1.0000 0.04700  0.61880  0.28350  Biso   1.000  H
  C140     1.0000 0.10810  0.63770  0.34570  Biso   1.000  C
  H98      1.0000 0.09500  0.72220  0.35670  Biso   1.000  H
  C141     1.0000 0.09810  0.38240  0.19910  Biso   1.000  C
  C142     1.0000 0.14440  0.46640  0.19030  Biso   1.000  C
  H99      1.0000 0.15780  0.53540  0.21370  Biso   1.000  H
  C143     1.0000 0.17000  0.44640  0.14670  Biso   1.000  C
  H100     1.0000 0.20120  0.50240  0.14070  Biso   1.000  H
  C144     1.0000 0.15050  0.34460  0.11120  Biso   1.000  C
  C145     1.0000 0.10510  0.26290  0.11990  Biso   1.000  C
  H101     1.0000 0.09210  0.19380  0.09630  Biso   1.000  H
  C146     1.0000 0.07750  0.28150  0.16410  Biso   1.000  C
  H102     1.0000 0.04590  0.22650  0.16980  Biso   1.000  H
  C147     1.0000 0.18150  0.32010  0.06540  Biso   1.000  C
  N15      1.0000 0.51100  0.50710  0.52260  Biso   1.000  N
  C148     1.0000 0.51880  0.63530  0.55010  Biso   1.000  C
  C149     1.0000 0.56400  0.63900  0.59110  Biso   1.000  C
  H103     1.0000 0.58700  0.56110  0.59930  Biso   1.000  H
  C150     1.0000 0.57470  0.75920  0.62000  Biso   1.000  C
  H104     1.0000 0.60490  0.76170  0.64750  Biso   1.000  H
  C151     1.0000 0.54020  0.87570  0.60790  Biso   1.000  C
  H105     1.0000 0.54740  0.95620  0.62730  Biso   1.000  H
  C152     1.0000 0.49500  0.87200  0.56690  Biso   1.000  C
  C153     1.0000 0.48430  0.75180  0.53800  Biso   1.000  C
  H106     1.0000 0.45410  0.74920  0.51060  Biso   1.000  H
  C154     1.0000 0.45870  0.99760  0.55460  Biso   1.000  C
  H107     1.0000 0.47600  0.06710  0.57610  Biso   1.000  H
  C155     1.0000 0.38450  0.18890  0.52680  Biso   1.000  C
  C156     1.0000 0.33540  0.21400  0.49090  Biso   1.000  C
  H108     1.0000 0.32130  0.14540  0.46750  Biso   1.000  H
  C157     1.0000 0.30750  0.34150  0.48990  Biso   1.000  C
  H109     1.0000 0.27460  0.35830  0.46590  Biso   1.000  H
  N16      1.0000 0.32860  0.44400  0.52480  Biso   1.000  N
  C158     1.0000 0.37770  0.41900  0.56070  Biso   1.000  C
  H110     1.0000 0.39190  0.48760  0.58410  Biso   1.000  H
  C159     1.0000 0.40570  0.29140  0.56170  Biso   1.000  C
  H111     1.0000 0.43860  0.27470  0.58570  Biso   1.000  H
  C160     1.0000 0.41380  0.05310  0.52740  Biso   1.000  C
  H112     1.0000 0.39560  0.99340  0.50230  Biso   1.000  H
  Zn5      1.0000 0.78496  0.87827  0.01095  Biso   1.000  Zn
  N17      1.0000 0.98430  0.95370  0.99520  Biso   1.000  N
  C161     1.0000 0.00300  0.85190  0.03050  Biso   1.000  C
  C162     1.0000 0.05070  0.85350  0.06930  Biso   1.000  C
  H113     1.0000 0.07470  0.93100  0.07390  Biso   1.000  H
  C163     1.0000 0.06240  0.73910  0.10120  Biso   1.000  C
  H114     1.0000 0.09430  0.74010  0.12720  Biso   1.000  H
  C164     1.0000 0.02650  0.62310  0.09440  Biso   1.000  C
  H115     1.0000 0.03440  0.54660  0.11570  Biso   1.000  H
  C165     1.0000 0.97890  0.62160  0.05560  Biso   1.000  C
  C166     1.0000 0.96710  0.73600  0.02360  Biso   1.000  C
  H116     1.0000 0.93530  0.73500  0.99770  Biso   1.000  H
  C167     1.0000 0.94100  0.50530  0.04720  Biso   1.000  C
  H117     1.0000 0.90890  0.51640  0.02190  Biso   1.000  H
  C168     1.0000 0.90540  0.27510  0.05300  Biso   1.000  C
  C169     1.0000 0.86100  0.29020  0.01170  Biso   1.000  C
  H118     1.0000 0.85630  0.37390  0.99410  Biso   1.000  H
  C170     1.0000 0.82370  0.18020  0.99670  Biso   1.000  C
  H119     1.0000 0.79410  0.19030  0.96910  Biso   1.000  H
  N18      1.0000 0.83080  0.05510  0.02300  Biso   1.000  N
  C171     1.0000 0.87520  0.04000  0.06430  Biso   1.000  C
  H120     1.0000 0.87990  0.95630  0.08190  Biso   1.000  H
  C172     1.0000 0.91250  0.15000  0.07930  Biso   1.000  C
  H121     1.0000 0.94220  0.13990  0.10690  Biso   1.000  H
  C173     1.0000 0.94500  0.38900  0.06940  Biso   1.000  C
  H122     1.0000 0.97420  0.37550  0.09710  Biso   1.000  H
  O21      1.0000 0.72540  0.92860  0.94846  Biso   1.000  O
  O22      1.0000 0.67280  0.74030  0.93146  Biso   1.000  O
  O23      1.0000 0.56930  0.10440  0.74195  Biso   1.000  O
  O24      1.0000 0.72150  0.09850  0.55732  Biso   1.000  O
  O25      1.0000 0.66760  0.28620  0.53976  Biso   1.000  O
  C174     1.0000 0.68760  0.85970  0.92270  Biso   1.000  C
  C175     1.0000 0.65640  0.92610  0.87370  Biso   1.000  C
  C176     1.0000 0.67530  0.04630  0.85700  Biso   1.000  C
  H123     1.0000 0.70790  0.08840  0.87560  Biso   1.000  H
  C177     1.0000 0.64860  0.10840  0.81380  Biso   1.000  C
  H124     1.0000 0.66250  0.19220  0.80280  Biso   1.000  H
  C178     1.0000 0.60000  0.04520  0.78580  Biso   1.000  C
  C179     1.0000 0.57970  0.92310  0.80190  Biso   1.000  C
  H125     1.0000 0.54700  0.88120  0.78350  Biso   1.000  H
  C180     1.0000 0.60810  0.86230  0.84570  Biso   1.000  C
  H126     1.0000 0.59500  0.77780  0.85670  Biso   1.000  H
  C181     1.0000 0.59810  0.11760  0.69910  Biso   1.000  C
  C182     1.0000 0.64440  0.03360  0.69030  Biso   1.000  C
  H127     1.0000 0.65780  0.96460  0.71370  Biso   1.000  H
  C183     1.0000 0.67000  0.05360  0.64670  Biso   1.000  C
  H128     1.0000 0.70120  0.99760  0.64070  Biso   1.000  H
  C184     1.0000 0.65050  0.15540  0.61120  Biso   1.000  C
  C185     1.0000 0.60510  0.23710  0.61990  Biso   1.000  C
  H129     1.0000 0.59210  0.30620  0.59630  Biso   1.000  H
  C186     1.0000 0.57750  0.21850  0.66410  Biso   1.000  C
  H130     1.0000 0.54590  0.27350  0.66980  Biso   1.000  H
  C187     1.0000 0.68150  0.17990  0.56540  Biso   1.000  C
  N19      1.0000 0.01100  0.99290  0.02260  Biso   1.000  N
  C188     1.0000 0.01880  0.86470  0.05010  Biso   1.000  C
  C189     1.0000 0.06400  0.86100  0.09110  Biso   1.000  C
  H131     1.0000 0.08700  0.93890  0.09930  Biso   1.000  H
  C190     1.0000 0.07470  0.74080  0.12000  Biso   1.000  C
  H132     1.0000 0.10490  0.73830  0.14750  Biso   1.000  H
  C191     1.0000 0.04020  0.62430  0.10790  Biso   1.000  C
  H133     1.0000 0.04740  0.54380  0.12730  Biso   1.000  H
  C192     1.0000 0.99500  0.62800  0.06690  Biso   1.000  C
  C193     1.0000 0.98430  0.74820  0.03800  Biso   1.000  C
  H134     1.0000 0.95410  0.75080  0.01060  Biso   1.000  H
  C194     1.0000 0.95870  0.50240  0.05460  Biso   1.000  C
  H135     1.0000 0.97600  0.43290  0.07610  Biso   1.000  H
  C195     1.0000 0.88450  0.31110  0.02680  Biso   1.000  C
  C196     1.0000 0.83540  0.28600  0.99090  Biso   1.000  C
  H136     1.0000 0.82130  0.35460  0.96750  Biso   1.000  H
  C197     1.0000 0.80750  0.15850  0.98990  Biso   1.000  C
  H137     1.0000 0.77460  0.14170  0.96590  Biso   1.000  H
  N20      1.0000 0.82860  0.05600  0.02480  Biso   1.000  N
  C198     1.0000 0.87770  0.08100  0.06070  Biso   1.000  C
  H138     1.0000 0.89190  0.01240  0.08410  Biso   1.000  H
  C199     1.0000 0.90570  0.20860  0.06170  Biso   1.000  C
  H139     1.0000 0.93860  0.22530  0.08570  Biso   1.000  H
  C200     1.0000 0.91380  0.44690  0.02740  Biso   1.000  C
  H140     1.0000 0.89560  0.50660  0.00230  Biso   1.000  H
  Zn6      1.0000 0.28496  0.37827  0.01095  Biso   1.000  Zn
  N21      1.0000 0.48430  0.45370  0.99520  Biso   1.000  N
  C201     1.0000 0.50300  0.35190  0.03050  Biso   1.000  C
  C202     1.0000 0.55070  0.35350  0.06930  Biso   1.000  C
  H141     1.0000 0.57470  0.43100  0.07390  Biso   1.000  H
  C203     1.0000 0.56240  0.23910  0.10120  Biso   1.000  C
  H142     1.0000 0.59430  0.24010  0.12720  Biso   1.000  H
  C204     1.0000 0.52650  0.12310  0.09440  Biso   1.000  C
  H143     1.0000 0.53440  0.04660  0.11570  Biso   1.000  H
  C205     1.0000 0.47890  0.12160  0.05560  Biso   1.000  C
  C206     1.0000 0.46710  0.23600  0.02360  Biso   1.000  C
  H144     1.0000 0.43530  0.23500  0.99770  Biso   1.000  H
  C207     1.0000 0.44100  0.00530  0.04720  Biso   1.000  C
  H145     1.0000 0.40890  0.01640  0.02190  Biso   1.000  H
  C208     1.0000 0.40540  0.77510  0.05300  Biso   1.000  C
  C209     1.0000 0.36100  0.79020  0.01170  Biso   1.000  C
  H146     1.0000 0.35630  0.87390  0.99410  Biso   1.000  H
  C210     1.0000 0.32370  0.68020  0.99670  Biso   1.000  C
  H147     1.0000 0.29410  0.69030  0.96910  Biso   1.000  H
  N22      1.0000 0.33080  0.55510  0.02300  Biso   1.000  N
  C211     1.0000 0.37520  0.54000  0.06430  Biso   1.000  C
  H148     1.0000 0.37990  0.45630  0.08190  Biso   1.000  H
  C212     1.0000 0.41250  0.65000  0.07930  Biso   1.000  C
  H149     1.0000 0.44220  0.63990  0.10690  Biso   1.000  H
  C213     1.0000 0.44500  0.88900  0.06940  Biso   1.000  C
  H150     1.0000 0.47420  0.87550  0.09710  Biso   1.000  H
  O26      1.0000 0.22540  0.42860  0.94846  Biso   1.000  O
  O27      1.0000 0.17280  0.24030  0.93146  Biso   1.000  O
  O28      1.0000 0.06930  0.60440  0.74195  Biso   1.000  O
  O29      1.0000 0.22150  0.59850  0.55732  Biso   1.000  O
  O30      1.0000 0.16760  0.78620  0.53976  Biso   1.000  O
  C214     1.0000 0.18760  0.35970  0.92270  Biso   1.000  C
  C215     1.0000 0.15640  0.42610  0.87370  Biso   1.000  C
  C216     1.0000 0.17530  0.54630  0.85700  Biso   1.000  C
  H151     1.0000 0.20790  0.58840  0.87560  Biso   1.000  H
  C217     1.0000 0.14860  0.60840  0.81380  Biso   1.000  C
  H152     1.0000 0.16250  0.69220  0.80280  Biso   1.000  H
  C218     1.0000 0.10000  0.54520  0.78580  Biso   1.000  C
  C219     1.0000 0.07970  0.42310  0.80190  Biso   1.000  C
  H153     1.0000 0.04700  0.38120  0.78350  Biso   1.000  H
  C220     1.0000 0.10810  0.36230  0.84570  Biso   1.000  C
  H154     1.0000 0.09500  0.27780  0.85670  Biso   1.000  H
  C221     1.0000 0.09810  0.61760  0.69910  Biso   1.000  C
  C222     1.0000 0.14440  0.53360  0.69030  Biso   1.000  C
  H155     1.0000 0.15780  0.46460  0.71370  Biso   1.000  H
  C223     1.0000 0.17000  0.55360  0.64670  Biso   1.000  C
  H156     1.0000 0.20120  0.49760  0.64070  Biso   1.000  H
  C224     1.0000 0.15050  0.65540  0.61120  Biso   1.000  C
  C225     1.0000 0.10510  0.73710  0.61990  Biso   1.000  C
  H157     1.0000 0.09210  0.80620  0.59630  Biso   1.000  H
  C226     1.0000 0.07750  0.71850  0.66410  Biso   1.000  C
  H158     1.0000 0.04590  0.77350  0.66980  Biso   1.000  H
  C227     1.0000 0.18150  0.67990  0.56540  Biso   1.000  C
  N23      1.0000 0.51100  0.49290  0.02260  Biso   1.000  N
  C228     1.0000 0.51880  0.36470  0.05010  Biso   1.000  C
  C229     1.0000 0.56400  0.36100  0.09110  Biso   1.000  C
  H159     1.0000 0.58700  0.43890  0.09930  Biso   1.000  H
  C230     1.0000 0.57470  0.24080  0.12000  Biso   1.000  C
  H160     1.0000 0.60490  0.23830  0.14750  Biso   1.000  H
  C231     1.0000 0.54020  0.12430  0.10790  Biso   1.000  C
  H161     1.0000 0.54740  0.04380  0.12730  Biso   1.000  H
  C232     1.0000 0.49500  0.12800  0.06690  Biso   1.000  C
  C233     1.0000 0.48430  0.24820  0.03800  Biso   1.000  C
  H162     1.0000 0.45410  0.25080  0.01060  Biso   1.000  H
  C234     1.0000 0.45870  0.00240  0.05460  Biso   1.000  C
  H163     1.0000 0.47600  0.93290  0.07610  Biso   1.000  H
  C235     1.0000 0.38450  0.81110  0.02680  Biso   1.000  C
  C236     1.0000 0.33540  0.78600  0.99090  Biso   1.000  C
  H164     1.0000 0.32130  0.85460  0.96750  Biso   1.000  H
  C237     1.0000 0.30750  0.65850  0.98990  Biso   1.000  C
  H165     1.0000 0.27460  0.64170  0.96590  Biso   1.000  H
  N24      1.0000 0.32860  0.55600  0.02480  Biso   1.000  N
  C238     1.0000 0.37770  0.58100  0.06070  Biso   1.000  C
  H166     1.0000 0.39190  0.51240  0.08410  Biso   1.000  H
  C239     1.0000 0.40570  0.70860  0.06170  Biso   1.000  C
  H167     1.0000 0.43860  0.72530  0.08570  Biso   1.000  H
  C240     1.0000 0.41380  0.94690  0.02740  Biso   1.000  C
  H168     1.0000 0.39560  0.00660  0.00230  Biso   1.000  H
  Zn7      1.0000 0.21504  0.87827  0.48905  Biso   1.000  Zn
  N25      1.0000 0.01570  0.95370  0.50480  Biso   1.000  N
  C241     1.0000 0.99700  0.85190  0.46950  Biso   1.000  C
  C242     1.0000 0.94930  0.85350  0.43070  Biso   1.000  C
  H169     1.0000 0.92530  0.93100  0.42610  Biso   1.000  H
  C243     1.0000 0.93760  0.73910  0.39880  Biso   1.000  C
  H170     1.0000 0.90570  0.74010  0.37280  Biso   1.000  H
  C244     1.0000 0.97350  0.62310  0.40560  Biso   1.000  C
  H171     1.0000 0.96560  0.54660  0.38430  Biso   1.000  H
  C245     1.0000 0.02110  0.62160  0.44440  Biso   1.000  C
  C246     1.0000 0.03290  0.73600  0.47640  Biso   1.000  C
  H172     1.0000 0.06470  0.73500  0.50230  Biso   1.000  H
  C247     1.0000 0.05900  0.50530  0.45280  Biso   1.000  C
  H173     1.0000 0.09110  0.51640  0.47810  Biso   1.000  H
  C248     1.0000 0.09460  0.27510  0.44700  Biso   1.000  C
  C249     1.0000 0.13900  0.29020  0.48830  Biso   1.000  C
  H174     1.0000 0.14370  0.37390  0.50590  Biso   1.000  H
  C250     1.0000 0.17630  0.18020  0.50330  Biso   1.000  C
  H175     1.0000 0.20590  0.19030  0.53090  Biso   1.000  H
  N26      1.0000 0.16920  0.05510  0.47700  Biso   1.000  N
  C251     1.0000 0.12480  0.04000  0.43570  Biso   1.000  C
  H176     1.0000 0.12010  0.95630  0.41810  Biso   1.000  H
  C252     1.0000 0.08750  0.15000  0.42070  Biso   1.000  C
  H177     1.0000 0.05780  0.13990  0.39310  Biso   1.000  H
  C253     1.0000 0.05500  0.38900  0.43060  Biso   1.000  C
  H178     1.0000 0.02580  0.37550  0.40290  Biso   1.000  H
  O31      1.0000 0.27460  0.92860  0.55154  Biso   1.000  O
  O32      1.0000 0.32720  0.74030  0.56854  Biso   1.000  O
  O33      1.0000 0.43070  0.10440  0.75805  Biso   1.000  O
  O34      1.0000 0.27850  0.09850  0.94268  Biso   1.000  O
  O35      1.0000 0.33240  0.28620  0.96024  Biso   1.000  O
  C254     1.0000 0.31240  0.85970  0.57730  Biso   1.000  C
  C255     1.0000 0.34360  0.92610  0.62630  Biso   1.000  C
  C256     1.0000 0.32470  0.04630  0.64300  Biso   1.000  C
  H179     1.0000 0.29210  0.08840  0.62440  Biso   1.000  H
  C257     1.0000 0.35140  0.10840  0.68620  Biso   1.000  C
  H180     1.0000 0.33750  0.19220  0.69720  Biso   1.000  H
  C258     1.0000 0.40000  0.04520  0.71420  Biso   1.000  C
  C259     1.0000 0.42030  0.92310  0.69810  Biso   1.000  C
  H181     1.0000 0.45300  0.88120  0.71650  Biso   1.000  H
  C260     1.0000 0.39190  0.86230  0.65430  Biso   1.000  C
  H182     1.0000 0.40500  0.77780  0.64330  Biso   1.000  H
  C261     1.0000 0.40190  0.11760  0.80090  Biso   1.000  C
  C262     1.0000 0.35560  0.03360  0.80970  Biso   1.000  C
  H183     1.0000 0.34220  0.96460  0.78630  Biso   1.000  H
  C263     1.0000 0.33000  0.05360  0.85330  Biso   1.000  C
  H184     1.0000 0.29880  0.99760  0.85930  Biso   1.000  H
  C264     1.0000 0.34950  0.15540  0.88880  Biso   1.000  C
  C265     1.0000 0.39490  0.23710  0.88010  Biso   1.000  C
  H185     1.0000 0.40790  0.30620  0.90370  Biso   1.000  H
  C266     1.0000 0.42250  0.21850  0.83590  Biso   1.000  C
  H186     1.0000 0.45410  0.27350  0.83020  Biso   1.000  H
  C267     1.0000 0.31850  0.17990  0.93460  Biso   1.000  C
  N27      1.0000 0.98900  0.99290  0.47740  Biso   1.000  N
  C268     1.0000 0.98120  0.86470  0.44990  Biso   1.000  C
  C269     1.0000 0.93600  0.86100  0.40890  Biso   1.000  C
  H187     1.0000 0.91300  0.93890  0.40070  Biso   1.000  H
  C270     1.0000 0.92530  0.74080  0.38000  Biso   1.000  C
  H188     1.0000 0.89510  0.73830  0.35250  Biso   1.000  H
  C271     1.0000 0.95980  0.62430  0.39210  Biso   1.000  C
  H189     1.0000 0.95260  0.54380  0.37270  Biso   1.000  H
  C272     1.0000 0.00500  0.62800  0.43310  Biso   1.000  C
  C273     1.0000 0.01570  0.74820  0.46200  Biso   1.000  C
  H190     1.0000 0.04590  0.75080  0.48940  Biso   1.000  H
  C274     1.0000 0.04130  0.50240  0.44540  Biso   1.000  C
  H191     1.0000 0.02400  0.43290  0.42390  Biso   1.000  H
  C275     1.0000 0.11550  0.31110  0.47320  Biso   1.000  C
  C276     1.0000 0.16460  0.28600  0.50910  Biso   1.000  C
  H192     1.0000 0.17870  0.35460  0.53250  Biso   1.000  H
  C277     1.0000 0.19250  0.15850  0.51010  Biso   1.000  C
  H193     1.0000 0.22540  0.14170  0.53410  Biso   1.000  H
  N28      1.0000 0.17140  0.05600  0.47520  Biso   1.000  N
  C278     1.0000 0.12230  0.08100  0.43930  Biso   1.000  C
  H194     1.0000 0.10810  0.01240  0.41590  Biso   1.000  H
  C279     1.0000 0.09430  0.20860  0.43830  Biso   1.000  C
  H195     1.0000 0.06140  0.22530  0.41430  Biso   1.000  H
  C280     1.0000 0.08620  0.44690  0.47260  Biso   1.000  C
  H196     1.0000 0.10440  0.50660  0.49770  Biso   1.000  H
  Zn8      1.0000 0.71504  0.37827  0.48905  Biso   1.000  Zn
  N29      1.0000 0.51570  0.45370  0.50480  Biso   1.000  N
  C281     1.0000 0.49700  0.35190  0.46950  Biso   1.000  C
  C282     1.0000 0.44930  0.35350  0.43070  Biso   1.000  C
  H197     1.0000 0.42530  0.43100  0.42610  Biso   1.000  H
  C283     1.0000 0.43760  0.23910  0.39880  Biso   1.000  C
  H198     1.0000 0.40570  0.24010  0.37280  Biso   1.000  H
  C284     1.0000 0.47350  0.12310  0.40560  Biso   1.000  C
  H199     1.0000 0.46560  0.04660  0.38430  Biso   1.000  H
  C285     1.0000 0.52110  0.12160  0.44440  Biso   1.000  C
  C286     1.0000 0.53290  0.23600  0.47640  Biso   1.000  C
  H200     1.0000 0.56470  0.23500  0.50230  Biso   1.000  H
  C287     1.0000 0.55900  0.00530  0.45280  Biso   1.000  C
  H201     1.0000 0.59110  0.01640  0.47810  Biso   1.000  H
  C288     1.0000 0.59460  0.77510  0.44700  Biso   1.000  C
  C289     1.0000 0.63900  0.79020  0.48830  Biso   1.000  C
  H202     1.0000 0.64370  0.87390  0.50590  Biso   1.000  H
  C290     1.0000 0.67630  0.68020  0.50330  Biso   1.000  C
  H203     1.0000 0.70590  0.69030  0.53090  Biso   1.000  H
  N30      1.0000 0.66920  0.55510  0.47700  Biso   1.000  N
  C291     1.0000 0.62480  0.54000  0.43570  Biso   1.000  C
  H204     1.0000 0.62010  0.45630  0.41810  Biso   1.000  H
  C292     1.0000 0.58750  0.65000  0.42070  Biso   1.000  C
  H205     1.0000 0.55780  0.63990  0.39310  Biso   1.000  H
  C293     1.0000 0.55500  0.88900  0.43060  Biso   1.000  C
  H206     1.0000 0.52580  0.87550  0.40290  Biso   1.000  H
  O36      1.0000 0.77460  0.42860  0.55154  Biso   1.000  O
  O37      1.0000 0.82720  0.24030  0.56854  Biso   1.000  O
  O38      1.0000 0.93070  0.60440  0.75805  Biso   1.000  O
  O39      1.0000 0.77850  0.59850  0.94268  Biso   1.000  O
  O40      1.0000 0.83240  0.78620  0.96024  Biso   1.000  O
  C294     1.0000 0.81240  0.35970  0.57730  Biso   1.000  C
  C295     1.0000 0.84360  0.42610  0.62630  Biso   1.000  C
  C296     1.0000 0.82470  0.54630  0.64300  Biso   1.000  C
  H207     1.0000 0.79210  0.58840  0.62440  Biso   1.000  H
  C297     1.0000 0.85140  0.60840  0.68620  Biso   1.000  C
  H208     1.0000 0.83750  0.69220  0.69720  Biso   1.000  H
  C298     1.0000 0.90000  0.54520  0.71420  Biso   1.000  C
  C299     1.0000 0.92030  0.42310  0.69810  Biso   1.000  C
  H209     1.0000 0.95300  0.38120  0.71650  Biso   1.000  H
  C300     1.0000 0.89190  0.36230  0.65430  Biso   1.000  C
  H210     1.0000 0.90500  0.27780  0.64330  Biso   1.000  H
  C301     1.0000 0.90190  0.61760  0.80090  Biso   1.000  C
  C302     1.0000 0.85560  0.53360  0.80970  Biso   1.000  C
  H211     1.0000 0.84220  0.46460  0.78630  Biso   1.000  H
  C303     1.0000 0.83000  0.55360  0.85330  Biso   1.000  C
  H212     1.0000 0.79880  0.49760  0.85930  Biso   1.000  H
  C304     1.0000 0.84950  0.65540  0.88880  Biso   1.000  C
  C305     1.0000 0.89490  0.73710  0.88010  Biso   1.000  C
  H213     1.0000 0.90790  0.80620  0.90370  Biso   1.000  H
  C306     1.0000 0.92250  0.71850  0.83590  Biso   1.000  C
  H214     1.0000 0.95410  0.77350  0.83020  Biso   1.000  H
  C307     1.0000 0.81850  0.67990  0.93460  Biso   1.000  C
  N31      1.0000 0.48900  0.49290  0.47740  Biso   1.000  N
  C308     1.0000 0.48120  0.36470  0.44990  Biso   1.000  C
  C309     1.0000 0.43600  0.36100  0.40890  Biso   1.000  C
  H215     1.0000 0.41300  0.43890  0.40070  Biso   1.000  H
  C310     1.0000 0.42530  0.24080  0.38000  Biso   1.000  C
  H216     1.0000 0.39510  0.23830  0.35250  Biso   1.000  H
  C311     1.0000 0.45980  0.12430  0.39210  Biso   1.000  C
  H217     1.0000 0.45260  0.04380  0.37270  Biso   1.000  H
  C312     1.0000 0.50500  0.12800  0.43310  Biso   1.000  C
  C313     1.0000 0.51570  0.24820  0.46200  Biso   1.000  C
  H218     1.0000 0.54590  0.25080  0.48940  Biso   1.000  H
  C314     1.0000 0.54130  0.00240  0.44540  Biso   1.000  C
  H219     1.0000 0.52400  0.93290  0.42390  Biso   1.000  H
  C315     1.0000 0.61550  0.81110  0.47320  Biso   1.000  C
  C316     1.0000 0.66460  0.78600  0.50910  Biso   1.000  C
  H220     1.0000 0.67870  0.85460  0.53250  Biso   1.000  H
  C317     1.0000 0.69250  0.65850  0.51010  Biso   1.000  C
  H221     1.0000 0.72540  0.64170  0.53410  Biso   1.000  H
  N32      1.0000 0.67140  0.55600  0.47520  Biso   1.000  N
  C318     1.0000 0.62230  0.58100  0.43930  Biso   1.000  C
  H222     1.0000 0.60810  0.51240  0.41590  Biso   1.000  H
  C319     1.0000 0.59430  0.70860  0.43830  Biso   1.000  C
  H223     1.0000 0.56140  0.72530  0.41430  Biso   1.000  H
  C320     1.0000 0.58620  0.94690  0.47260  Biso   1.000  C
  H224     1.0000 0.60440  0.00660  0.49770  Biso   1.000  H
