data_image0
_cell_length_a       22.782
_cell_length_b       9.758
_cell_length_c       26.413
_cell_angle_alpha    90
_cell_angle_beta     97.28
_cell_angle_gamma    90

_symmetry_space_group_name_H-M    "P 1"
_symmetry_int_tables_number       1

loop_
  _symmetry_equiv_pos_as_xyz
  'x, y, z'

loop_
  _atom_site_label
  _atom_site_occupancy
  _atom_site_fract_x
  _atom_site_fract_y
  _atom_site_fract_z
  _atom_site_thermal_displace_type
  _atom_site_B_iso_or_equiv
  _atom_site_type_symbol
  Zn1      1.0000 0.21459  0.37839  0.48988  Biso   1.000  Zn
  N1       1.0000 0.98600  0.50350  0.47700  Biso   1.000  N
  C1       1.0000 0.98410  0.37590  0.44980  Biso   1.000  C
  C2       1.0000 0.94440  0.36130  0.40570  Biso   1.000  C
  H1       1.0000 0.91960  0.43360  0.39410  Biso   1.000  H
  C3       1.0000 0.94170  0.23870  0.37870  Biso   1.000  C
  H2       1.0000 0.91520  0.22890  0.34910  Biso   1.000  H
  C4       1.0000 0.97880  0.13060  0.39590  Biso   1.000  C
  H3       1.0000 0.97700  0.04860  0.37790  Biso   1.000  H
  C5       1.0000 0.01840  0.14530  0.44010  Biso   1.000  C
  C6       1.0000 0.02110  0.26790  0.46710  Biso   1.000  C
  H4       1.0000 0.04770  0.27770  0.49660  Biso   1.000  H
  C7       1.0000 0.05880  0.02300  0.46020  Biso   1.000  C
  H5       1.0000 0.08480  0.03540  0.48990  Biso   1.000  H
  C8       1.0000 0.09550  0.78610  0.45000  Biso   1.000  C
  C9       1.0000 0.13900  0.79050  0.49190  Biso   1.000  C
  H6       1.0000 0.14470  0.86990  0.51130  Biso   1.000  H
  C10      1.0000 0.17410  0.67600  0.50470  Biso   1.000  C
  H7       1.0000 0.20330  0.67890  0.53270  Biso   1.000  H
  N2       1.0000 0.16570  0.55730  0.47560  Biso   1.000  N
  C11      1.0000 0.12210  0.55300  0.43370  Biso   1.000  C
  H8       1.0000 0.11650  0.47350  0.41430  Biso   1.000  H
  C12      1.0000 0.08700  0.66740  0.42090  Biso   1.000  C
  H9       1.0000 0.05790  0.66450  0.39290  Biso   1.000  H
  C13      1.0000 0.05790  0.90390  0.43740  Biso   1.000  C
  H10      1.0000 0.02920  0.89350  0.40930  Biso   1.000  H
  C14      1.0000 0.31790  0.31870  0.43370  Biso   1.000  C
  C15      1.0000 0.34920  0.34470  0.38780  Biso   1.000  C
  C16      1.0000 0.32790  0.44580  0.35340  Biso   1.000  C
  H11      1.0000 0.29600  0.49990  0.35960  Biso   1.000  H
  C17      1.0000 0.35480  0.46570  0.30940  Biso   1.000  C
  H12      1.0000 0.34180  0.53510  0.28650  Biso   1.000  H
  C18      1.0000 0.40140  0.38000  0.30000  Biso   1.000  C
  C19      1.0000 0.42280  0.28540  0.33490  Biso   1.000  C
  H13      1.0000 0.45550  0.23300  0.32940  Biso   1.000  H
  C20      1.0000 0.39610  0.26580  0.37880  Biso   1.000  C
  H14      1.0000 0.41040  0.19870  0.40210  Biso   1.000  H
  C21      1.0000 0.39920  0.46380  0.21230  Biso   1.000  C
  C22      1.0000 0.35390  0.39210  0.18770  Biso   1.000  C
  H15      1.0000 0.34210  0.30830  0.19980  Biso   1.000  H
  C23      1.0000 0.32550  0.45090  0.14280  Biso   1.000  C
  H16      1.0000 0.29450  0.40470  0.12380  Biso   1.000  H
  C24      1.0000 0.34320  0.57790  0.12630  Biso   1.000  C
  C25      1.0000 0.38980  0.64250  0.15300  Biso   1.000  C
  H17      1.0000 0.40270  0.72550  0.14110  Biso   1.000  H
  C26      1.0000 0.41940  0.58650  0.19860  Biso   1.000  C
  H18      1.0000 0.45070  0.63120  0.21790  Biso   1.000  H
  C27      1.0000 0.31270  0.64330  0.07790  Biso   1.000  C
  O1       1.0000 0.27920  0.40520  0.44320  Biso   1.000  O
  O2       1.0000 0.33310  0.21520  0.45950  Biso   1.000  O
  O3       1.0000 0.43050  0.39790  0.25670  Biso   1.000  O
  O4       1.0000 0.27340  0.57150  0.05160  Biso   1.000  O
  O5       1.0000 0.32730  0.76040  0.06730  Biso   1.000  O
  N3       1.0000 0.01350  0.45270  0.50080  Biso   1.000  N
  C28      1.0000 0.99390  0.34330  0.46620  Biso   1.000  C
  C29      1.0000 0.94450  0.35990  0.43010  Biso   1.000  C
  H19      1.0000 0.92380  0.44220  0.42810  Biso   1.000  H
  C30      1.0000 0.92610  0.25340  0.39680  Biso   1.000  C
  H20      1.0000 0.89300  0.26450  0.37270  Biso   1.000  H
  C31      1.0000 0.95710  0.13040  0.39970  Biso   1.000  C
  H21      1.0000 0.94480  0.05920  0.37750  Biso   1.000  H
  C32      1.0000 0.00650  0.11380  0.43580  Biso   1.000  C
  C33      1.0000 0.02500  0.22030  0.46900  Biso   1.000  C
  H22      1.0000 0.05800  0.20920  0.49320  Biso   1.000  H
  C34      1.0000 0.03940  0.98700  0.43800  Biso   1.000  C
  H23      1.0000 0.02650  0.92260  0.41320  Biso   1.000  H
  C35      1.0000 0.11640  0.81450  0.47320  Biso   1.000  C
  C36      1.0000 0.16430  0.79160  0.51030  Biso   1.000  C
  H24      1.0000 0.17760  0.86110  0.53310  Biso   1.000  H
  C37      1.0000 0.19250  0.66500  0.51350  Biso   1.000  C
  H25      1.0000 0.22450  0.64970  0.53830  Biso   1.000  H
  N4       1.0000 0.17270  0.56120  0.47950  Biso   1.000  N
  C38      1.0000 0.12480  0.58400  0.44240  Biso   1.000  C
  H26      1.0000 0.11160  0.51460  0.41960  Biso   1.000  H
  C39      1.0000 0.09670  0.71070  0.43920  Biso   1.000  C
  H27      1.0000 0.06460  0.72600  0.41440  Biso   1.000  H
  C40      1.0000 0.08500  0.95130  0.47050  Biso   1.000  C
  H28      1.0000 0.09960  0.01670  0.49440  Biso   1.000  H
  Zn2      1.0000 0.71459  0.87839  0.48988  Biso   1.000  Zn
  N5       1.0000 0.48600  0.00350  0.47700  Biso   1.000  N
  C41      1.0000 0.48410  0.87590  0.44980  Biso   1.000  C
  C42      1.0000 0.44440  0.86130  0.40570  Biso   1.000  C
  H29      1.0000 0.41960  0.93360  0.39410  Biso   1.000  H
  C43      1.0000 0.44170  0.73870  0.37870  Biso   1.000  C
  H30      1.0000 0.41520  0.72890  0.34910  Biso   1.000  H
  C44      1.0000 0.47880  0.63060  0.39590  Biso   1.000  C
  H31      1.0000 0.47700  0.54860  0.37790  Biso   1.000  H
  C45      1.0000 0.51840  0.64530  0.44010  Biso   1.000  C
  C46      1.0000 0.52110  0.76790  0.46710  Biso   1.000  C
  H32      1.0000 0.54770  0.77770  0.49660  Biso   1.000  H
  C47      1.0000 0.55880  0.52300  0.46020  Biso   1.000  C
  H33      1.0000 0.58480  0.53540  0.48990  Biso   1.000  H
  C48      1.0000 0.59550  0.28610  0.45000  Biso   1.000  C
  C49      1.0000 0.63900  0.29050  0.49190  Biso   1.000  C
  H34      1.0000 0.64470  0.36990  0.51130  Biso   1.000  H
  C50      1.0000 0.67410  0.17600  0.50470  Biso   1.000  C
  H35      1.0000 0.70330  0.17890  0.53270  Biso   1.000  H
  N6       1.0000 0.66570  0.05730  0.47560  Biso   1.000  N
  C51      1.0000 0.62210  0.05300  0.43370  Biso   1.000  C
  H36      1.0000 0.61650  0.97350  0.41430  Biso   1.000  H
  C52      1.0000 0.58700  0.16740  0.42090  Biso   1.000  C
  H37      1.0000 0.55790  0.16450  0.39290  Biso   1.000  H
  C53      1.0000 0.55790  0.40390  0.43740  Biso   1.000  C
  H38      1.0000 0.52920  0.39350  0.40930  Biso   1.000  H
  C54      1.0000 0.81790  0.81870  0.43370  Biso   1.000  C
  C55      1.0000 0.84920  0.84470  0.38780  Biso   1.000  C
  C56      1.0000 0.82790  0.94580  0.35340  Biso   1.000  C
  H39      1.0000 0.79600  0.99990  0.35960  Biso   1.000  H
  C57      1.0000 0.85480  0.96570  0.30940  Biso   1.000  C
  H40      1.0000 0.84180  0.03510  0.28650  Biso   1.000  H
  C58      1.0000 0.90140  0.88000  0.30000  Biso   1.000  C
  C59      1.0000 0.92280  0.78540  0.33490  Biso   1.000  C
  H41      1.0000 0.95550  0.73300  0.32940  Biso   1.000  H
  C60      1.0000 0.89610  0.76580  0.37880  Biso   1.000  C
  H42      1.0000 0.91040  0.69870  0.40210  Biso   1.000  H
  C61      1.0000 0.89920  0.96380  0.21230  Biso   1.000  C
  C62      1.0000 0.85390  0.89210  0.18770  Biso   1.000  C
  H43      1.0000 0.84210  0.80830  0.19980  Biso   1.000  H
  C63      1.0000 0.82550  0.95090  0.14280  Biso   1.000  C
  H44      1.0000 0.79450  0.90470  0.12380  Biso   1.000  H
  C64      1.0000 0.84320  0.07790  0.12630  Biso   1.000  C
  C65      1.0000 0.88980  0.14250  0.15300  Biso   1.000  C
  H45      1.0000 0.90270  0.22550  0.14110  Biso   1.000  H
  C66      1.0000 0.91940  0.08650  0.19860  Biso   1.000  C
  H46      1.0000 0.95070  0.13120  0.21790  Biso   1.000  H
  C67      1.0000 0.81270  0.14330  0.07790  Biso   1.000  C
  O6       1.0000 0.77920  0.90520  0.44320  Biso   1.000  O
  O7       1.0000 0.83310  0.71520  0.45950  Biso   1.000  O
  O8       1.0000 0.93050  0.89790  0.25670  Biso   1.000  O
  O9       1.0000 0.77340  0.07150  0.05160  Biso   1.000  O
  O10      1.0000 0.82730  0.26040  0.06730  Biso   1.000  O
  N7       1.0000 0.51350  0.95270  0.50080  Biso   1.000  N
  C68      1.0000 0.49390  0.84330  0.46620  Biso   1.000  C
  C69      1.0000 0.44450  0.85990  0.43010  Biso   1.000  C
  H47      1.0000 0.42380  0.94220  0.42810  Biso   1.000  H
  C70      1.0000 0.42610  0.75340  0.39680  Biso   1.000  C
  H48      1.0000 0.39300  0.76450  0.37270  Biso   1.000  H
  C71      1.0000 0.45710  0.63040  0.39970  Biso   1.000  C
  H49      1.0000 0.44480  0.55920  0.37750  Biso   1.000  H
  C72      1.0000 0.50650  0.61380  0.43580  Biso   1.000  C
  C73      1.0000 0.52500  0.72030  0.46900  Biso   1.000  C
  H50      1.0000 0.55800  0.70920  0.49320  Biso   1.000  H
  C74      1.0000 0.53940  0.48700  0.43800  Biso   1.000  C
  H51      1.0000 0.52650  0.42260  0.41320  Biso   1.000  H
  C75      1.0000 0.61640  0.31450  0.47320  Biso   1.000  C
  C76      1.0000 0.66430  0.29160  0.51030  Biso   1.000  C
  H52      1.0000 0.67760  0.36110  0.53310  Biso   1.000  H
  C77      1.0000 0.69250  0.16500  0.51350  Biso   1.000  C
  H53      1.0000 0.72450  0.14970  0.53830  Biso   1.000  H
  N8       1.0000 0.67270  0.06120  0.47950  Biso   1.000  N
  C78      1.0000 0.62480  0.08400  0.44240  Biso   1.000  C
  H54      1.0000 0.61160  0.01460  0.41960  Biso   1.000  H
  C79      1.0000 0.59670  0.21070  0.43920  Biso   1.000  C
  H55      1.0000 0.56460  0.22600  0.41440  Biso   1.000  H
  C80      1.0000 0.58500  0.45130  0.47050  Biso   1.000  C
  H56      1.0000 0.59960  0.51670  0.49440  Biso   1.000  H
  Zn3      1.0000 0.78541  0.37839  0.01012  Biso   1.000  Zn
  N9       1.0000 0.01400  0.50350  0.02300  Biso   1.000  N
  C81      1.0000 0.01590  0.37590  0.05020  Biso   1.000  C
  C82      1.0000 0.05560  0.36130  0.09430  Biso   1.000  C
  H57      1.0000 0.08040  0.43360  0.10590  Biso   1.000  H
  C83      1.0000 0.05830  0.23870  0.12130  Biso   1.000  C
  H58      1.0000 0.08480  0.22890  0.15090  Biso   1.000  H
  C84      1.0000 0.02120  0.13060  0.10410  Biso   1.000  C
  H59      1.0000 0.02300  0.04860  0.12210  Biso   1.000  H
  C85      1.0000 0.98160  0.14530  0.05990  Biso   1.000  C
  C86      1.0000 0.97890  0.26790  0.03290  Biso   1.000  C
  H60      1.0000 0.95230  0.27770  0.00340  Biso   1.000  H
  C87      1.0000 0.94120  0.02300  0.03980  Biso   1.000  C
  H61      1.0000 0.91520  0.03540  0.01010  Biso   1.000  H
  C88      1.0000 0.90450  0.78610  0.05000  Biso   1.000  C
  C89      1.0000 0.86100  0.79050  0.00810  Biso   1.000  C
  H62      1.0000 0.85530  0.86990  0.98870  Biso   1.000  H
  C90      1.0000 0.82590  0.67600  0.99530  Biso   1.000  C
  H63      1.0000 0.79670  0.67890  0.96730  Biso   1.000  H
  N10      1.0000 0.83430  0.55730  0.02440  Biso   1.000  N
  C91      1.0000 0.87790  0.55300  0.06630  Biso   1.000  C
  H64      1.0000 0.88350  0.47350  0.08570  Biso   1.000  H
  C92      1.0000 0.91300  0.66740  0.07910  Biso   1.000  C
  H65      1.0000 0.94210  0.66450  0.10710  Biso   1.000  H
  C93      1.0000 0.94210  0.90390  0.06260  Biso   1.000  C
  H66      1.0000 0.97080  0.89350  0.09070  Biso   1.000  H
  C94      1.0000 0.68210  0.31870  0.06630  Biso   1.000  C
  C95      1.0000 0.65080  0.34470  0.11220  Biso   1.000  C
  C96      1.0000 0.67210  0.44580  0.14660  Biso   1.000  C
  H67      1.0000 0.70400  0.49990  0.14040  Biso   1.000  H
  C97      1.0000 0.64520  0.46570  0.19060  Biso   1.000  C
  H68      1.0000 0.65820  0.53510  0.21350  Biso   1.000  H
  C98      1.0000 0.59860  0.38000  0.20000  Biso   1.000  C
  C99      1.0000 0.57720  0.28540  0.16510  Biso   1.000  C
  H69      1.0000 0.54450  0.23300  0.17060  Biso   1.000  H
  C100     1.0000 0.60390  0.26580  0.12120  Biso   1.000  C
  H70      1.0000 0.58960  0.19870  0.09790  Biso   1.000  H
  C101     1.0000 0.60080  0.46380  0.28770  Biso   1.000  C
  C102     1.0000 0.64610  0.39210  0.31230  Biso   1.000  C
  H71      1.0000 0.65790  0.30830  0.30020  Biso   1.000  H
  C103     1.0000 0.67450  0.45090  0.35720  Biso   1.000  C
  H72      1.0000 0.70550  0.40470  0.37620  Biso   1.000  H
  C104     1.0000 0.65680  0.57790  0.37370  Biso   1.000  C
  C105     1.0000 0.61020  0.64250  0.34700  Biso   1.000  C
  H73      1.0000 0.59730  0.72550  0.35890  Biso   1.000  H
  C106     1.0000 0.58060  0.58650  0.30140  Biso   1.000  C
  H74      1.0000 0.54930  0.63120  0.28210  Biso   1.000  H
  C107     1.0000 0.68730  0.64330  0.42210  Biso   1.000  C
  O11      1.0000 0.72080  0.40520  0.05680  Biso   1.000  O
  O12      1.0000 0.66690  0.21520  0.04050  Biso   1.000  O
  O13      1.0000 0.56950  0.39790  0.24330  Biso   1.000  O
  O14      1.0000 0.72660  0.57150  0.44840  Biso   1.000  O
  O15      1.0000 0.67270  0.76040  0.43270  Biso   1.000  O
  N11      1.0000 0.98650  0.45270  0.99920  Biso   1.000  N
  C108     1.0000 0.00610  0.34330  0.03380  Biso   1.000  C
  C109     1.0000 0.05550  0.35990  0.06990  Biso   1.000  C
  H75      1.0000 0.07620  0.44220  0.07190  Biso   1.000  H
  C110     1.0000 0.07390  0.25340  0.10320  Biso   1.000  C
  H76      1.0000 0.10700  0.26450  0.12730  Biso   1.000  H
  C111     1.0000 0.04290  0.13040  0.10030  Biso   1.000  C
  H77      1.0000 0.05520  0.05920  0.12250  Biso   1.000  H
  C112     1.0000 0.99350  0.11380  0.06420  Biso   1.000  C
  C113     1.0000 0.97500  0.22030  0.03100  Biso   1.000  C
  H78      1.0000 0.94200  0.20920  0.00680  Biso   1.000  H
  C114     1.0000 0.96060  0.98700  0.06200  Biso   1.000  C
  H79      1.0000 0.97350  0.92260  0.08680  Biso   1.000  H
  C115     1.0000 0.88360  0.81450  0.02680  Biso   1.000  C
  C116     1.0000 0.83570  0.79160  0.98970  Biso   1.000  C
  H80      1.0000 0.82240  0.86110  0.96690  Biso   1.000  H
  C117     1.0000 0.80750  0.66500  0.98650  Biso   1.000  C
  H81      1.0000 0.77550  0.64970  0.96170  Biso   1.000  H
  N12      1.0000 0.82730  0.56120  0.02050  Biso   1.000  N
  C118     1.0000 0.87520  0.58400  0.05760  Biso   1.000  C
  H82      1.0000 0.88840  0.51460  0.08040  Biso   1.000  H
  C119     1.0000 0.90330  0.71070  0.06080  Biso   1.000  C
  H83      1.0000 0.93540  0.72600  0.08560  Biso   1.000  H
  C120     1.0000 0.91500  0.95130  0.02950  Biso   1.000  C
  H84      1.0000 0.90040  0.01670  0.00560  Biso   1.000  H
  Zn4      1.0000 0.28541  0.87839  0.01012  Biso   1.000  Zn
  N13      1.0000 0.51400  0.00350  0.02300  Biso   1.000  N
  C121     1.0000 0.51590  0.87590  0.05020  Biso   1.000  C
  C122     1.0000 0.55560  0.86130  0.09430  Biso   1.000  C
  H85      1.0000 0.58040  0.93360  0.10590  Biso   1.000  H
  C123     1.0000 0.55830  0.73870  0.12130  Biso   1.000  C
  H86      1.0000 0.58480  0.72890  0.15090  Biso   1.000  H
  C124     1.0000 0.52120  0.63060  0.10410  Biso   1.000  C
  H87      1.0000 0.52300  0.54860  0.12210  Biso   1.000  H
  C125     1.0000 0.48160  0.64530  0.05990  Biso   1.000  C
  C126     1.0000 0.47890  0.76790  0.03290  Biso   1.000  C
  H88      1.0000 0.45230  0.77770  0.00340  Biso   1.000  H
  C127     1.0000 0.44120  0.52300  0.03980  Biso   1.000  C
  H89      1.0000 0.41520  0.53540  0.01010  Biso   1.000  H
  C128     1.0000 0.40450  0.28610  0.05000  Biso   1.000  C
  C129     1.0000 0.36100  0.29050  0.00810  Biso   1.000  C
  H90      1.0000 0.35530  0.36990  0.98870  Biso   1.000  H
  C130     1.0000 0.32590  0.17600  0.99530  Biso   1.000  C
  H91      1.0000 0.29670  0.17890  0.96730  Biso   1.000  H
  N14      1.0000 0.33430  0.05730  0.02440  Biso   1.000  N
  C131     1.0000 0.37790  0.05300  0.06630  Biso   1.000  C
  H92      1.0000 0.38350  0.97350  0.08570  Biso   1.000  H
  C132     1.0000 0.41300  0.16740  0.07910  Biso   1.000  C
  H93      1.0000 0.44210  0.16450  0.10710  Biso   1.000  H
  C133     1.0000 0.44210  0.40390  0.06260  Biso   1.000  C
  H94      1.0000 0.47080  0.39350  0.09070  Biso   1.000  H
  C134     1.0000 0.18210  0.81870  0.06630  Biso   1.000  C
  C135     1.0000 0.15080  0.84470  0.11220  Biso   1.000  C
  C136     1.0000 0.17210  0.94580  0.14660  Biso   1.000  C
  H95      1.0000 0.20400  0.99990  0.14040  Biso   1.000  H
  C137     1.0000 0.14520  0.96570  0.19060  Biso   1.000  C
  H96      1.0000 0.15820  0.03510  0.21350  Biso   1.000  H
  C138     1.0000 0.09860  0.88000  0.20000  Biso   1.000  C
  C139     1.0000 0.07720  0.78540  0.16510  Biso   1.000  C
  H97      1.0000 0.04450  0.73300  0.17060  Biso   1.000  H
  C140     1.0000 0.10390  0.76580  0.12120  Biso   1.000  C
  H98      1.0000 0.08960  0.69870  0.09790  Biso   1.000  H
  C141     1.0000 0.10080  0.96380  0.28770  Biso   1.000  C
  C142     1.0000 0.14610  0.89210  0.31230  Biso   1.000  C
  H99      1.0000 0.15790  0.80830  0.30020  Biso   1.000  H
  C143     1.0000 0.17450  0.95090  0.35720  Biso   1.000  C
  H100     1.0000 0.20550  0.90470  0.37620  Biso   1.000  H
  C144     1.0000 0.15680  0.07790  0.37370  Biso   1.000  C
  C145     1.0000 0.11020  0.14250  0.34700  Biso   1.000  C
  H101     1.0000 0.09730  0.22550  0.35890  Biso   1.000  H
  C146     1.0000 0.08060  0.08650  0.30140  Biso   1.000  C
  H102     1.0000 0.04930  0.13120  0.28210  Biso   1.000  H
  C147     1.0000 0.18730  0.14330  0.42210  Biso   1.000  C
  O16      1.0000 0.22080  0.90520  0.05680  Biso   1.000  O
  O17      1.0000 0.16690  0.71520  0.04050  Biso   1.000  O
  O18      1.0000 0.06950  0.89790  0.24330  Biso   1.000  O
  O19      1.0000 0.22660  0.07150  0.44840  Biso   1.000  O
  O20      1.0000 0.17270  0.26040  0.43270  Biso   1.000  O
  N15      1.0000 0.48650  0.95270  0.99920  Biso   1.000  N
  C148     1.0000 0.50610  0.84330  0.03380  Biso   1.000  C
  C149     1.0000 0.55550  0.85990  0.06990  Biso   1.000  C
  H103     1.0000 0.57620  0.94220  0.07190  Biso   1.000  H
  C150     1.0000 0.57390  0.75340  0.10320  Biso   1.000  C
  H104     1.0000 0.60700  0.76450  0.12730  Biso   1.000  H
  C151     1.0000 0.54290  0.63040  0.10030  Biso   1.000  C
  H105     1.0000 0.55520  0.55920  0.12250  Biso   1.000  H
  C152     1.0000 0.49350  0.61380  0.06420  Biso   1.000  C
  C153     1.0000 0.47500  0.72030  0.03100  Biso   1.000  C
  H106     1.0000 0.44200  0.70920  0.00680  Biso   1.000  H
  C154     1.0000 0.46060  0.48700  0.06200  Biso   1.000  C
  H107     1.0000 0.47350  0.42260  0.08680  Biso   1.000  H
  C155     1.0000 0.38360  0.31450  0.02680  Biso   1.000  C
  C156     1.0000 0.33570  0.29160  0.98970  Biso   1.000  C
  H108     1.0000 0.32240  0.36110  0.96690  Biso   1.000  H
  C157     1.0000 0.30750  0.16500  0.98650  Biso   1.000  C
  H109     1.0000 0.27550  0.14970  0.96170  Biso   1.000  H
  N16      1.0000 0.32730  0.06120  0.02050  Biso   1.000  N
  C158     1.0000 0.37520  0.08400  0.05760  Biso   1.000  C
  H110     1.0000 0.38840  0.01460  0.08040  Biso   1.000  H
  C159     1.0000 0.40330  0.21070  0.06080  Biso   1.000  C
  H111     1.0000 0.43540  0.22600  0.08560  Biso   1.000  H
  C160     1.0000 0.41500  0.45130  0.02950  Biso   1.000  C
  H112     1.0000 0.40040  0.51670  0.00560  Biso   1.000  H
  Zn5      1.0000 0.78541  0.62161  0.51012  Biso   1.000  Zn
  N17      1.0000 0.01400  0.49650  0.52300  Biso   1.000  N
  C161     1.0000 0.01590  0.62410  0.55020  Biso   1.000  C
  C162     1.0000 0.05560  0.63870  0.59430  Biso   1.000  C
  H113     1.0000 0.08040  0.56640  0.60590  Biso   1.000  H
  C163     1.0000 0.05830  0.76130  0.62130  Biso   1.000  C
  H114     1.0000 0.08480  0.77110  0.65090  Biso   1.000  H
  C164     1.0000 0.02120  0.86940  0.60410  Biso   1.000  C
  H115     1.0000 0.02300  0.95140  0.62210  Biso   1.000  H
  C165     1.0000 0.98160  0.85470  0.55990  Biso   1.000  C
  C166     1.0000 0.97890  0.73210  0.53290  Biso   1.000  C
  H116     1.0000 0.95230  0.72230  0.50340  Biso   1.000  H
  C167     1.0000 0.94120  0.97700  0.53980  Biso   1.000  C
  H117     1.0000 0.91520  0.96460  0.51010  Biso   1.000  H
  C168     1.0000 0.90450  0.21390  0.55000  Biso   1.000  C
  C169     1.0000 0.86100  0.20950  0.50810  Biso   1.000  C
  H118     1.0000 0.85530  0.13010  0.48870  Biso   1.000  H
  C170     1.0000 0.82590  0.32400  0.49530  Biso   1.000  C
  H119     1.0000 0.79670  0.32110  0.46730  Biso   1.000  H
  N18      1.0000 0.83430  0.44270  0.52440  Biso   1.000  N
  C171     1.0000 0.87790  0.44700  0.56630  Biso   1.000  C
  H120     1.0000 0.88350  0.52650  0.58570  Biso   1.000  H
  C172     1.0000 0.91300  0.33260  0.57910  Biso   1.000  C
  H121     1.0000 0.94210  0.33550  0.60710  Biso   1.000  H
  C173     1.0000 0.94210  0.09610  0.56260  Biso   1.000  C
  H122     1.0000 0.97080  0.10650  0.59070  Biso   1.000  H
  C174     1.0000 0.68210  0.68130  0.56630  Biso   1.000  C
  C175     1.0000 0.65080  0.65530  0.61220  Biso   1.000  C
  C176     1.0000 0.67210  0.55420  0.64660  Biso   1.000  C
  H123     1.0000 0.70400  0.50010  0.64040  Biso   1.000  H
  C177     1.0000 0.64520  0.53430  0.69060  Biso   1.000  C
  H124     1.0000 0.65820  0.46490  0.71350  Biso   1.000  H
  C178     1.0000 0.59860  0.62000  0.70000  Biso   1.000  C
  C179     1.0000 0.57720  0.71460  0.66510  Biso   1.000  C
  H125     1.0000 0.54450  0.76700  0.67060  Biso   1.000  H
  C180     1.0000 0.60390  0.73420  0.62120  Biso   1.000  C
  H126     1.0000 0.58960  0.80130  0.59790  Biso   1.000  H
  C181     1.0000 0.60080  0.53620  0.78770  Biso   1.000  C
  C182     1.0000 0.64610  0.60790  0.81230  Biso   1.000  C
  H127     1.0000 0.65790  0.69170  0.80020  Biso   1.000  H
  C183     1.0000 0.67450  0.54910  0.85720  Biso   1.000  C
  H128     1.0000 0.70550  0.59530  0.87620  Biso   1.000  H
  C184     1.0000 0.65680  0.42210  0.87370  Biso   1.000  C
  C185     1.0000 0.61020  0.35750  0.84700  Biso   1.000  C
  H129     1.0000 0.59730  0.27450  0.85890  Biso   1.000  H
  C186     1.0000 0.58060  0.41350  0.80140  Biso   1.000  C
  H130     1.0000 0.54930  0.36880  0.78210  Biso   1.000  H
  C187     1.0000 0.68730  0.35670  0.92210  Biso   1.000  C
  O21      1.0000 0.72080  0.59480  0.55680  Biso   1.000  O
  O22      1.0000 0.66690  0.78480  0.54050  Biso   1.000  O
  O23      1.0000 0.56950  0.60210  0.74330  Biso   1.000  O
  O24      1.0000 0.72660  0.42850  0.94840  Biso   1.000  O
  O25      1.0000 0.67270  0.23960  0.93270  Biso   1.000  O
  N19      1.0000 0.98650  0.54730  0.49920  Biso   1.000  N
  C188     1.0000 0.00610  0.65670  0.53380  Biso   1.000  C
  C189     1.0000 0.05550  0.64010  0.56990  Biso   1.000  C
  H131     1.0000 0.07620  0.55780  0.57190  Biso   1.000  H
  C190     1.0000 0.07390  0.74660  0.60320  Biso   1.000  C
  H132     1.0000 0.10700  0.73550  0.62730  Biso   1.000  H
  C191     1.0000 0.04290  0.86960  0.60030  Biso   1.000  C
  H133     1.0000 0.05520  0.94080  0.62250  Biso   1.000  H
  C192     1.0000 0.99350  0.88620  0.56420  Biso   1.000  C
  C193     1.0000 0.97500  0.77970  0.53100  Biso   1.000  C
  H134     1.0000 0.94200  0.79080  0.50680  Biso   1.000  H
  C194     1.0000 0.96060  0.01300  0.56200  Biso   1.000  C
  H135     1.0000 0.97350  0.07740  0.58680  Biso   1.000  H
  C195     1.0000 0.88360  0.18550  0.52680  Biso   1.000  C
  C196     1.0000 0.83570  0.20840  0.48970  Biso   1.000  C
  H136     1.0000 0.82240  0.13890  0.46690  Biso   1.000  H
  C197     1.0000 0.80750  0.33500  0.48650  Biso   1.000  C
  H137     1.0000 0.77550  0.35030  0.46170  Biso   1.000  H
  N20      1.0000 0.82730  0.43880  0.52050  Biso   1.000  N
  C198     1.0000 0.87520  0.41600  0.55760  Biso   1.000  C
  H138     1.0000 0.88840  0.48540  0.58040  Biso   1.000  H
  C199     1.0000 0.90330  0.28930  0.56080  Biso   1.000  C
  H139     1.0000 0.93540  0.27400  0.58560  Biso   1.000  H
  C200     1.0000 0.91500  0.04870  0.52950  Biso   1.000  C
  H140     1.0000 0.90040  0.98330  0.50560  Biso   1.000  H
  Zn6      1.0000 0.28541  0.12161  0.51012  Biso   1.000  Zn
  N21      1.0000 0.51400  0.99650  0.52300  Biso   1.000  N
  C201     1.0000 0.51590  0.12410  0.55020  Biso   1.000  C
  C202     1.0000 0.55560  0.13870  0.59430  Biso   1.000  C
  H141     1.0000 0.58040  0.06640  0.60590  Biso   1.000  H
  C203     1.0000 0.55830  0.26130  0.62130  Biso   1.000  C
  H142     1.0000 0.58480  0.27110  0.65090  Biso   1.000  H
  C204     1.0000 0.52120  0.36940  0.60410  Biso   1.000  C
  H143     1.0000 0.52300  0.45140  0.62210  Biso   1.000  H
  C205     1.0000 0.48160  0.35470  0.55990  Biso   1.000  C
  C206     1.0000 0.47890  0.23210  0.53290  Biso   1.000  C
  H144     1.0000 0.45230  0.22230  0.50340  Biso   1.000  H
  C207     1.0000 0.44120  0.47700  0.53980  Biso   1.000  C
  H145     1.0000 0.41520  0.46460  0.51010  Biso   1.000  H
  C208     1.0000 0.40450  0.71390  0.55000  Biso   1.000  C
  C209     1.0000 0.36100  0.70950  0.50810  Biso   1.000  C
  H146     1.0000 0.35530  0.63010  0.48870  Biso   1.000  H
  C210     1.0000 0.32590  0.82400  0.49530  Biso   1.000  C
  H147     1.0000 0.29670  0.82110  0.46730  Biso   1.000  H
  N22      1.0000 0.33430  0.94270  0.52440  Biso   1.000  N
  C211     1.0000 0.37790  0.94700  0.56630  Biso   1.000  C
  H148     1.0000 0.38350  0.02650  0.58570  Biso   1.000  H
  C212     1.0000 0.41300  0.83260  0.57910  Biso   1.000  C
  H149     1.0000 0.44210  0.83550  0.60710  Biso   1.000  H
  C213     1.0000 0.44210  0.59610  0.56260  Biso   1.000  C
  H150     1.0000 0.47080  0.60650  0.59070  Biso   1.000  H
  C214     1.0000 0.18210  0.18130  0.56630  Biso   1.000  C
  C215     1.0000 0.15080  0.15530  0.61220  Biso   1.000  C
  C216     1.0000 0.17210  0.05420  0.64660  Biso   1.000  C
  H151     1.0000 0.20400  0.00010  0.64040  Biso   1.000  H
  C217     1.0000 0.14520  0.03430  0.69060  Biso   1.000  C
  H152     1.0000 0.15820  0.96490  0.71350  Biso   1.000  H
  C218     1.0000 0.09860  0.12000  0.70000  Biso   1.000  C
  C219     1.0000 0.07720  0.21460  0.66510  Biso   1.000  C
  H153     1.0000 0.04450  0.26700  0.67060  Biso   1.000  H
  C220     1.0000 0.10390  0.23420  0.62120  Biso   1.000  C
  H154     1.0000 0.08960  0.30130  0.59790  Biso   1.000  H
  C221     1.0000 0.10080  0.03620  0.78770  Biso   1.000  C
  C222     1.0000 0.14610  0.10790  0.81230  Biso   1.000  C
  H155     1.0000 0.15790  0.19170  0.80020  Biso   1.000  H
  C223     1.0000 0.17450  0.04910  0.85720  Biso   1.000  C
  H156     1.0000 0.20550  0.09530  0.87620  Biso   1.000  H
  C224     1.0000 0.15680  0.92210  0.87370  Biso   1.000  C
  C225     1.0000 0.11020  0.85750  0.84700  Biso   1.000  C
  H157     1.0000 0.09730  0.77450  0.85890  Biso   1.000  H
  C226     1.0000 0.08060  0.91350  0.80140  Biso   1.000  C
  H158     1.0000 0.04930  0.86880  0.78210  Biso   1.000  H
  C227     1.0000 0.18730  0.85670  0.92210  Biso   1.000  C
  O26      1.0000 0.22080  0.09480  0.55680  Biso   1.000  O
  O27      1.0000 0.16690  0.28480  0.54050  Biso   1.000  O
  O28      1.0000 0.06950  0.10210  0.74330  Biso   1.000  O
  O29      1.0000 0.22660  0.92850  0.94840  Biso   1.000  O
  O30      1.0000 0.17270  0.73960  0.93270  Biso   1.000  O
  N23      1.0000 0.48650  0.04730  0.49920  Biso   1.000  N
  C228     1.0000 0.50610  0.15670  0.53380  Biso   1.000  C
  C229     1.0000 0.55550  0.14010  0.56990  Biso   1.000  C
  H159     1.0000 0.57620  0.05780  0.57190  Biso   1.000  H
  C230     1.0000 0.57390  0.24660  0.60320  Biso   1.000  C
  H160     1.0000 0.60700  0.23550  0.62730  Biso   1.000  H
  C231     1.0000 0.54290  0.36960  0.60030  Biso   1.000  C
  H161     1.0000 0.55520  0.44080  0.62250  Biso   1.000  H
  C232     1.0000 0.49350  0.38620  0.56420  Biso   1.000  C
  C233     1.0000 0.47500  0.27970  0.53100  Biso   1.000  C
  H162     1.0000 0.44200  0.29080  0.50680  Biso   1.000  H
  C234     1.0000 0.46060  0.51300  0.56200  Biso   1.000  C
  H163     1.0000 0.47350  0.57740  0.58680  Biso   1.000  H
  C235     1.0000 0.38360  0.68550  0.52680  Biso   1.000  C
  C236     1.0000 0.33570  0.70840  0.48970  Biso   1.000  C
  H164     1.0000 0.32240  0.63890  0.46690  Biso   1.000  H
  C237     1.0000 0.30750  0.83500  0.48650  Biso   1.000  C
  H165     1.0000 0.27550  0.85030  0.46170  Biso   1.000  H
  N24      1.0000 0.32730  0.93880  0.52050  Biso   1.000  N
  C238     1.0000 0.37520  0.91600  0.55760  Biso   1.000  C
  H166     1.0000 0.38840  0.98540  0.58040  Biso   1.000  H
  C239     1.0000 0.40330  0.78930  0.56080  Biso   1.000  C
  H167     1.0000 0.43540  0.77400  0.58560  Biso   1.000  H
  C240     1.0000 0.41500  0.54870  0.52950  Biso   1.000  C
  H168     1.0000 0.40040  0.48330  0.50560  Biso   1.000  H
  Zn7      1.0000 0.21459  0.62161  0.98988  Biso   1.000  Zn
  N25      1.0000 0.98600  0.49650  0.97700  Biso   1.000  N
  C241     1.0000 0.98410  0.62410  0.94980  Biso   1.000  C
  C242     1.0000 0.94440  0.63870  0.90570  Biso   1.000  C
  H169     1.0000 0.91960  0.56640  0.89410  Biso   1.000  H
  C243     1.0000 0.94170  0.76130  0.87870  Biso   1.000  C
  H170     1.0000 0.91520  0.77110  0.84910  Biso   1.000  H
  C244     1.0000 0.97880  0.86940  0.89590  Biso   1.000  C
  H171     1.0000 0.97700  0.95140  0.87790  Biso   1.000  H
  C245     1.0000 0.01840  0.85470  0.94010  Biso   1.000  C
  C246     1.0000 0.02110  0.73210  0.96710  Biso   1.000  C
  H172     1.0000 0.04770  0.72230  0.99660  Biso   1.000  H
  C247     1.0000 0.05880  0.97700  0.96020  Biso   1.000  C
  H173     1.0000 0.08480  0.96460  0.98990  Biso   1.000  H
  C248     1.0000 0.09550  0.21390  0.95000  Biso   1.000  C
  C249     1.0000 0.13900  0.20950  0.99190  Biso   1.000  C
  H174     1.0000 0.14470  0.13010  0.01130  Biso   1.000  H
  C250     1.0000 0.17410  0.32400  0.00470  Biso   1.000  C
  H175     1.0000 0.20330  0.32110  0.03270  Biso   1.000  H
  N26      1.0000 0.16570  0.44270  0.97560  Biso   1.000  N
  C251     1.0000 0.12210  0.44700  0.93370  Biso   1.000  C
  H176     1.0000 0.11650  0.52650  0.91430  Biso   1.000  H
  C252     1.0000 0.08700  0.33260  0.92090  Biso   1.000  C
  H177     1.0000 0.05790  0.33550  0.89290  Biso   1.000  H
  C253     1.0000 0.05790  0.09610  0.93740  Biso   1.000  C
  H178     1.0000 0.02920  0.10650  0.90930  Biso   1.000  H
  C254     1.0000 0.31790  0.68130  0.93370  Biso   1.000  C
  C255     1.0000 0.34920  0.65530  0.88780  Biso   1.000  C
  C256     1.0000 0.32790  0.55420  0.85340  Biso   1.000  C
  H179     1.0000 0.29600  0.50010  0.85960  Biso   1.000  H
  C257     1.0000 0.35480  0.53430  0.80940  Biso   1.000  C
  H180     1.0000 0.34180  0.46490  0.78650  Biso   1.000  H
  C258     1.0000 0.40140  0.62000  0.80000  Biso   1.000  C
  C259     1.0000 0.42280  0.71460  0.83490  Biso   1.000  C
  H181     1.0000 0.45550  0.76700  0.82940  Biso   1.000  H
  C260     1.0000 0.39610  0.73420  0.87880  Biso   1.000  C
  H182     1.0000 0.41040  0.80130  0.90210  Biso   1.000  H
  C261     1.0000 0.39920  0.53620  0.71230  Biso   1.000  C
  C262     1.0000 0.35390  0.60790  0.68770  Biso   1.000  C
  H183     1.0000 0.34210  0.69170  0.69980  Biso   1.000  H
  C263     1.0000 0.32550  0.54910  0.64280  Biso   1.000  C
  H184     1.0000 0.29450  0.59530  0.62380  Biso   1.000  H
  C264     1.0000 0.34320  0.42210  0.62630  Biso   1.000  C
  C265     1.0000 0.38980  0.35750  0.65300  Biso   1.000  C
  H185     1.0000 0.40270  0.27450  0.64110  Biso   1.000  H
  C266     1.0000 0.41940  0.41350  0.69860  Biso   1.000  C
  H186     1.0000 0.45070  0.36880  0.71790  Biso   1.000  H
  C267     1.0000 0.31270  0.35670  0.57790  Biso   1.000  C
  O31      1.0000 0.27920  0.59480  0.94320  Biso   1.000  O
  O32      1.0000 0.33310  0.78480  0.95950  Biso   1.000  O
  O33      1.0000 0.43050  0.60210  0.75670  Biso   1.000  O
  O34      1.0000 0.27340  0.42850  0.55160  Biso   1.000  O
  O35      1.0000 0.32730  0.23960  0.56730  Biso   1.000  O
  N27      1.0000 0.01350  0.54730  0.00080  Biso   1.000  N
  C268     1.0000 0.99390  0.65670  0.96620  Biso   1.000  C
  C269     1.0000 0.94450  0.64010  0.93010  Biso   1.000  C
  H187     1.0000 0.92380  0.55780  0.92810  Biso   1.000  H
  C270     1.0000 0.92610  0.74660  0.89680  Biso   1.000  C
  H188     1.0000 0.89300  0.73550  0.87270  Biso   1.000  H
  C271     1.0000 0.95710  0.86960  0.89970  Biso   1.000  C
  H189     1.0000 0.94480  0.94080  0.87750  Biso   1.000  H
  C272     1.0000 0.00650  0.88620  0.93580  Biso   1.000  C
  C273     1.0000 0.02500  0.77970  0.96900  Biso   1.000  C
  H190     1.0000 0.05800  0.79080  0.99320  Biso   1.000  H
  C274     1.0000 0.03940  0.01300  0.93800  Biso   1.000  C
  H191     1.0000 0.02650  0.07740  0.91320  Biso   1.000  H
  C275     1.0000 0.11640  0.18550  0.97320  Biso   1.000  C
  C276     1.0000 0.16430  0.20840  0.01030  Biso   1.000  C
  H192     1.0000 0.17760  0.13890  0.03310  Biso   1.000  H
  C277     1.0000 0.19250  0.33500  0.01350  Biso   1.000  C
  H193     1.0000 0.22450  0.35030  0.03830  Biso   1.000  H
  N28      1.0000 0.17270  0.43880  0.97950  Biso   1.000  N
  C278     1.0000 0.12480  0.41600  0.94240  Biso   1.000  C
  H194     1.0000 0.11160  0.48540  0.91960  Biso   1.000  H
  C279     1.0000 0.09670  0.28930  0.93920  Biso   1.000  C
  H195     1.0000 0.06460  0.27400  0.91440  Biso   1.000  H
  C280     1.0000 0.08500  0.04870  0.97050  Biso   1.000  C
  H196     1.0000 0.09960  0.98330  0.99440  Biso   1.000  H
  Zn8      1.0000 0.71459  0.12161  0.98988  Biso   1.000  Zn
  N29      1.0000 0.48600  0.99650  0.97700  Biso   1.000  N
  C281     1.0000 0.48410  0.12410  0.94980  Biso   1.000  C
  C282     1.0000 0.44440  0.13870  0.90570  Biso   1.000  C
  H197     1.0000 0.41960  0.06640  0.89410  Biso   1.000  H
  C283     1.0000 0.44170  0.26130  0.87870  Biso   1.000  C
  H198     1.0000 0.41520  0.27110  0.84910  Biso   1.000  H
  C284     1.0000 0.47880  0.36940  0.89590  Biso   1.000  C
  H199     1.0000 0.47700  0.45140  0.87790  Biso   1.000  H
  C285     1.0000 0.51840  0.35470  0.94010  Biso   1.000  C
  C286     1.0000 0.52110  0.23210  0.96710  Biso   1.000  C
  H200     1.0000 0.54770  0.22230  0.99660  Biso   1.000  H
  C287     1.0000 0.55880  0.47700  0.96020  Biso   1.000  C
  H201     1.0000 0.58480  0.46460  0.98990  Biso   1.000  H
  C288     1.0000 0.59550  0.71390  0.95000  Biso   1.000  C
  C289     1.0000 0.63900  0.70950  0.99190  Biso   1.000  C
  H202     1.0000 0.64470  0.63010  0.01130  Biso   1.000  H
  C290     1.0000 0.67410  0.82400  0.00470  Biso   1.000  C
  H203     1.0000 0.70330  0.82110  0.03270  Biso   1.000  H
  N30      1.0000 0.66570  0.94270  0.97560  Biso   1.000  N
  C291     1.0000 0.62210  0.94700  0.93370  Biso   1.000  C
  H204     1.0000 0.61650  0.02650  0.91430  Biso   1.000  H
  C292     1.0000 0.58700  0.83260  0.92090  Biso   1.000  C
  H205     1.0000 0.55790  0.83550  0.89290  Biso   1.000  H
  C293     1.0000 0.55790  0.59610  0.93740  Biso   1.000  C
  H206     1.0000 0.52920  0.60650  0.90930  Biso   1.000  H
  C294     1.0000 0.81790  0.18130  0.93370  Biso   1.000  C
  C295     1.0000 0.84920  0.15530  0.88780  Biso   1.000  C
  C296     1.0000 0.82790  0.05420  0.85340  Biso   1.000  C
  H207     1.0000 0.79600  0.00010  0.85960  Biso   1.000  H
  C297     1.0000 0.85480  0.03430  0.80940  Biso   1.000  C
  H208     1.0000 0.84180  0.96490  0.78650  Biso   1.000  H
  C298     1.0000 0.90140  0.12000  0.80000  Biso   1.000  C
  C299     1.0000 0.92280  0.21460  0.83490  Biso   1.000  C
  H209     1.0000 0.95550  0.26700  0.82940  Biso   1.000  H
  C300     1.0000 0.89610  0.23420  0.87880  Biso   1.000  C
  H210     1.0000 0.91040  0.30130  0.90210  Biso   1.000  H
  C301     1.0000 0.89920  0.03620  0.71230  Biso   1.000  C
  C302     1.0000 0.85390  0.10790  0.68770  Biso   1.000  C
  H211     1.0000 0.84210  0.19170  0.69980  Biso   1.000  H
  C303     1.0000 0.82550  0.04910  0.64280  Biso   1.000  C
  H212     1.0000 0.79450  0.09530  0.62380  Biso   1.000  H
  C304     1.0000 0.84320  0.92210  0.62630  Biso   1.000  C
  C305     1.0000 0.88980  0.85750  0.65300  Biso   1.000  C
  H213     1.0000 0.90270  0.77450  0.64110  Biso   1.000  H
  C306     1.0000 0.91940  0.91350  0.69860  Biso   1.000  C
  H214     1.0000 0.95070  0.86880  0.71790  Biso   1.000  H
  C307     1.0000 0.81270  0.85670  0.57790  Biso   1.000  C
  O36      1.0000 0.77920  0.09480  0.94320  Biso   1.000  O
  O37      1.0000 0.83310  0.28480  0.95950  Biso   1.000  O
  O38      1.0000 0.93050  0.10210  0.75670  Biso   1.000  O
  O39      1.0000 0.77340  0.92850  0.55160  Biso   1.000  O
  O40      1.0000 0.82730  0.73960  0.56730  Biso   1.000  O
  N31      1.0000 0.51350  0.04730  0.00080  Biso   1.000  N
  C308     1.0000 0.49390  0.15670  0.96620  Biso   1.000  C
  C309     1.0000 0.44450  0.14010  0.93010  Biso   1.000  C
  H215     1.0000 0.42380  0.05780  0.92810  Biso   1.000  H
  C310     1.0000 0.42610  0.24660  0.89680  Biso   1.000  C
  H216     1.0000 0.39300  0.23550  0.87270  Biso   1.000  H
  C311     1.0000 0.45710  0.36960  0.89970  Biso   1.000  C
  H217     1.0000 0.44480  0.44080  0.87750  Biso   1.000  H
  C312     1.0000 0.50650  0.38620  0.93580  Biso   1.000  C
  C313     1.0000 0.52500  0.27970  0.96900  Biso   1.000  C
  H218     1.0000 0.55800  0.29080  0.99320  Biso   1.000  H
  C314     1.0000 0.53940  0.51300  0.93800  Biso   1.000  C
  H219     1.0000 0.52650  0.57740  0.91320  Biso   1.000  H
  C315     1.0000 0.61640  0.68550  0.97320  Biso   1.000  C
  C316     1.0000 0.66430  0.70840  0.01030  Biso   1.000  C
  H220     1.0000 0.67760  0.63890  0.03310  Biso   1.000  H
  C317     1.0000 0.69250  0.83500  0.01350  Biso   1.000  C
  H221     1.0000 0.72450  0.85030  0.03830  Biso   1.000  H
  N32      1.0000 0.67270  0.93880  0.97950  Biso   1.000  N
  C318     1.0000 0.62480  0.91600  0.94240  Biso   1.000  C
  H222     1.0000 0.61160  0.98540  0.91960  Biso   1.000  H
  C319     1.0000 0.59670  0.78930  0.93920  Biso   1.000  C
  H223     1.0000 0.56460  0.77400  0.91440  Biso   1.000  H
  C320     1.0000 0.58500  0.54870  0.97050  Biso   1.000  C
  H224     1.0000 0.59960  0.48330  0.99440  Biso   1.000  H
