data_image0
_cell_length_a       12.659
_cell_length_b       8.247
_cell_length_c       23.794
_cell_angle_alpha    90
_cell_angle_beta     105.823
_cell_angle_gamma    90

_symmetry_space_group_name_H-M    "P 1"
_symmetry_int_tables_number       1

loop_
  _symmetry_equiv_pos_as_xyz
  'x, y, z'

loop_
  _atom_site_label
  _atom_site_occupancy
  _atom_site_fract_x
  _atom_site_fract_y
  _atom_site_fract_z
  _atom_site_thermal_displace_type
  _atom_site_B_iso_or_equiv
  _atom_site_type_symbol
  Bi1      1.0000 0.22648  0.67332  0.13127  Biso   1.000  Bi
  Nd1      1.0000 0.71030  0.49915  0.11515  Biso   1.000  Nd
  O1       1.0000 0.06880  0.60220  0.16026  Biso   1.000  O
  O2       1.0000 0.90610  0.48500  0.12891  Biso   1.000  O
  O3       1.0000 0.19780  0.59340  0.02762  Biso   1.000  O
  O4       1.0000 0.26400  0.40740  0.97860  Biso   1.000  O
  O5       1.0000 0.24360  0.79740  0.22939  Biso   1.000  O
  O6       1.0000 0.27500  0.75710  0.32517  Biso   1.000  O
  O7       1.0000 0.40120  0.57200  0.12152  Biso   1.000  O
  O8       1.0000 0.57640  0.54470  0.17250  Biso   1.000  O
  O9       1.0000 0.75700  0.79210  0.12130  Biso   1.000  O
  H1       1.0000 0.69390  0.82220  0.09780  Biso   1.000  H
  H2       1.0000 0.79580  0.88810  0.14360  Biso   1.000  H
  O10      1.0000 0.54980  0.67600  0.05560  Biso   1.000  O
  H3       1.0000 0.56920  0.77550  0.06280  Biso   1.000  H
  H4       1.0000 0.50130  0.64640  0.07530  Biso   1.000  H
  O11      1.0000 0.38110  0.47460  0.45610  Biso   1.000  O
  H5       1.0000 0.32440  0.54730  0.43580  Biso   1.000  H
  H6       1.0000 0.36580  0.43490  0.48580  Biso   1.000  H
  N1       1.0000 0.16920  0.38590  0.10917  Biso   1.000  N
  N2       1.0000 0.32780  0.50180  0.21453  Biso   1.000  N
  C1       1.0000 0.20340  0.28500  0.16306  Biso   1.000  C
  H7       1.0000 0.20020  0.17120  0.15230  Biso   1.000  H
  H8       1.0000 0.15290  0.30240  0.18660  Biso   1.000  H
  C2       1.0000 0.31830  0.32640  0.19843  Biso   1.000  C
  H9       1.0000 0.33740  0.26120  0.23370  Biso   1.000  H
  H10      1.0000 0.36960  0.30090  0.17600  Biso   1.000  H
  C3       1.0000 0.04760  0.39280  0.08910  Biso   1.000  C
  H11      1.0000 0.01790  0.28430  0.08890  Biso   1.000  H
  H12      1.0000 0.02480  0.43440  0.04950  Biso   1.000  H
  C4       1.0000 0.00320  0.50040  0.12860  Biso   1.000  C
  C5       1.0000 0.21510  0.32040  0.06227  Biso   1.000  C
  H13      1.0000 0.16730  0.23510  0.04150  Biso   1.000  H
  H14      1.0000 0.28660  0.27310  0.07990  Biso   1.000  H
  C6       1.0000 0.22630  0.45070  0.01927  Biso   1.000  C
  C7       1.0000 0.29080  0.53250  0.26742  Biso   1.000  C
  H15      1.0000 0.34660  0.49500  0.30150  Biso   1.000  H
  H16      1.0000 0.22420  0.47130  0.26490  Biso   1.000  H
  C8       1.0000 0.26880  0.71040  0.27460  Biso   1.000  C
  C9       1.0000 0.44330  0.55440  0.22516  Biso   1.000  C
  H17      1.0000 0.49070  0.48100  0.25270  Biso   1.000  H
  H18      1.0000 0.45190  0.66200  0.24230  Biso   1.000  H
  C10      1.0000 0.47730  0.55690  0.16880  Biso   1.000  C
  N3       1.0000 0.35620  0.34510  0.42410  Biso   1.000  N
  O12      1.0000 0.26100  0.32600  0.38790  Biso   1.000  O
  O13      1.0000 0.42470  0.22700  0.43220  Biso   1.000  O
  O14      1.0000 0.42100  0.50500  0.46530  Biso   1.000  O
  Bi2      1.0000 0.77352  0.17332  0.36874  Biso   1.000  Bi
  Nd2      1.0000 0.28970  0.99915  0.38485  Biso   1.000  Nd
  O15      1.0000 0.93120  0.10220  0.33974  Biso   1.000  O
  O16      1.0000 0.09390  0.98500  0.37109  Biso   1.000  O
  O17      1.0000 0.80220  0.09340  0.47238  Biso   1.000  O
  O18      1.0000 0.73600  0.90740  0.52140  Biso   1.000  O
  O19      1.0000 0.75640  0.29740  0.27061  Biso   1.000  O
  O20      1.0000 0.72500  0.25710  0.17483  Biso   1.000  O
  O21      1.0000 0.59880  0.07200  0.37848  Biso   1.000  O
  O22      1.0000 0.42360  0.04470  0.32750  Biso   1.000  O
  O23      1.0000 0.24300  0.29210  0.37870  Biso   1.000  O
  H19      1.0000 0.30610  0.32220  0.40220  Biso   1.000  H
  H20      1.0000 0.20420  0.38810  0.35640  Biso   1.000  H
  O24      1.0000 0.45020  0.17600  0.44440  Biso   1.000  O
  H21      1.0000 0.43080  0.27550  0.43720  Biso   1.000  H
  H22      1.0000 0.49870  0.14640  0.42470  Biso   1.000  H
  O25      1.0000 0.61890  0.97460  0.04390  Biso   1.000  O
  H23      1.0000 0.67560  0.04730  0.06420  Biso   1.000  H
  H24      1.0000 0.63420  0.93490  0.01420  Biso   1.000  H
  N4       1.0000 0.83080  0.88590  0.39083  Biso   1.000  N
  N5       1.0000 0.67220  0.00180  0.28547  Biso   1.000  N
  C11      1.0000 0.79660  0.78500  0.33694  Biso   1.000  C
  H25      1.0000 0.79980  0.67120  0.34770  Biso   1.000  H
  H26      1.0000 0.84710  0.80240  0.31340  Biso   1.000  H
  C12      1.0000 0.68170  0.82640  0.30157  Biso   1.000  C
  H27      1.0000 0.66260  0.76120  0.26630  Biso   1.000  H
  H28      1.0000 0.63040  0.80090  0.32400  Biso   1.000  H
  C13      1.0000 0.95240  0.89280  0.41090  Biso   1.000  C
  H29      1.0000 0.98210  0.78430  0.41110  Biso   1.000  H
  H30      1.0000 0.97520  0.93440  0.45050  Biso   1.000  H
  C14      1.0000 0.99680  0.00040  0.37140  Biso   1.000  C
  C15      1.0000 0.78490  0.82040  0.43773  Biso   1.000  C
  H31      1.0000 0.83270  0.73510  0.45850  Biso   1.000  H
  H32      1.0000 0.71340  0.77310  0.42010  Biso   1.000  H
  C16      1.0000 0.77370  0.95070  0.48073  Biso   1.000  C
  C17      1.0000 0.70920  0.03250  0.23258  Biso   1.000  C
  H33      1.0000 0.65340  0.99500  0.19850  Biso   1.000  H
  H34      1.0000 0.77580  0.97130  0.23510  Biso   1.000  H
  C18      1.0000 0.73120  0.21040  0.22540  Biso   1.000  C
  C19      1.0000 0.55670  0.05440  0.27484  Biso   1.000  C
  H35      1.0000 0.50930  0.98100  0.24730  Biso   1.000  H
  H36      1.0000 0.54810  0.16200  0.25770  Biso   1.000  H
  C20      1.0000 0.52270  0.05690  0.33120  Biso   1.000  C
  N6       1.0000 0.64380  0.84510  0.07590  Biso   1.000  N
  O26      1.0000 0.73900  0.82600  0.11210  Biso   1.000  O
  O27      1.0000 0.57530  0.72700  0.06780  Biso   1.000  O
  O28      1.0000 0.57900  0.00500  0.03470  Biso   1.000  O
  Bi3      1.0000 0.77352  0.32668  0.86874  Biso   1.000  Bi
  Nd3      1.0000 0.28970  0.50085  0.88485  Biso   1.000  Nd
  O29      1.0000 0.93120  0.39780  0.83974  Biso   1.000  O
  O30      1.0000 0.09390  0.51500  0.87109  Biso   1.000  O
  O31      1.0000 0.80220  0.40660  0.97238  Biso   1.000  O
  O32      1.0000 0.73600  0.59260  0.02140  Biso   1.000  O
  O33      1.0000 0.75640  0.20260  0.77061  Biso   1.000  O
  O34      1.0000 0.72500  0.24290  0.67483  Biso   1.000  O
  O35      1.0000 0.59880  0.42800  0.87848  Biso   1.000  O
  O36      1.0000 0.42360  0.45530  0.82750  Biso   1.000  O
  O37      1.0000 0.24300  0.20790  0.87870  Biso   1.000  O
  H37      1.0000 0.30610  0.17780  0.90220  Biso   1.000  H
  H38      1.0000 0.20420  0.11190  0.85640  Biso   1.000  H
  O38      1.0000 0.45020  0.32400  0.94440  Biso   1.000  O
  H39      1.0000 0.43080  0.22450  0.93720  Biso   1.000  H
  H40      1.0000 0.49870  0.35360  0.92470  Biso   1.000  H
  O39      1.0000 0.61890  0.52540  0.54390  Biso   1.000  O
  H41      1.0000 0.67560  0.45270  0.56420  Biso   1.000  H
  H42      1.0000 0.63420  0.56510  0.51420  Biso   1.000  H
  N7       1.0000 0.83080  0.61410  0.89083  Biso   1.000  N
  N8       1.0000 0.67220  0.49820  0.78547  Biso   1.000  N
  C21      1.0000 0.79660  0.71500  0.83694  Biso   1.000  C
  H43      1.0000 0.79980  0.82880  0.84770  Biso   1.000  H
  H44      1.0000 0.84710  0.69760  0.81340  Biso   1.000  H
  C22      1.0000 0.68170  0.67360  0.80157  Biso   1.000  C
  H45      1.0000 0.66260  0.73880  0.76630  Biso   1.000  H
  H46      1.0000 0.63040  0.69910  0.82400  Biso   1.000  H
  C23      1.0000 0.95240  0.60720  0.91090  Biso   1.000  C
  H47      1.0000 0.98210  0.71570  0.91110  Biso   1.000  H
  H48      1.0000 0.97520  0.56560  0.95050  Biso   1.000  H
  C24      1.0000 0.99680  0.49960  0.87140  Biso   1.000  C
  C25      1.0000 0.78490  0.67960  0.93773  Biso   1.000  C
  H49      1.0000 0.83270  0.76490  0.95850  Biso   1.000  H
  H50      1.0000 0.71340  0.72690  0.92010  Biso   1.000  H
  C26      1.0000 0.77370  0.54930  0.98073  Biso   1.000  C
  C27      1.0000 0.70920  0.46750  0.73258  Biso   1.000  C
  H51      1.0000 0.65340  0.50500  0.69850  Biso   1.000  H
  H52      1.0000 0.77580  0.52870  0.73510  Biso   1.000  H
  C28      1.0000 0.73120  0.28960  0.72540  Biso   1.000  C
  C29      1.0000 0.55670  0.44560  0.77484  Biso   1.000  C
  H53      1.0000 0.50930  0.51900  0.74730  Biso   1.000  H
  H54      1.0000 0.54810  0.33800  0.75770  Biso   1.000  H
  C30      1.0000 0.52270  0.44310  0.83120  Biso   1.000  C
  N9       1.0000 0.64380  0.65490  0.57590  Biso   1.000  N
  O40      1.0000 0.73900  0.67400  0.61210  Biso   1.000  O
  O41      1.0000 0.57530  0.77300  0.56780  Biso   1.000  O
  O42      1.0000 0.57900  0.49500  0.53470  Biso   1.000  O
  Bi4      1.0000 0.22648  0.82668  0.63127  Biso   1.000  Bi
  Nd4      1.0000 0.71030  0.00085  0.61515  Biso   1.000  Nd
  O43      1.0000 0.06880  0.89780  0.66026  Biso   1.000  O
  O44      1.0000 0.90610  0.01500  0.62891  Biso   1.000  O
  O45      1.0000 0.19780  0.90660  0.52762  Biso   1.000  O
  O46      1.0000 0.26400  0.09260  0.47860  Biso   1.000  O
  O47      1.0000 0.24360  0.70260  0.72939  Biso   1.000  O
  O48      1.0000 0.27500  0.74290  0.82517  Biso   1.000  O
  O49      1.0000 0.40120  0.92800  0.62152  Biso   1.000  O
  O50      1.0000 0.57640  0.95530  0.67250  Biso   1.000  O
  O51      1.0000 0.75700  0.70790  0.62130  Biso   1.000  O
  H55      1.0000 0.69390  0.67780  0.59780  Biso   1.000  H
  H56      1.0000 0.79580  0.61190  0.64360  Biso   1.000  H
  O52      1.0000 0.54980  0.82400  0.55560  Biso   1.000  O
  H57      1.0000 0.56920  0.72450  0.56280  Biso   1.000  H
  H58      1.0000 0.50130  0.85360  0.57530  Biso   1.000  H
  O53      1.0000 0.38110  0.02540  0.95610  Biso   1.000  O
  H59      1.0000 0.32440  0.95270  0.93580  Biso   1.000  H
  H60      1.0000 0.36580  0.06510  0.98580  Biso   1.000  H
  N10      1.0000 0.16920  0.11410  0.60917  Biso   1.000  N
  N11      1.0000 0.32780  0.99820  0.71453  Biso   1.000  N
  C31      1.0000 0.20340  0.21500  0.66306  Biso   1.000  C
  H61      1.0000 0.20020  0.32880  0.65230  Biso   1.000  H
  H62      1.0000 0.15290  0.19760  0.68660  Biso   1.000  H
  C32      1.0000 0.31830  0.17360  0.69843  Biso   1.000  C
  H63      1.0000 0.33740  0.23880  0.73370  Biso   1.000  H
  H64      1.0000 0.36960  0.19910  0.67600  Biso   1.000  H
  C33      1.0000 0.04760  0.10720  0.58910  Biso   1.000  C
  H65      1.0000 0.01790  0.21570  0.58890  Biso   1.000  H
  H66      1.0000 0.02480  0.06560  0.54950  Biso   1.000  H
  C34      1.0000 0.00320  0.99960  0.62860  Biso   1.000  C
  C35      1.0000 0.21510  0.17960  0.56227  Biso   1.000  C
  H67      1.0000 0.16730  0.26490  0.54150  Biso   1.000  H
  H68      1.0000 0.28660  0.22690  0.57990  Biso   1.000  H
  C36      1.0000 0.22630  0.04930  0.51927  Biso   1.000  C
  C37      1.0000 0.29080  0.96750  0.76742  Biso   1.000  C
  H69      1.0000 0.34660  0.00500  0.80150  Biso   1.000  H
  H70      1.0000 0.22420  0.02870  0.76490  Biso   1.000  H
  C38      1.0000 0.26880  0.78960  0.77460  Biso   1.000  C
  C39      1.0000 0.44330  0.94560  0.72516  Biso   1.000  C
  H71      1.0000 0.49070  0.01900  0.75270  Biso   1.000  H
  H72      1.0000 0.45190  0.83800  0.74230  Biso   1.000  H
  C40      1.0000 0.47730  0.94310  0.66880  Biso   1.000  C
  N12      1.0000 0.35620  0.15490  0.92410  Biso   1.000  N
  O54      1.0000 0.26100  0.17400  0.88790  Biso   1.000  O
  O55      1.0000 0.42470  0.27300  0.93220  Biso   1.000  O
  O56      1.0000 0.42100  0.99500  0.96530  Biso   1.000  O
