data_image0
_cell_length_a       16.389
_cell_length_b       12.0113
_cell_length_c       12.2966
_cell_angle_alpha    90
_cell_angle_beta     90
_cell_angle_gamma    90

_symmetry_space_group_name_H-M    "P 1"
_symmetry_int_tables_number       1

loop_
  _symmetry_equiv_pos_as_xyz
  'x, y, z'

loop_
  _atom_site_label
  _atom_site_occupancy
  _atom_site_fract_x
  _atom_site_fract_y
  _atom_site_fract_z
  _atom_site_thermal_displace_type
  _atom_site_B_iso_or_equiv
  _atom_site_type_symbol
  Nd1      1.0000 0.97015  0.16173  0.28105  Biso   1.000  Nd
  Br1      1.0000 0.97877  0.20020  0.50922  Biso   1.000  Br
  Cl1      1.0000 0.98020  0.20040  0.50760  Biso   1.000  Cl
  S1       1.0000 0.78958  0.52046  0.52027  Biso   1.000  S
  O1       1.0000 0.91364  0.35390  0.30198  Biso   1.000  O
  O2       1.0000 0.92372  0.72878  0.21078  Biso   1.000  O
  C1       1.0000 0.65063  0.50260  0.64180  Biso   1.000  C
  O3       1.0000 0.66953  0.59859  0.67836  Biso   1.000  O
  O4       1.0000 0.58177  0.46058  0.66110  Biso   1.000  O
  O5       1.0000 0.91532  0.52686  0.35943  Biso   1.000  O
  C2       1.0000 0.87072  0.68400  0.15140  Biso   1.000  C
  O6       1.0000 0.87273  0.58251  0.12660  Biso   1.000  O
  C3       1.0000 0.70877  0.44550  0.57000  Biso   1.000  C
  C4       1.0000 0.81949  0.41030  0.44090  Biso   1.000  C
  C5       1.0000 0.88749  0.42980  0.36500  Biso   1.000  C
  C6       1.0000 0.70630  0.34080  0.52800  Biso   1.000  C
  H1       1.0000 0.66600  0.28720  0.54650  Biso   1.000  H
  C7       1.0000 0.80291  0.75080  0.10810  Biso   1.000  C
  S2       1.0000 0.73239  0.68505  0.02505  Biso   1.000  S
  O7       1.0000 0.55468  0.88528  0.94652  Biso   1.000  O
  O8       1.0000 0.59481  0.71960  0.88225  Biso   1.000  O
  C8       1.0000 0.60267  0.80340  0.94130  Biso   1.000  C
  C9       1.0000 0.71170  0.89170  0.06710  Biso   1.000  C
  H2       1.0000 0.68990  0.96500  0.06900  Biso   1.000  H
  C10      1.0000 0.67614  0.80550  0.01210  Biso   1.000  C
  C11      1.0000 0.77046  0.32060  0.45390  Biso   1.000  C
  H3       1.0000 0.77830  0.25180  0.41730  Biso   1.000  H
  C12      1.0000 0.78410  0.86010  0.12060  Biso   1.000  C
  H4       1.0000 0.81660  0.91040  0.16140  Biso   1.000  H
  Nd2      1.0000 0.02985  0.83828  0.28105  Biso   1.000  Nd
  Br2      1.0000 0.02123  0.79980  0.50922  Biso   1.000  Br
  Cl2      1.0000 0.01980  0.79960  0.50760  Biso   1.000  Cl
  S3       1.0000 0.21042  0.47954  0.52027  Biso   1.000  S
  O9       1.0000 0.08636  0.64610  0.30198  Biso   1.000  O
  O10      1.0000 0.07628  0.27122  0.21078  Biso   1.000  O
  C13      1.0000 0.34937  0.49740  0.64180  Biso   1.000  C
  O11      1.0000 0.33047  0.40141  0.67836  Biso   1.000  O
  O12      1.0000 0.41823  0.53942  0.66110  Biso   1.000  O
  O13      1.0000 0.08468  0.47314  0.35943  Biso   1.000  O
  C14      1.0000 0.12928  0.31600  0.15140  Biso   1.000  C
  O14      1.0000 0.12727  0.41749  0.12660  Biso   1.000  O
  C15      1.0000 0.29123  0.55450  0.57000  Biso   1.000  C
  C16      1.0000 0.18051  0.58970  0.44090  Biso   1.000  C
  C17      1.0000 0.11251  0.57020  0.36500  Biso   1.000  C
  C18      1.0000 0.29370  0.65920  0.52800  Biso   1.000  C
  H5       1.0000 0.33400  0.71280  0.54650  Biso   1.000  H
  C19      1.0000 0.19709  0.24920  0.10810  Biso   1.000  C
  S4       1.0000 0.26761  0.31495  0.02505  Biso   1.000  S
  O15      1.0000 0.44532  0.11472  0.94652  Biso   1.000  O
  O16      1.0000 0.40519  0.28040  0.88225  Biso   1.000  O
  C20      1.0000 0.39733  0.19660  0.94130  Biso   1.000  C
  C21      1.0000 0.28830  0.10830  0.06710  Biso   1.000  C
  H6       1.0000 0.31010  0.03500  0.06900  Biso   1.000  H
  C22      1.0000 0.32386  0.19450  0.01210  Biso   1.000  C
  C23      1.0000 0.22954  0.67940  0.45390  Biso   1.000  C
  H7       1.0000 0.22170  0.74820  0.41730  Biso   1.000  H
  C24      1.0000 0.21590  0.13990  0.12060  Biso   1.000  C
  H8       1.0000 0.18340  0.08960  0.16140  Biso   1.000  H
  Nd3      1.0000 0.52985  0.66173  0.71895  Biso   1.000  Nd
  Br3      1.0000 0.52123  0.70020  0.49078  Biso   1.000  Br
  Cl3      1.0000 0.51980  0.70040  0.49240  Biso   1.000  Cl
  S5       1.0000 0.71042  0.02046  0.47973  Biso   1.000  S
  O17      1.0000 0.58636  0.85390  0.69802  Biso   1.000  O
  O18      1.0000 0.57628  0.22878  0.78922  Biso   1.000  O
  C25      1.0000 0.84937  0.00260  0.35820  Biso   1.000  C
  O19      1.0000 0.83047  0.09859  0.32164  Biso   1.000  O
  O20      1.0000 0.91823  0.96058  0.33890  Biso   1.000  O
  O21      1.0000 0.58468  0.02686  0.64057  Biso   1.000  O
  C26      1.0000 0.62928  0.18400  0.84860  Biso   1.000  C
  O22      1.0000 0.62727  0.08251  0.87340  Biso   1.000  O
  C27      1.0000 0.79123  0.94550  0.43000  Biso   1.000  C
  C28      1.0000 0.68051  0.91030  0.55910  Biso   1.000  C
  C29      1.0000 0.61251  0.92980  0.63500  Biso   1.000  C
  C30      1.0000 0.79370  0.84080  0.47200  Biso   1.000  C
  H9       1.0000 0.83400  0.78720  0.45350  Biso   1.000  H
  C31      1.0000 0.69709  0.25080  0.89190  Biso   1.000  C
  S6       1.0000 0.76761  0.18505  0.97495  Biso   1.000  S
  O23      1.0000 0.94532  0.38528  0.05348  Biso   1.000  O
  O24      1.0000 0.90519  0.21960  0.11775  Biso   1.000  O
  C32      1.0000 0.89733  0.30340  0.05870  Biso   1.000  C
  C33      1.0000 0.78830  0.39170  0.93290  Biso   1.000  C
  H10      1.0000 0.81010  0.46500  0.93100  Biso   1.000  H
  C34      1.0000 0.82386  0.30550  0.98790  Biso   1.000  C
  C35      1.0000 0.72954  0.82060  0.54610  Biso   1.000  C
  H11      1.0000 0.72170  0.75180  0.58270  Biso   1.000  H
  C36      1.0000 0.71590  0.36010  0.87940  Biso   1.000  C
  H12      1.0000 0.68340  0.41040  0.83860  Biso   1.000  H
  Nd4      1.0000 0.47015  0.33827  0.71895  Biso   1.000  Nd
  Br4      1.0000 0.47877  0.29980  0.49078  Biso   1.000  Br
  Cl4      1.0000 0.48020  0.29960  0.49240  Biso   1.000  Cl
  S7       1.0000 0.28958  0.97954  0.47973  Biso   1.000  S
  O25      1.0000 0.41364  0.14610  0.69802  Biso   1.000  O
  O26      1.0000 0.42372  0.77122  0.78922  Biso   1.000  O
  C37      1.0000 0.15063  0.99740  0.35820  Biso   1.000  C
  O27      1.0000 0.16953  0.90141  0.32164  Biso   1.000  O
  O28      1.0000 0.08177  0.03942  0.33890  Biso   1.000  O
  O29      1.0000 0.41532  0.97314  0.64057  Biso   1.000  O
  C38      1.0000 0.37072  0.81600  0.84860  Biso   1.000  C
  O30      1.0000 0.37273  0.91749  0.87340  Biso   1.000  O
  C39      1.0000 0.20877  0.05450  0.43000  Biso   1.000  C
  C40      1.0000 0.31949  0.08970  0.55910  Biso   1.000  C
  C41      1.0000 0.38749  0.07020  0.63500  Biso   1.000  C
  C42      1.0000 0.20630  0.15920  0.47200  Biso   1.000  C
  H13      1.0000 0.16600  0.21280  0.45350  Biso   1.000  H
  C43      1.0000 0.30291  0.74920  0.89190  Biso   1.000  C
  S8       1.0000 0.23239  0.81495  0.97495  Biso   1.000  S
  O31      1.0000 0.05468  0.61472  0.05348  Biso   1.000  O
  O32      1.0000 0.09481  0.78040  0.11775  Biso   1.000  O
  C44      1.0000 0.10267  0.69660  0.05870  Biso   1.000  C
  C45      1.0000 0.21170  0.60830  0.93290  Biso   1.000  C
  H14      1.0000 0.18990  0.53500  0.93100  Biso   1.000  H
  C46      1.0000 0.17614  0.69450  0.98790  Biso   1.000  C
  C47      1.0000 0.27046  0.17940  0.54610  Biso   1.000  C
  H15      1.0000 0.27830  0.24820  0.58270  Biso   1.000  H
  C48      1.0000 0.28410  0.63990  0.87940  Biso   1.000  C
  H16      1.0000 0.31660  0.58960  0.83860  Biso   1.000  H
  Nd5      1.0000 0.00000  0.50000  0.19588  Biso   1.000  Nd
  Nd6      1.0000 0.50000  0.00000  0.80412  Biso   1.000  Nd
  Cl5      1.0000 0.00000  0.00000  0.11748  Biso   1.000  Cl
  Cl6      1.0000 0.50000  0.50000  0.88252  Biso   1.000  Cl
