data_image0
_cell_length_a       10.1838
_cell_length_b       13.8721
_cell_length_c       33.049
_cell_angle_alpha    90
_cell_angle_beta     93.73
_cell_angle_gamma    90

_symmetry_space_group_name_H-M    "P 1"
_symmetry_int_tables_number       1

loop_
  _symmetry_equiv_pos_as_xyz
  'x, y, z'

loop_
  _atom_site_label
  _atom_site_occupancy
  _atom_site_fract_x
  _atom_site_fract_y
  _atom_site_fract_z
  _atom_site_thermal_displace_type
  _atom_site_B_iso_or_equiv
  _atom_site_type_symbol
  Mn1      1.0000 0.38906  0.98069  0.70956  Biso   1.000  Mn
  O1       1.0000 0.21080  0.97040  0.67119  Biso   1.000  O
  O2       1.0000 0.60810  0.99350  0.71156  Biso   1.000  O
  O3       1.0000 0.50900  0.96840  0.65200  Biso   1.000  O
  N1       1.0000 0.38470  0.81780  0.71302  Biso   1.000  N
  C1       1.0000 0.85850  0.96490  0.68160  Biso   1.000  C
  H1       1.0000 0.85530  0.98490  0.70910  Biso   1.000  H
  N2       1.0000 0.36550  0.14240  0.70610  Biso   1.000  N
  C2       1.0000 0.10730  0.97590  0.68921  Biso   1.000  C
  C3       1.0000 0.61180  0.97690  0.67490  Biso   1.000  C
  C4       1.0000 0.98000  0.95050  0.66420  Biso   1.000  C
  C5       1.0000 0.42350  0.76910  0.74620  Biso   1.000  C
  H2       1.0000 0.45230  0.80440  0.76970  Biso   1.000  H
  C6       1.0000 0.74420  0.94900  0.65750  Biso   1.000  C
  C7       1.0000 0.34570  0.76460  0.68000  Biso   1.000  C
  H3       1.0000 0.31680  0.79740  0.65590  Biso   1.000  H
  C8       1.0000 0.34560  0.66450  0.67970  Biso   1.000  C
  H4       1.0000 0.31860  0.63040  0.65570  Biso   1.000  H
  C9       1.0000 0.38540  0.61470  0.71480  Biso   1.000  C
  C10      1.0000 0.35180  0.33890  0.69690  Biso   1.000  C
  C11      1.0000 0.42430  0.66990  0.74820  Biso   1.000  C
  H5       1.0000 0.45200  0.63900  0.77300  Biso   1.000  H
  C12      1.0000 0.30140  0.18470  0.67480  Biso   1.000  C
  H6       1.0000 0.25870  0.14450  0.65470  Biso   1.000  H
  C13      1.0000 0.38590  0.51020  0.72000  Biso   1.000  C
  H7       1.0000 0.41630  0.48610  0.74580  Biso   1.000  H
  C14      1.0000 0.34730  0.44460  0.69140  Biso   1.000  C
  H8       1.0000 0.31460  0.46830  0.66570  Biso   1.000  H
  C15      1.0000 0.29250  0.28120  0.66950  Biso   1.000  C
  H9       1.0000 0.24440  0.30720  0.64650  Biso   1.000  H
  C16      1.0000 0.41600  0.30030  0.73170  Biso   1.000  C
  H10      1.0000 0.45390  0.34020  0.75270  Biso   1.000  H
  C17      1.0000 0.42170  0.19930  0.73410  Biso   1.000  C
  H11      1.0000 0.46800  0.17070  0.75690  Biso   1.000  H
  C18      1.0000 0.98490  0.91810  0.62590  Biso   1.000  C
  H12      1.0000 0.06780  0.90760  0.61500  Biso   1.000  H
  O4       1.0000 0.10380  0.98940  0.72635  Biso   1.000  O
  C19      1.0000 0.74690  0.91940  0.61880  Biso   1.000  C
  H13      1.0000 0.66740  0.91130  0.60250  Biso   1.000  H
  C20      1.0000 0.87140  0.90020  0.60240  Biso   1.000  C
  N3       1.0000 0.97300  0.81300  0.55540  Biso   1.000  N
  N4       1.0000 0.86580  0.84640  0.56520  Biso   1.000  N
  N5       1.0000 0.05900  0.78300  0.53920  Biso   1.000  N
  C21      1.0000 0.98300  0.97300  0.62120  Biso   1.000  C
  H14      1.0000 0.06480  0.97060  0.60900  Biso   1.000  H
  C22      1.0000 0.86600  0.96570  0.59770  Biso   1.000  C
  C23      1.0000 0.74670  0.97440  0.61490  Biso   1.000  C
  H15      1.0000 0.66710  0.97170  0.59820  Biso   1.000  H
  C24      1.0000 0.74280  0.98700  0.65640  Biso   1.000  C
  C25      1.0000 0.86000  0.98960  0.68070  Biso   1.000  C
  H16      1.0000 0.85750  0.99510  0.70930  Biso   1.000  H
  C26      1.0000 0.97960  0.98430  0.66410  Biso   1.000  C
  C27      1.0000 0.35800  0.50800  0.69520  Biso   1.000  C
  H17      1.0000 0.32230  0.49080  0.66890  Biso   1.000  H
  C28      1.0000 0.39400  0.46000  0.72260  Biso   1.000  C
  H18      1.0000 0.43160  0.47580  0.74880  Biso   1.000  H
  N6       1.0000 0.85700  0.94200  0.55480  Biso   1.000  N
  N7       1.0000 0.95900  0.99480  0.53680  Biso   1.000  N
  N8       1.0000 0.05300  0.92700  0.51830  Biso   1.000  N
  N9       1.0000 0.96800  0.85100  0.54740  Biso   1.000  N
  N10      1.0000 0.86200  0.99400  0.55410  Biso   1.000  N
  N11      1.0000 0.02900  0.00000  0.51740  Biso   1.000  N
  N12      1.0000 0.86500  0.89500  0.55900  Biso   1.000  N
  N13      1.0000 0.96100  0.92300  0.53920  Biso   1.000  N
  N14      1.0000 0.05100  0.85600  0.53030  Biso   1.000  N
  Mn2      1.0000 0.11094  0.98069  0.79044  Biso   1.000  Mn
  O5       1.0000 0.28920  0.97040  0.82881  Biso   1.000  O
  O6       1.0000 0.89190  0.99350  0.78844  Biso   1.000  O
  O7       1.0000 0.99100  0.96840  0.84800  Biso   1.000  O
  N15      1.0000 0.11530  0.81780  0.78698  Biso   1.000  N
  C29      1.0000 0.64150  0.96490  0.81840  Biso   1.000  C
  H19      1.0000 0.64470  0.98490  0.79090  Biso   1.000  H
  N16      1.0000 0.13450  0.14240  0.79390  Biso   1.000  N
  C30      1.0000 0.39270  0.97590  0.81079  Biso   1.000  C
  C31      1.0000 0.88820  0.97690  0.82510  Biso   1.000  C
  C32      1.0000 0.52000  0.95050  0.83580  Biso   1.000  C
  C33      1.0000 0.07650  0.76910  0.75380  Biso   1.000  C
  H20      1.0000 0.04770  0.80440  0.73030  Biso   1.000  H
  C34      1.0000 0.75580  0.94900  0.84250  Biso   1.000  C
  C35      1.0000 0.15430  0.76460  0.82000  Biso   1.000  C
  H21      1.0000 0.18320  0.79740  0.84410  Biso   1.000  H
  C36      1.0000 0.15440  0.66450  0.82030  Biso   1.000  C
  H22      1.0000 0.18140  0.63040  0.84430  Biso   1.000  H
  C37      1.0000 0.11460  0.61470  0.78520  Biso   1.000  C
  C38      1.0000 0.14820  0.33890  0.80310  Biso   1.000  C
  C39      1.0000 0.07570  0.66990  0.75180  Biso   1.000  C
  H23      1.0000 0.04800  0.63900  0.72700  Biso   1.000  H
  C40      1.0000 0.19860  0.18470  0.82520  Biso   1.000  C
  H24      1.0000 0.24130  0.14450  0.84530  Biso   1.000  H
  C41      1.0000 0.11410  0.51020  0.78000  Biso   1.000  C
  H25      1.0000 0.08370  0.48610  0.75420  Biso   1.000  H
  C42      1.0000 0.15270  0.44460  0.80860  Biso   1.000  C
  H26      1.0000 0.18540  0.46830  0.83430  Biso   1.000  H
  C43      1.0000 0.20750  0.28120  0.83050  Biso   1.000  C
  H27      1.0000 0.25560  0.30720  0.85350  Biso   1.000  H
  C44      1.0000 0.08400  0.30030  0.76830  Biso   1.000  C
  H28      1.0000 0.04610  0.34020  0.74730  Biso   1.000  H
  C45      1.0000 0.07830  0.19930  0.76590  Biso   1.000  C
  H29      1.0000 0.03200  0.17070  0.74310  Biso   1.000  H
  C46      1.0000 0.51510  0.91810  0.87410  Biso   1.000  C
  H30      1.0000 0.43220  0.90760  0.88500  Biso   1.000  H
  O8       1.0000 0.39620  0.98940  0.77365  Biso   1.000  O
  C47      1.0000 0.75310  0.91940  0.88120  Biso   1.000  C
  H31      1.0000 0.83260  0.91130  0.89750  Biso   1.000  H
  C48      1.0000 0.62860  0.90020  0.89760  Biso   1.000  C
  N17      1.0000 0.52700  0.81300  0.94460  Biso   1.000  N
  N18      1.0000 0.63420  0.84640  0.93480  Biso   1.000  N
  N19      1.0000 0.44100  0.78300  0.96080  Biso   1.000  N
  C49      1.0000 0.51700  0.97300  0.87880  Biso   1.000  C
  H32      1.0000 0.43520  0.97060  0.89100  Biso   1.000  H
  C50      1.0000 0.63400  0.96570  0.90230  Biso   1.000  C
  C51      1.0000 0.75330  0.97440  0.88510  Biso   1.000  C
  H33      1.0000 0.83290  0.97170  0.90180  Biso   1.000  H
  C52      1.0000 0.75720  0.98700  0.84360  Biso   1.000  C
  C53      1.0000 0.64000  0.98960  0.81930  Biso   1.000  C
  H34      1.0000 0.64250  0.99510  0.79070  Biso   1.000  H
  C54      1.0000 0.52040  0.98430  0.83590  Biso   1.000  C
  C55      1.0000 0.14200  0.50800  0.80480  Biso   1.000  C
  H35      1.0000 0.17770  0.49080  0.83110  Biso   1.000  H
  C56      1.0000 0.10600  0.46000  0.77740  Biso   1.000  C
  H36      1.0000 0.06840  0.47580  0.75120  Biso   1.000  H
  N20      1.0000 0.64300  0.94200  0.94520  Biso   1.000  N
  N21      1.0000 0.54100  0.99480  0.96320  Biso   1.000  N
  N22      1.0000 0.44700  0.92700  0.98170  Biso   1.000  N
  N23      1.0000 0.53200  0.85100  0.95260  Biso   1.000  N
  N24      1.0000 0.63800  0.99400  0.94590  Biso   1.000  N
  N25      1.0000 0.47100  0.00000  0.98260  Biso   1.000  N
  N26      1.0000 0.63500  0.89500  0.94100  Biso   1.000  N
  N27      1.0000 0.53900  0.92300  0.96080  Biso   1.000  N
  N28      1.0000 0.44900  0.85600  0.96970  Biso   1.000  N
  Mn3      1.0000 0.61094  0.01931  0.29044  Biso   1.000  Mn
  O9       1.0000 0.78920  0.02960  0.32881  Biso   1.000  O
  O10      1.0000 0.39190  0.00650  0.28844  Biso   1.000  O
  O11      1.0000 0.49100  0.03160  0.34800  Biso   1.000  O
  N29      1.0000 0.61530  0.18220  0.28698  Biso   1.000  N
  C57      1.0000 0.14150  0.03510  0.31840  Biso   1.000  C
  H37      1.0000 0.14470  0.01510  0.29090  Biso   1.000  H
  N30      1.0000 0.63450  0.85760  0.29390  Biso   1.000  N
  C58      1.0000 0.89270  0.02410  0.31079  Biso   1.000  C
  C59      1.0000 0.38820  0.02310  0.32510  Biso   1.000  C
  C60      1.0000 0.02000  0.04950  0.33580  Biso   1.000  C
  C61      1.0000 0.57650  0.23090  0.25380  Biso   1.000  C
  H38      1.0000 0.54770  0.19560  0.23030  Biso   1.000  H
  C62      1.0000 0.25580  0.05100  0.34250  Biso   1.000  C
  C63      1.0000 0.65430  0.23540  0.32000  Biso   1.000  C
  H39      1.0000 0.68320  0.20260  0.34410  Biso   1.000  H
  C64      1.0000 0.65440  0.33550  0.32030  Biso   1.000  C
  H40      1.0000 0.68140  0.36960  0.34430  Biso   1.000  H
  C65      1.0000 0.61460  0.38530  0.28520  Biso   1.000  C
  C66      1.0000 0.64820  0.66110  0.30310  Biso   1.000  C
  C67      1.0000 0.57570  0.33010  0.25180  Biso   1.000  C
  H41      1.0000 0.54800  0.36100  0.22700  Biso   1.000  H
  C68      1.0000 0.69860  0.81530  0.32520  Biso   1.000  C
  H42      1.0000 0.74130  0.85550  0.34530  Biso   1.000  H
  C69      1.0000 0.61410  0.48980  0.28000  Biso   1.000  C
  H43      1.0000 0.58370  0.51390  0.25420  Biso   1.000  H
  C70      1.0000 0.65270  0.55540  0.30860  Biso   1.000  C
  H44      1.0000 0.68540  0.53170  0.33430  Biso   1.000  H
  C71      1.0000 0.70750  0.71880  0.33050  Biso   1.000  C
  H45      1.0000 0.75560  0.69280  0.35350  Biso   1.000  H
  C72      1.0000 0.58400  0.69970  0.26830  Biso   1.000  C
  H46      1.0000 0.54610  0.65980  0.24730  Biso   1.000  H
  C73      1.0000 0.57830  0.80070  0.26590  Biso   1.000  C
  H47      1.0000 0.53200  0.82930  0.24310  Biso   1.000  H
  C74      1.0000 0.01510  0.08190  0.37410  Biso   1.000  C
  H48      1.0000 0.93220  0.09240  0.38500  Biso   1.000  H
  O12      1.0000 0.89620  0.01060  0.27365  Biso   1.000  O
  C75      1.0000 0.25310  0.08060  0.38120  Biso   1.000  C
  H49      1.0000 0.33260  0.08870  0.39750  Biso   1.000  H
  C76      1.0000 0.12860  0.09980  0.39760  Biso   1.000  C
  N31      1.0000 0.02700  0.18700  0.44460  Biso   1.000  N
  N32      1.0000 0.13420  0.15360  0.43480  Biso   1.000  N
  N33      1.0000 0.94100  0.21700  0.46080  Biso   1.000  N
  C77      1.0000 0.01700  0.02700  0.37880  Biso   1.000  C
  H50      1.0000 0.93520  0.02940  0.39100  Biso   1.000  H
  C78      1.0000 0.13400  0.03430  0.40230  Biso   1.000  C
  C79      1.0000 0.25330  0.02560  0.38510  Biso   1.000  C
  H51      1.0000 0.33290  0.02830  0.40180  Biso   1.000  H
  C80      1.0000 0.25720  0.01300  0.34360  Biso   1.000  C
  C81      1.0000 0.14000  0.01040  0.31930  Biso   1.000  C
  H52      1.0000 0.14250  0.00490  0.29070  Biso   1.000  H
  C82      1.0000 0.02040  0.01570  0.33590  Biso   1.000  C
  C83      1.0000 0.64200  0.49200  0.30480  Biso   1.000  C
  H53      1.0000 0.67770  0.50920  0.33110  Biso   1.000  H
  C84      1.0000 0.60600  0.54000  0.27740  Biso   1.000  C
  H54      1.0000 0.56840  0.52420  0.25120  Biso   1.000  H
  N34      1.0000 0.14300  0.05800  0.44520  Biso   1.000  N
  N35      1.0000 0.04100  0.00520  0.46320  Biso   1.000  N
  N36      1.0000 0.94700  0.07300  0.48170  Biso   1.000  N
  N37      1.0000 0.03200  0.14900  0.45260  Biso   1.000  N
  N38      1.0000 0.13800  0.00600  0.44590  Biso   1.000  N
  N39      1.0000 0.97100  0.00000  0.48260  Biso   1.000  N
  N40      1.0000 0.13500  0.10500  0.44100  Biso   1.000  N
  N41      1.0000 0.03900  0.07700  0.46080  Biso   1.000  N
  N42      1.0000 0.94900  0.14400  0.46970  Biso   1.000  N
  Mn4      1.0000 0.88906  0.01931  0.20956  Biso   1.000  Mn
  O13      1.0000 0.71080  0.02960  0.17119  Biso   1.000  O
  O14      1.0000 0.10810  0.00650  0.21156  Biso   1.000  O
  O15      1.0000 0.00900  0.03160  0.15200  Biso   1.000  O
  N43      1.0000 0.88470  0.18220  0.21302  Biso   1.000  N
  C85      1.0000 0.35850  0.03510  0.18160  Biso   1.000  C
  H55      1.0000 0.35530  0.01510  0.20910  Biso   1.000  H
  N44      1.0000 0.86550  0.85760  0.20610  Biso   1.000  N
  C86      1.0000 0.60730  0.02410  0.18921  Biso   1.000  C
  C87      1.0000 0.11180  0.02310  0.17490  Biso   1.000  C
  C88      1.0000 0.48000  0.04950  0.16420  Biso   1.000  C
  C89      1.0000 0.92350  0.23090  0.24620  Biso   1.000  C
  H56      1.0000 0.95230  0.19560  0.26970  Biso   1.000  H
  C90      1.0000 0.24420  0.05100  0.15750  Biso   1.000  C
  C91      1.0000 0.84570  0.23540  0.18000  Biso   1.000  C
  H57      1.0000 0.81680  0.20260  0.15590  Biso   1.000  H
  C92      1.0000 0.84560  0.33550  0.17970  Biso   1.000  C
  H58      1.0000 0.81860  0.36960  0.15570  Biso   1.000  H
  C93      1.0000 0.88540  0.38530  0.21480  Biso   1.000  C
  C94      1.0000 0.85180  0.66110  0.19690  Biso   1.000  C
  C95      1.0000 0.92430  0.33010  0.24820  Biso   1.000  C
  H59      1.0000 0.95200  0.36100  0.27300  Biso   1.000  H
  C96      1.0000 0.80140  0.81530  0.17480  Biso   1.000  C
  H60      1.0000 0.75870  0.85550  0.15470  Biso   1.000  H
  C97      1.0000 0.88590  0.48980  0.22000  Biso   1.000  C
  H61      1.0000 0.91630  0.51390  0.24580  Biso   1.000  H
  C98      1.0000 0.84730  0.55540  0.19140  Biso   1.000  C
  H62      1.0000 0.81460  0.53170  0.16570  Biso   1.000  H
  C99      1.0000 0.79250  0.71880  0.16950  Biso   1.000  C
  H63      1.0000 0.74440  0.69280  0.14650  Biso   1.000  H
  C100     1.0000 0.91600  0.69970  0.23170  Biso   1.000  C
  H64      1.0000 0.95390  0.65980  0.25270  Biso   1.000  H
  C101     1.0000 0.92170  0.80070  0.23410  Biso   1.000  C
  H65      1.0000 0.96800  0.82930  0.25690  Biso   1.000  H
  C102     1.0000 0.48490  0.08190  0.12590  Biso   1.000  C
  H66      1.0000 0.56780  0.09240  0.11500  Biso   1.000  H
  O16      1.0000 0.60380  0.01060  0.22635  Biso   1.000  O
  C103     1.0000 0.24690  0.08060  0.11880  Biso   1.000  C
  H67      1.0000 0.16740  0.08870  0.10250  Biso   1.000  H
  C104     1.0000 0.37140  0.09980  0.10240  Biso   1.000  C
  N45      1.0000 0.47300  0.18700  0.05540  Biso   1.000  N
  N46      1.0000 0.36580  0.15360  0.06520  Biso   1.000  N
  N47      1.0000 0.55900  0.21700  0.03920  Biso   1.000  N
  C105     1.0000 0.48300  0.02700  0.12120  Biso   1.000  C
  H68      1.0000 0.56480  0.02940  0.10900  Biso   1.000  H
  C106     1.0000 0.36600  0.03430  0.09770  Biso   1.000  C
  C107     1.0000 0.24670  0.02560  0.11490  Biso   1.000  C
  H69      1.0000 0.16710  0.02830  0.09820  Biso   1.000  H
  C108     1.0000 0.24280  0.01300  0.15640  Biso   1.000  C
  C109     1.0000 0.36000  0.01040  0.18070  Biso   1.000  C
  H70      1.0000 0.35750  0.00490  0.20930  Biso   1.000  H
  C110     1.0000 0.47960  0.01570  0.16410  Biso   1.000  C
  C111     1.0000 0.85800  0.49200  0.19520  Biso   1.000  C
  H71      1.0000 0.82230  0.50920  0.16890  Biso   1.000  H
  C112     1.0000 0.89400  0.54000  0.22260  Biso   1.000  C
  H72      1.0000 0.93160  0.52420  0.24880  Biso   1.000  H
  N48      1.0000 0.35700  0.05800  0.05480  Biso   1.000  N
  N49      1.0000 0.45900  0.00520  0.03680  Biso   1.000  N
  N50      1.0000 0.55300  0.07300  0.01830  Biso   1.000  N
  N51      1.0000 0.46800  0.14900  0.04740  Biso   1.000  N
  N52      1.0000 0.36200  0.00600  0.05410  Biso   1.000  N
  N53      1.0000 0.52900  0.00000  0.01740  Biso   1.000  N
  N54      1.0000 0.36500  0.10500  0.05900  Biso   1.000  N
  N55      1.0000 0.46100  0.07700  0.03920  Biso   1.000  N
  N56      1.0000 0.55100  0.14400  0.03030  Biso   1.000  N
