data_image0
_cell_length_a       9.4451
_cell_length_b       9.4451
_cell_length_c       74.309
_cell_angle_alpha    90
_cell_angle_beta     90
_cell_angle_gamma    120

_symmetry_space_group_name_H-M    "P 1"
_symmetry_int_tables_number       1

loop_
  _symmetry_equiv_pos_as_xyz
  'x, y, z'

loop_
  _atom_site_label
  _atom_site_occupancy
  _atom_site_fract_x
  _atom_site_fract_y
  _atom_site_fract_z
  _atom_site_thermal_displace_type
  _atom_site_B_iso_or_equiv
  _atom_site_type_symbol
  H1       1.0000 0.10800  0.47180  0.01140  Biso   1.000  H
  H2       1.0000 0.89220  0.36420  0.11740  Biso   1.000  H
  H3       1.0000 0.77467  0.80513  0.34473  Biso   1.000  H
  H4       1.0000 0.55887  0.69753  0.45073  Biso   1.000  H
  H5       1.0000 0.44133  0.13847  0.67807  Biso   1.000  H
  H6       1.0000 0.22553  0.03087  0.78407  Biso   1.000  H
  H7       1.0000 0.52820  0.63620  0.01140  Biso   1.000  H
  H8       1.0000 0.63580  0.52800  0.11740  Biso   1.000  H
  H9       1.0000 0.19487  0.96953  0.34473  Biso   1.000  H
  H10      1.0000 0.30247  0.86133  0.45073  Biso   1.000  H
  H11      1.0000 0.86153  0.30287  0.67807  Biso   1.000  H
  H12      1.0000 0.96913  0.19467  0.78407  Biso   1.000  H
  H13      1.0000 0.36380  0.89200  0.01140  Biso   1.000  H
  H14      1.0000 0.47200  0.10780  0.11740  Biso   1.000  H
  H15      1.0000 0.03047  0.22533  0.34473  Biso   1.000  H
  H16      1.0000 0.13867  0.44113  0.45073  Biso   1.000  H
  H17      1.0000 0.69713  0.55867  0.67807  Biso   1.000  H
  H18      1.0000 0.80533  0.77447  0.78407  Biso   1.000  H
  H19      1.0000 0.47180  0.10800  0.98860  Biso   1.000  H
  H20      1.0000 0.36420  0.89220  0.88260  Biso   1.000  H
  H21      1.0000 0.13847  0.44133  0.32193  Biso   1.000  H
  H22      1.0000 0.03087  0.22553  0.21593  Biso   1.000  H
  H23      1.0000 0.80513  0.77467  0.65527  Biso   1.000  H
  H24      1.0000 0.69753  0.55887  0.54927  Biso   1.000  H
  H25      1.0000 0.63620  0.52820  0.98860  Biso   1.000  H
  H26      1.0000 0.52800  0.63580  0.88260  Biso   1.000  H
  H27      1.0000 0.30287  0.86153  0.32193  Biso   1.000  H
  H28      1.0000 0.19467  0.96913  0.21593  Biso   1.000  H
  H29      1.0000 0.96953  0.19487  0.65527  Biso   1.000  H
  H30      1.0000 0.86133  0.30247  0.54927  Biso   1.000  H
  H31      1.0000 0.89200  0.36380  0.98860  Biso   1.000  H
  H32      1.0000 0.10780  0.47200  0.88260  Biso   1.000  H
  H33      1.0000 0.55867  0.69713  0.32193  Biso   1.000  H
  H34      1.0000 0.77447  0.80533  0.21593  Biso   1.000  H
  H35      1.0000 0.22533  0.03047  0.65527  Biso   1.000  H
  H36      1.0000 0.44113  0.13867  0.54927  Biso   1.000  H
  H37      1.0000 0.89200  0.52820  0.98860  Biso   1.000  H
  H38      1.0000 0.10780  0.63580  0.88260  Biso   1.000  H
  H39      1.0000 0.55867  0.86153  0.32193  Biso   1.000  H
  H40      1.0000 0.77447  0.96913  0.21593  Biso   1.000  H
  H41      1.0000 0.22533  0.19487  0.65527  Biso   1.000  H
  H42      1.0000 0.44113  0.30247  0.54927  Biso   1.000  H
  H43      1.0000 0.47180  0.36380  0.98860  Biso   1.000  H
  H44      1.0000 0.36420  0.47200  0.88260  Biso   1.000  H
  H45      1.0000 0.13847  0.69713  0.32193  Biso   1.000  H
  H46      1.0000 0.03087  0.80533  0.21593  Biso   1.000  H
  H47      1.0000 0.80513  0.03047  0.65527  Biso   1.000  H
  H48      1.0000 0.69753  0.13867  0.54927  Biso   1.000  H
  H49      1.0000 0.63620  0.10800  0.98860  Biso   1.000  H
  H50      1.0000 0.52800  0.89220  0.88260  Biso   1.000  H
  H51      1.0000 0.30287  0.44133  0.32193  Biso   1.000  H
  H52      1.0000 0.19467  0.22553  0.21593  Biso   1.000  H
  H53      1.0000 0.96953  0.77467  0.65527  Biso   1.000  H
  H54      1.0000 0.86133  0.55887  0.54927  Biso   1.000  H
  H55      1.0000 0.52820  0.89200  0.01140  Biso   1.000  H
  H56      1.0000 0.63580  0.10780  0.11740  Biso   1.000  H
  H57      1.0000 0.19487  0.22533  0.34473  Biso   1.000  H
  H58      1.0000 0.30247  0.44113  0.45073  Biso   1.000  H
  H59      1.0000 0.86153  0.55867  0.67807  Biso   1.000  H
  H60      1.0000 0.96913  0.77447  0.78407  Biso   1.000  H
  H61      1.0000 0.36380  0.47180  0.01140  Biso   1.000  H
  H62      1.0000 0.47200  0.36420  0.11740  Biso   1.000  H
  H63      1.0000 0.03047  0.80513  0.34473  Biso   1.000  H
  H64      1.0000 0.13867  0.69753  0.45073  Biso   1.000  H
  H65      1.0000 0.69713  0.13847  0.67807  Biso   1.000  H
  H66      1.0000 0.80533  0.03087  0.78407  Biso   1.000  H
  H67      1.0000 0.10800  0.63620  0.01140  Biso   1.000  H
  H68      1.0000 0.89220  0.52800  0.11740  Biso   1.000  H
  H69      1.0000 0.77467  0.96953  0.34473  Biso   1.000  H
  H70      1.0000 0.55887  0.86133  0.45073  Biso   1.000  H
  H71      1.0000 0.44133  0.30287  0.67807  Biso   1.000  H
  H72      1.0000 0.22553  0.19467  0.78407  Biso   1.000  H
  Cu1      1.0000 0.91002  0.45501  0.04597  Biso   1.000  Cu
  Cu2      1.0000 0.08442  0.54221  0.15207  Biso   1.000  Cu
  Cl1      1.0000 0.94170  0.47085  0.07595  Biso   1.000  Cl
  Cl2      1.0000 0.03800  0.51900  0.18606  Biso   1.000  Cl
  N1       1.0000 0.83910  0.41955  0.14176  Biso   1.000  N
  N2       1.0000 0.16180  0.58090  0.03567  Biso   1.000  N
  C1       1.0000 0.16450  0.58225  0.01572  Biso   1.000  C
  C2       1.0000 0.83590  0.41795  0.12182  Biso   1.000  C
  Cu3      1.0000 0.57669  0.78834  0.37930  Biso   1.000  Cu
  Cu4      1.0000 0.75109  0.87554  0.48540  Biso   1.000  Cu
  Cl3      1.0000 0.60837  0.80418  0.40928  Biso   1.000  Cl
  Cl4      1.0000 0.70467  0.85233  0.51939  Biso   1.000  Cl
  N3       1.0000 0.50577  0.75288  0.47509  Biso   1.000  N
  N4       1.0000 0.82847  0.91423  0.36900  Biso   1.000  N
  C3       1.0000 0.83117  0.91558  0.34905  Biso   1.000  C
  C4       1.0000 0.50257  0.75128  0.45515  Biso   1.000  C
  Cu5      1.0000 0.24335  0.12168  0.71264  Biso   1.000  Cu
  Cu6      1.0000 0.41775  0.20888  0.81874  Biso   1.000  Cu
  Cl5      1.0000 0.27503  0.13752  0.74262  Biso   1.000  Cl
  Cl6      1.0000 0.37133  0.18567  0.85273  Biso   1.000  Cl
  N5       1.0000 0.17243  0.08622  0.80843  Biso   1.000  N
  N6       1.0000 0.49513  0.24757  0.70234  Biso   1.000  N
  C5       1.0000 0.49783  0.24892  0.68239  Biso   1.000  C
  C6       1.0000 0.16923  0.08462  0.78849  Biso   1.000  C
  Cu7      1.0000 0.54499  0.45501  0.04597  Biso   1.000  Cu
  Cu8      1.0000 0.45779  0.54221  0.15207  Biso   1.000  Cu
  Cl7      1.0000 0.52915  0.47085  0.07595  Biso   1.000  Cl
  Cl8      1.0000 0.48100  0.51900  0.18606  Biso   1.000  Cl
  N7       1.0000 0.58045  0.41955  0.14176  Biso   1.000  N
  N8       1.0000 0.41910  0.58090  0.03567  Biso   1.000  N
  C7       1.0000 0.41775  0.58225  0.01572  Biso   1.000  C
  C8       1.0000 0.58205  0.41795  0.12182  Biso   1.000  C
  Cu9      1.0000 0.21166  0.78834  0.37930  Biso   1.000  Cu
  Cu10     1.0000 0.12446  0.87554  0.48540  Biso   1.000  Cu
  Cl9      1.0000 0.19582  0.80418  0.40928  Biso   1.000  Cl
  Cl10     1.0000 0.14767  0.85233  0.51939  Biso   1.000  Cl
  N9       1.0000 0.24712  0.75288  0.47509  Biso   1.000  N
  N10      1.0000 0.08577  0.91423  0.36900  Biso   1.000  N
  C9       1.0000 0.08442  0.91558  0.34905  Biso   1.000  C
  C10      1.0000 0.24872  0.75128  0.45515  Biso   1.000  C
  Cu11     1.0000 0.87832  0.12168  0.71264  Biso   1.000  Cu
  Cu12     1.0000 0.79112  0.20888  0.81874  Biso   1.000  Cu
  Cl11     1.0000 0.86248  0.13752  0.74262  Biso   1.000  Cl
  Cl12     1.0000 0.81433  0.18567  0.85273  Biso   1.000  Cl
  N11      1.0000 0.91378  0.08622  0.80843  Biso   1.000  N
  N12      1.0000 0.75243  0.24757  0.70234  Biso   1.000  N
  C11      1.0000 0.75108  0.24892  0.68239  Biso   1.000  C
  C12      1.0000 0.91538  0.08462  0.78849  Biso   1.000  C
  Cu13     1.0000 0.54499  0.08998  0.04597  Biso   1.000  Cu
  Cu14     1.0000 0.45779  0.91558  0.15207  Biso   1.000  Cu
  Cl13     1.0000 0.52915  0.05830  0.07595  Biso   1.000  Cl
  Cl14     1.0000 0.48100  0.96200  0.18606  Biso   1.000  Cl
  N13      1.0000 0.58045  0.16090  0.14176  Biso   1.000  N
  N14      1.0000 0.41910  0.83820  0.03567  Biso   1.000  N
  C13      1.0000 0.41775  0.83550  0.01572  Biso   1.000  C
  C14      1.0000 0.58205  0.16410  0.12182  Biso   1.000  C
  Cu15     1.0000 0.21166  0.42331  0.37930  Biso   1.000  Cu
  Cu16     1.0000 0.12446  0.24891  0.48540  Biso   1.000  Cu
  Cl15     1.0000 0.19582  0.39163  0.40928  Biso   1.000  Cl
  Cl16     1.0000 0.14767  0.29533  0.51939  Biso   1.000  Cl
  N15      1.0000 0.24712  0.49423  0.47509  Biso   1.000  N
  N16      1.0000 0.08577  0.17153  0.36900  Biso   1.000  N
  C15      1.0000 0.08442  0.16883  0.34905  Biso   1.000  C
  C16      1.0000 0.24872  0.49743  0.45515  Biso   1.000  C
  Cu17     1.0000 0.87832  0.75665  0.71264  Biso   1.000  Cu
  Cu18     1.0000 0.79112  0.58225  0.81874  Biso   1.000  Cu
  Cl17     1.0000 0.86248  0.72497  0.74262  Biso   1.000  Cl
  Cl18     1.0000 0.81433  0.62867  0.85273  Biso   1.000  Cl
  N17      1.0000 0.91378  0.82757  0.80843  Biso   1.000  N
  N18      1.0000 0.75243  0.50487  0.70234  Biso   1.000  N
  C17      1.0000 0.75108  0.50217  0.68239  Biso   1.000  C
  C18      1.0000 0.91538  0.83077  0.78849  Biso   1.000  C
  Cu19     1.0000 0.45501  0.91002  0.95403  Biso   1.000  Cu
  Cu20     1.0000 0.54221  0.08442  0.84793  Biso   1.000  Cu
  Cl19     1.0000 0.47085  0.94170  0.92405  Biso   1.000  Cl
  Cl20     1.0000 0.51900  0.03800  0.81394  Biso   1.000  Cl
  N19      1.0000 0.41955  0.83910  0.85824  Biso   1.000  N
  N20      1.0000 0.58090  0.16180  0.96433  Biso   1.000  N
  C19      1.0000 0.58225  0.16450  0.98428  Biso   1.000  C
  C20      1.0000 0.41795  0.83590  0.87818  Biso   1.000  C
  Cu21     1.0000 0.12168  0.24335  0.28736  Biso   1.000  Cu
  Cu22     1.0000 0.20888  0.41775  0.18126  Biso   1.000  Cu
  Cl21     1.0000 0.13752  0.27503  0.25738  Biso   1.000  Cl
  Cl22     1.0000 0.18567  0.37133  0.14727  Biso   1.000  Cl
  N21      1.0000 0.08622  0.17243  0.19157  Biso   1.000  N
  N22      1.0000 0.24757  0.49513  0.29766  Biso   1.000  N
  C21      1.0000 0.24892  0.49783  0.31761  Biso   1.000  C
  C22      1.0000 0.08462  0.16923  0.21151  Biso   1.000  C
  Cu23     1.0000 0.78834  0.57669  0.62070  Biso   1.000  Cu
  Cu24     1.0000 0.87554  0.75109  0.51460  Biso   1.000  Cu
  Cl23     1.0000 0.80418  0.60837  0.59072  Biso   1.000  Cl
  Cl24     1.0000 0.85233  0.70467  0.48061  Biso   1.000  Cl
  N23      1.0000 0.75288  0.50577  0.52491  Biso   1.000  N
  N24      1.0000 0.91423  0.82847  0.63100  Biso   1.000  N
  C23      1.0000 0.91558  0.83117  0.65095  Biso   1.000  C
  C24      1.0000 0.75128  0.50257  0.54485  Biso   1.000  C
  Cu25     1.0000 0.45501  0.54499  0.95403  Biso   1.000  Cu
  Cu26     1.0000 0.54221  0.45779  0.84793  Biso   1.000  Cu
  Cl25     1.0000 0.47085  0.52915  0.92405  Biso   1.000  Cl
  Cl26     1.0000 0.51900  0.48100  0.81394  Biso   1.000  Cl
  N25      1.0000 0.41955  0.58045  0.85824  Biso   1.000  N
  N26      1.0000 0.58090  0.41910  0.96433  Biso   1.000  N
  C25      1.0000 0.58225  0.41775  0.98428  Biso   1.000  C
  C26      1.0000 0.41795  0.58205  0.87818  Biso   1.000  C
  Cu27     1.0000 0.12168  0.87832  0.28736  Biso   1.000  Cu
  Cu28     1.0000 0.20888  0.79112  0.18126  Biso   1.000  Cu
  Cl27     1.0000 0.13752  0.86248  0.25738  Biso   1.000  Cl
  Cl28     1.0000 0.18567  0.81433  0.14727  Biso   1.000  Cl
  N27      1.0000 0.08622  0.91378  0.19157  Biso   1.000  N
  N28      1.0000 0.24757  0.75243  0.29766  Biso   1.000  N
  C27      1.0000 0.24892  0.75108  0.31761  Biso   1.000  C
  C28      1.0000 0.08462  0.91538  0.21151  Biso   1.000  C
  Cu29     1.0000 0.78834  0.21166  0.62070  Biso   1.000  Cu
  Cu30     1.0000 0.87554  0.12446  0.51460  Biso   1.000  Cu
  Cl29     1.0000 0.80418  0.19582  0.59072  Biso   1.000  Cl
  Cl30     1.0000 0.85233  0.14767  0.48061  Biso   1.000  Cl
  N29      1.0000 0.75288  0.24712  0.52491  Biso   1.000  N
  N30      1.0000 0.91423  0.08577  0.63100  Biso   1.000  N
  C29      1.0000 0.91558  0.08442  0.65095  Biso   1.000  C
  C30      1.0000 0.75128  0.24872  0.54485  Biso   1.000  C
  Cu31     1.0000 0.08998  0.54499  0.95403  Biso   1.000  Cu
  Cu32     1.0000 0.91558  0.45779  0.84793  Biso   1.000  Cu
  Cl31     1.0000 0.05830  0.52915  0.92405  Biso   1.000  Cl
  Cl32     1.0000 0.96200  0.48100  0.81394  Biso   1.000  Cl
  N31      1.0000 0.16090  0.58045  0.85824  Biso   1.000  N
  N32      1.0000 0.83820  0.41910  0.96433  Biso   1.000  N
  C31      1.0000 0.83550  0.41775  0.98428  Biso   1.000  C
  C32      1.0000 0.16410  0.58205  0.87818  Biso   1.000  C
  Cu33     1.0000 0.75665  0.87832  0.28736  Biso   1.000  Cu
  Cu34     1.0000 0.58225  0.79112  0.18126  Biso   1.000  Cu
  Cl33     1.0000 0.72497  0.86248  0.25738  Biso   1.000  Cl
  Cl34     1.0000 0.62867  0.81433  0.14727  Biso   1.000  Cl
  N33      1.0000 0.82757  0.91378  0.19157  Biso   1.000  N
  N34      1.0000 0.50487  0.75243  0.29766  Biso   1.000  N
  C33      1.0000 0.50217  0.75108  0.31761  Biso   1.000  C
  C34      1.0000 0.83077  0.91538  0.21151  Biso   1.000  C
  Cu35     1.0000 0.42331  0.21166  0.62070  Biso   1.000  Cu
  Cu36     1.0000 0.24891  0.12446  0.51460  Biso   1.000  Cu
  Cl35     1.0000 0.39163  0.19582  0.59072  Biso   1.000  Cl
  Cl36     1.0000 0.29533  0.14767  0.48061  Biso   1.000  Cl
  N35      1.0000 0.49423  0.24712  0.52491  Biso   1.000  N
  N36      1.0000 0.17153  0.08577  0.63100  Biso   1.000  N
  C35      1.0000 0.16883  0.08442  0.65095  Biso   1.000  C
  C36      1.0000 0.49743  0.24872  0.54485  Biso   1.000  C
  Cu37     1.0000 0.66667  0.33333  0.01922  Biso   1.000  Cu
  Cu38     1.0000 0.66667  0.33333  0.08590  Biso   1.000  Cu
  N37      1.0000 0.66667  0.33333  0.11482  Biso   1.000  N
  Cu39     1.0000 0.66667  0.33333  0.08270  Biso   1.000  Cu
  Cu40     1.0000 0.66667  0.33333  0.07530  Biso   1.000  Cu
  Cu41     1.0000 0.33333  0.66667  0.35255  Biso   1.000  Cu
  Cu42     1.0000 0.33333  0.66667  0.41923  Biso   1.000  Cu
  N38      1.0000 0.33333  0.66667  0.44815  Biso   1.000  N
  Cu43     1.0000 0.33333  0.66667  0.41603  Biso   1.000  Cu
  Cu44     1.0000 0.33333  0.66667  0.40863  Biso   1.000  Cu
  Cu45     1.0000 0.00000  0.00000  0.68589  Biso   1.000  Cu
  Cu46     1.0000 0.00000  0.00000  0.75257  Biso   1.000  Cu
  N39      1.0000 0.00000  0.00000  0.78149  Biso   1.000  N
  Cu47     1.0000 0.00000  0.00000  0.74937  Biso   1.000  Cu
  Cu48     1.0000 0.00000  0.00000  0.74197  Biso   1.000  Cu
  Cu49     1.0000 0.33333  0.66667  0.98078  Biso   1.000  Cu
  Cu50     1.0000 0.33333  0.66667  0.91410  Biso   1.000  Cu
  N40      1.0000 0.33333  0.66667  0.88518  Biso   1.000  N
  Cu51     1.0000 0.33333  0.66667  0.91730  Biso   1.000  Cu
  Cu52     1.0000 0.33333  0.66667  0.92470  Biso   1.000  Cu
  Cu53     1.0000 0.00000  0.00000  0.31411  Biso   1.000  Cu
  Cu54     1.0000 0.00000  0.00000  0.24743  Biso   1.000  Cu
  N41      1.0000 0.00000  0.00000  0.21851  Biso   1.000  N
  Cu55     1.0000 0.00000  0.00000  0.25063  Biso   1.000  Cu
  Cu56     1.0000 0.00000  0.00000  0.25803  Biso   1.000  Cu
  Cu57     1.0000 0.66667  0.33333  0.64745  Biso   1.000  Cu
  Cu58     1.0000 0.66667  0.33333  0.58077  Biso   1.000  Cu
  N42      1.0000 0.66667  0.33333  0.55185  Biso   1.000  N
  Cu59     1.0000 0.66667  0.33333  0.58397  Biso   1.000  Cu
  Cu60     1.0000 0.66667  0.33333  0.59137  Biso   1.000  Cu
  Cl37     1.0000 0.80276  0.19724  0.03031  Biso   1.000  Cl
  Cl38     1.0000 0.46943  0.53057  0.36364  Biso   1.000  Cl
  Cl39     1.0000 0.13609  0.86391  0.69698  Biso   1.000  Cl
  Cl40     1.0000 0.80276  0.60552  0.03031  Biso   1.000  Cl
  Cl41     1.0000 0.46943  0.93885  0.36364  Biso   1.000  Cl
  Cl42     1.0000 0.13609  0.27219  0.69698  Biso   1.000  Cl
  Cl43     1.0000 0.39448  0.19724  0.03031  Biso   1.000  Cl
  Cl44     1.0000 0.06115  0.53057  0.36364  Biso   1.000  Cl
  Cl45     1.0000 0.72781  0.86391  0.69698  Biso   1.000  Cl
  Cl46     1.0000 0.19724  0.80276  0.96969  Biso   1.000  Cl
  Cl47     1.0000 0.86391  0.13609  0.30302  Biso   1.000  Cl
  Cl48     1.0000 0.53057  0.46943  0.63636  Biso   1.000  Cl
  Cl49     1.0000 0.60552  0.80276  0.96969  Biso   1.000  Cl
  Cl50     1.0000 0.27219  0.13609  0.30302  Biso   1.000  Cl
  Cl51     1.0000 0.93885  0.46943  0.63636  Biso   1.000  Cl
  Cl52     1.0000 0.19724  0.39448  0.96969  Biso   1.000  Cl
  Cl53     1.0000 0.86391  0.72781  0.30302  Biso   1.000  Cl
  Cl54     1.0000 0.53057  0.06115  0.63636  Biso   1.000  Cl
  N43      1.0000 0.33333  0.66667  0.00870  Biso   1.000  N
  N44      1.0000 0.00000  0.00000  0.34203  Biso   1.000  N
  N45      1.0000 0.66667  0.33333  0.67537  Biso   1.000  N
  N46      1.0000 0.66667  0.33333  0.99130  Biso   1.000  N
  N47      1.0000 0.33333  0.66667  0.32463  Biso   1.000  N
  N48      1.0000 0.00000  0.00000  0.65797  Biso   1.000  N
  C37      1.0000 0.75130  0.50260  0.14823  Biso   1.000  C
  H73      1.0000 0.80675  0.61350  0.14410  Biso   1.000  H
  H74      1.0000 0.75155  0.50310  0.16110  Biso   1.000  H
  C38      1.0000 0.41797  0.83593  0.48156  Biso   1.000  C
  H75      1.0000 0.47342  0.94683  0.47743  Biso   1.000  H
  H76      1.0000 0.41822  0.83643  0.49443  Biso   1.000  H
  C39      1.0000 0.08463  0.16927  0.81490  Biso   1.000  C
  H77      1.0000 0.14008  0.28017  0.81077  Biso   1.000  H
  H78      1.0000 0.08488  0.16977  0.82777  Biso   1.000  H
  C40      1.0000 0.49740  0.24870  0.14823  Biso   1.000  C
  H79      1.0000 0.38650  0.19325  0.14410  Biso   1.000  H
  H80      1.0000 0.49690  0.24845  0.16110  Biso   1.000  H
  C41      1.0000 0.16407  0.58203  0.48156  Biso   1.000  C
  H81      1.0000 0.05317  0.52658  0.47743  Biso   1.000  H
  H82      1.0000 0.16357  0.58178  0.49443  Biso   1.000  H
  C42      1.0000 0.83073  0.91537  0.81490  Biso   1.000  C
  H83      1.0000 0.71983  0.85992  0.81077  Biso   1.000  H
  H84      1.0000 0.83023  0.91512  0.82777  Biso   1.000  H
  C43      1.0000 0.75130  0.24870  0.14823  Biso   1.000  C
  H85      1.0000 0.80675  0.19325  0.14410  Biso   1.000  H
  H86      1.0000 0.75155  0.24845  0.16110  Biso   1.000  H
  C44      1.0000 0.41797  0.58203  0.48156  Biso   1.000  C
  H87      1.0000 0.47342  0.52658  0.47743  Biso   1.000  H
  H88      1.0000 0.41822  0.58178  0.49443  Biso   1.000  H
  C45      1.0000 0.08463  0.91537  0.81490  Biso   1.000  C
  H89      1.0000 0.14008  0.85992  0.81077  Biso   1.000  H
  H90      1.0000 0.08488  0.91512  0.82777  Biso   1.000  H
  C46      1.0000 0.50260  0.75130  0.85177  Biso   1.000  C
  H91      1.0000 0.61350  0.80675  0.85590  Biso   1.000  H
  H92      1.0000 0.50310  0.75155  0.83890  Biso   1.000  H
  C47      1.0000 0.16927  0.08463  0.18510  Biso   1.000  C
  H93      1.0000 0.28017  0.14008  0.18923  Biso   1.000  H
  H94      1.0000 0.16977  0.08488  0.17223  Biso   1.000  H
  C48      1.0000 0.83593  0.41797  0.51844  Biso   1.000  C
  H95      1.0000 0.94683  0.47342  0.52257  Biso   1.000  H
  H96      1.0000 0.83643  0.41822  0.50557  Biso   1.000  H
  C49      1.0000 0.24870  0.49740  0.85177  Biso   1.000  C
  H97      1.0000 0.19325  0.38650  0.85590  Biso   1.000  H
  H98      1.0000 0.24845  0.49690  0.83890  Biso   1.000  H
  C50      1.0000 0.91537  0.83073  0.18510  Biso   1.000  C
  H99      1.0000 0.85992  0.71983  0.18923  Biso   1.000  H
  H100     1.0000 0.91512  0.83023  0.17223  Biso   1.000  H
  C51      1.0000 0.58203  0.16407  0.51844  Biso   1.000  C
  H101     1.0000 0.52658  0.05317  0.52257  Biso   1.000  H
  H102     1.0000 0.58178  0.16357  0.50557  Biso   1.000  H
  C52      1.0000 0.24870  0.75130  0.85177  Biso   1.000  C
  H103     1.0000 0.19325  0.80675  0.85590  Biso   1.000  H
  H104     1.0000 0.24845  0.75155  0.83890  Biso   1.000  H
  C53      1.0000 0.91537  0.08463  0.18510  Biso   1.000  C
  H105     1.0000 0.85992  0.14008  0.18923  Biso   1.000  H
  H106     1.0000 0.91512  0.08488  0.17223  Biso   1.000  H
  C54      1.0000 0.58203  0.41797  0.51844  Biso   1.000  C
  H107     1.0000 0.52658  0.47342  0.52257  Biso   1.000  H
  H108     1.0000 0.58178  0.41822  0.50557  Biso   1.000  H
  C55      1.0000 0.24890  0.75110  0.04209  Biso   1.000  C
  H109     1.0000 0.24780  0.75220  0.05500  Biso   1.000  H
  H110     1.0000 0.19340  0.80660  0.03790  Biso   1.000  H
  C56      1.0000 0.91557  0.08443  0.37542  Biso   1.000  C
  H111     1.0000 0.91447  0.08553  0.38833  Biso   1.000  H
  H112     1.0000 0.86007  0.13993  0.37123  Biso   1.000  H
  C57      1.0000 0.58223  0.41777  0.70876  Biso   1.000  C
  H113     1.0000 0.58113  0.41887  0.72167  Biso   1.000  H
  H114     1.0000 0.52673  0.47327  0.70457  Biso   1.000  H
  C58      1.0000 0.24890  0.49780  0.04209  Biso   1.000  C
  H115     1.0000 0.24780  0.49560  0.05500  Biso   1.000  H
  H116     1.0000 0.19340  0.38680  0.03790  Biso   1.000  H
  C59      1.0000 0.91557  0.83113  0.37542  Biso   1.000  C
  H117     1.0000 0.91447  0.82893  0.38833  Biso   1.000  H
  H118     1.0000 0.86007  0.72013  0.37123  Biso   1.000  H
  C60      1.0000 0.58223  0.16447  0.70876  Biso   1.000  C
  H119     1.0000 0.58113  0.16227  0.72167  Biso   1.000  H
  H120     1.0000 0.52673  0.05347  0.70457  Biso   1.000  H
  C61      1.0000 0.50220  0.75110  0.04209  Biso   1.000  C
  H121     1.0000 0.50440  0.75220  0.05500  Biso   1.000  H
  H122     1.0000 0.61320  0.80660  0.03790  Biso   1.000  H
  C62      1.0000 0.16887  0.08443  0.37542  Biso   1.000  C
  H123     1.0000 0.17107  0.08553  0.38833  Biso   1.000  H
  H124     1.0000 0.27987  0.13993  0.37123  Biso   1.000  H
  C63      1.0000 0.83553  0.41777  0.70876  Biso   1.000  C
  H125     1.0000 0.83773  0.41887  0.72167  Biso   1.000  H
  H126     1.0000 0.94653  0.47327  0.70457  Biso   1.000  H
  C64      1.0000 0.75110  0.24890  0.95791  Biso   1.000  C
  H127     1.0000 0.75220  0.24780  0.94500  Biso   1.000  H
  H128     1.0000 0.80660  0.19340  0.96210  Biso   1.000  H
  C65      1.0000 0.41777  0.58223  0.29124  Biso   1.000  C
  H129     1.0000 0.41887  0.58113  0.27833  Biso   1.000  H
  H130     1.0000 0.47327  0.52673  0.29543  Biso   1.000  H
  C66      1.0000 0.08443  0.91557  0.62458  Biso   1.000  C
  H131     1.0000 0.08553  0.91447  0.61167  Biso   1.000  H
  H132     1.0000 0.13993  0.86007  0.62877  Biso   1.000  H
  C67      1.0000 0.49780  0.24890  0.95791  Biso   1.000  C
  H133     1.0000 0.49560  0.24780  0.94500  Biso   1.000  H
  H134     1.0000 0.38680  0.19340  0.96210  Biso   1.000  H
  C68      1.0000 0.16447  0.58223  0.29124  Biso   1.000  C
  H135     1.0000 0.16227  0.58113  0.27833  Biso   1.000  H
  H136     1.0000 0.05347  0.52673  0.29543  Biso   1.000  H
  C69      1.0000 0.83113  0.91557  0.62458  Biso   1.000  C
  H137     1.0000 0.82893  0.91447  0.61167  Biso   1.000  H
  H138     1.0000 0.72013  0.86007  0.62877  Biso   1.000  H
  C70      1.0000 0.75110  0.50220  0.95791  Biso   1.000  C
  H139     1.0000 0.75220  0.50440  0.94500  Biso   1.000  H
  H140     1.0000 0.80660  0.61320  0.96210  Biso   1.000  H
  C71      1.0000 0.41777  0.83553  0.29124  Biso   1.000  C
  H141     1.0000 0.41887  0.83773  0.27833  Biso   1.000  H
  H142     1.0000 0.47327  0.94653  0.29543  Biso   1.000  H
  C72      1.0000 0.08443  0.16887  0.62458  Biso   1.000  C
  H143     1.0000 0.08553  0.17107  0.61167  Biso   1.000  H
  H144     1.0000 0.13993  0.27987  0.62877  Biso   1.000  H
