data_image0
_cell_length_a       22.8951
_cell_length_b       22.8951
_cell_length_c       9.3454
_cell_angle_alpha    90
_cell_angle_beta     90
_cell_angle_gamma    90

_symmetry_space_group_name_H-M    "P 1"
_symmetry_int_tables_number       1

loop_
  _symmetry_equiv_pos_as_xyz
  'x, y, z'

loop_
  _atom_site_label
  _atom_site_occupancy
  _atom_site_fract_x
  _atom_site_fract_y
  _atom_site_fract_z
  _atom_site_thermal_displace_type
  _atom_site_B_iso_or_equiv
  _atom_site_type_symbol
  N1       1.0000 0.92320  0.95030  0.11630  Biso   1.000  N
  C1       1.0000 0.85800  0.87680  0.10600  Biso   1.000  C
  H1       1.0000 0.84260  0.83700  0.09990  Biso   1.000  H
  C2       1.0000 0.91840  0.89250  0.11350  Biso   1.000  C
  C3       1.0000 0.96590  0.85300  0.10260  Biso   1.000  C
  C4       1.0000 0.86680  0.97490  0.11670  Biso   1.000  C
  C5       1.0000 0.82630  0.92760  0.10900  Biso   1.000  C
  H2       1.0000 0.78380  0.93130  0.10790  Biso   1.000  H
  N2       1.0000 0.92660  0.67290  0.04720  Biso   1.000  N
  C6       1.0000 0.93840  0.69390  0.18370  Biso   1.000  C
  H3       1.0000 0.91550  0.67160  0.25250  Biso   1.000  H
  C7       1.0000 0.95100  0.75270  0.20380  Biso   1.000  C
  H4       1.0000 0.96730  0.76160  0.29680  Biso   1.000  H
  C8       1.0000 0.95180  0.79050  0.08750  Biso   1.000  C
  C9       1.0000 0.94000  0.76950  0.95100  Biso   1.000  C
  H5       1.0000 0.94550  0.79480  0.12870  Biso   1.000  H
  C10      1.0000 0.92740  0.71070  0.06920  Biso   1.000  C
  H6       1.0000 0.92000  0.69580  0.16220  Biso   1.000  H
  N3       1.0000 0.07680  0.04970  0.11630  Biso   1.000  N
  C11      1.0000 0.14200  0.12320  0.10600  Biso   1.000  C
  H7       1.0000 0.15740  0.16300  0.09990  Biso   1.000  H
  C12      1.0000 0.08160  0.10750  0.11350  Biso   1.000  C
  C13      1.0000 0.03410  0.14700  0.10260  Biso   1.000  C
  C14      1.0000 0.13320  0.02510  0.11670  Biso   1.000  C
  C15      1.0000 0.17370  0.07240  0.10900  Biso   1.000  C
  H8       1.0000 0.21620  0.06870  0.10790  Biso   1.000  H
  N4       1.0000 0.07340  0.32710  0.04720  Biso   1.000  N
  C16      1.0000 0.06160  0.30610  0.18370  Biso   1.000  C
  H9       1.0000 0.08450  0.32840  0.25250  Biso   1.000  H
  C17      1.0000 0.04900  0.24730  0.20380  Biso   1.000  C
  H10      1.0000 0.03270  0.23840  0.29680  Biso   1.000  H
  C18      1.0000 0.04820  0.20950  0.08750  Biso   1.000  C
  C19      1.0000 0.06000  0.23050  0.95100  Biso   1.000  C
  H11      1.0000 0.05450  0.20520  0.12870  Biso   1.000  H
  C20      1.0000 0.07260  0.28930  0.06920  Biso   1.000  C
  H12      1.0000 0.08000  0.30420  0.16220  Biso   1.000  H
  N5       1.0000 0.04970  0.92320  0.11630  Biso   1.000  N
  C21      1.0000 0.12320  0.85800  0.10600  Biso   1.000  C
  H13      1.0000 0.16300  0.84260  0.09990  Biso   1.000  H
  C22      1.0000 0.10750  0.91840  0.11350  Biso   1.000  C
  C23      1.0000 0.14700  0.96590  0.10260  Biso   1.000  C
  C24      1.0000 0.02510  0.86680  0.11670  Biso   1.000  C
  C25      1.0000 0.07240  0.82630  0.10900  Biso   1.000  C
  H14      1.0000 0.06870  0.78380  0.10790  Biso   1.000  H
  N6       1.0000 0.32710  0.92660  0.04720  Biso   1.000  N
  C26      1.0000 0.30610  0.93840  0.18370  Biso   1.000  C
  H15      1.0000 0.32840  0.91550  0.25250  Biso   1.000  H
  C27      1.0000 0.24730  0.95100  0.20380  Biso   1.000  C
  H16      1.0000 0.23840  0.96730  0.29680  Biso   1.000  H
  C28      1.0000 0.20950  0.95180  0.08750  Biso   1.000  C
  C29      1.0000 0.23050  0.94000  0.95100  Biso   1.000  C
  H17      1.0000 0.20520  0.94550  0.12870  Biso   1.000  H
  C30      1.0000 0.28930  0.92740  0.06920  Biso   1.000  C
  H18      1.0000 0.30420  0.92000  0.16220  Biso   1.000  H
  N7       1.0000 0.95030  0.07680  0.11630  Biso   1.000  N
  C31      1.0000 0.87680  0.14200  0.10600  Biso   1.000  C
  H19      1.0000 0.83700  0.15740  0.09990  Biso   1.000  H
  C32      1.0000 0.89250  0.08160  0.11350  Biso   1.000  C
  C33      1.0000 0.85300  0.03410  0.10260  Biso   1.000  C
  C34      1.0000 0.97490  0.13320  0.11670  Biso   1.000  C
  C35      1.0000 0.92760  0.17370  0.10900  Biso   1.000  C
  H20      1.0000 0.93130  0.21620  0.10790  Biso   1.000  H
  N8       1.0000 0.67290  0.07340  0.04720  Biso   1.000  N
  C36      1.0000 0.69390  0.06160  0.18370  Biso   1.000  C
  H21      1.0000 0.67160  0.08450  0.25250  Biso   1.000  H
  C37      1.0000 0.75270  0.04900  0.20380  Biso   1.000  C
  H22      1.0000 0.76160  0.03270  0.29680  Biso   1.000  H
  C38      1.0000 0.79050  0.04820  0.08750  Biso   1.000  C
  C39      1.0000 0.76950  0.06000  0.95100  Biso   1.000  C
  H23      1.0000 0.79480  0.05450  0.12870  Biso   1.000  H
  C40      1.0000 0.71070  0.07260  0.06920  Biso   1.000  C
  H24      1.0000 0.69580  0.08000  0.16220  Biso   1.000  H
  N9       1.0000 0.57680  0.45030  0.88370  Biso   1.000  N
  C41      1.0000 0.64200  0.37680  0.89400  Biso   1.000  C
  H25      1.0000 0.65740  0.33700  0.90010  Biso   1.000  H
  C42      1.0000 0.58160  0.39250  0.88650  Biso   1.000  C
  C43      1.0000 0.53410  0.35300  0.89740  Biso   1.000  C
  C44      1.0000 0.63320  0.47490  0.88330  Biso   1.000  C
  C45      1.0000 0.67370  0.42760  0.89100  Biso   1.000  C
  H26      1.0000 0.71620  0.43130  0.89210  Biso   1.000  H
  N10      1.0000 0.57340  0.17290  0.95280  Biso   1.000  N
  C46      1.0000 0.56160  0.19390  0.81630  Biso   1.000  C
  H27      1.0000 0.58450  0.17160  0.74750  Biso   1.000  H
  C47      1.0000 0.54900  0.25270  0.79620  Biso   1.000  C
  H28      1.0000 0.53270  0.26160  0.70320  Biso   1.000  H
  C48      1.0000 0.54820  0.29050  0.91250  Biso   1.000  C
  C49      1.0000 0.56000  0.26950  0.04900  Biso   1.000  C
  H29      1.0000 0.55450  0.29480  0.87130  Biso   1.000  H
  C50      1.0000 0.57260  0.21070  0.93080  Biso   1.000  C
  H30      1.0000 0.58000  0.19580  0.83780  Biso   1.000  H
  N11      1.0000 0.42320  0.54970  0.88370  Biso   1.000  N
  C51      1.0000 0.35800  0.62320  0.89400  Biso   1.000  C
  H31      1.0000 0.34260  0.66300  0.90010  Biso   1.000  H
  C52      1.0000 0.41840  0.60750  0.88650  Biso   1.000  C
  C53      1.0000 0.46590  0.64700  0.89740  Biso   1.000  C
  C54      1.0000 0.36680  0.52510  0.88330  Biso   1.000  C
  C55      1.0000 0.32630  0.57240  0.89100  Biso   1.000  C
  H32      1.0000 0.28380  0.56870  0.89210  Biso   1.000  H
  N12      1.0000 0.42660  0.82710  0.95280  Biso   1.000  N
  C56      1.0000 0.43840  0.80610  0.81630  Biso   1.000  C
  H33      1.0000 0.41550  0.82840  0.74750  Biso   1.000  H
  C57      1.0000 0.45100  0.74730  0.79620  Biso   1.000  C
  H34      1.0000 0.46730  0.73840  0.70320  Biso   1.000  H
  C58      1.0000 0.45180  0.70950  0.91250  Biso   1.000  C
  C59      1.0000 0.44000  0.73050  0.04900  Biso   1.000  C
  H35      1.0000 0.44550  0.70520  0.87130  Biso   1.000  H
  C60      1.0000 0.42740  0.78930  0.93080  Biso   1.000  C
  H36      1.0000 0.42000  0.80420  0.83780  Biso   1.000  H
  N13      1.0000 0.45030  0.42320  0.88370  Biso   1.000  N
  C61      1.0000 0.37680  0.35800  0.89400  Biso   1.000  C
  H37      1.0000 0.33700  0.34260  0.90010  Biso   1.000  H
  C62      1.0000 0.39250  0.41840  0.88650  Biso   1.000  C
  C63      1.0000 0.35300  0.46590  0.89740  Biso   1.000  C
  C64      1.0000 0.47490  0.36680  0.88330  Biso   1.000  C
  C65      1.0000 0.42760  0.32630  0.89100  Biso   1.000  C
  H38      1.0000 0.43130  0.28380  0.89210  Biso   1.000  H
  N14      1.0000 0.17290  0.42660  0.95280  Biso   1.000  N
  C66      1.0000 0.19390  0.43840  0.81630  Biso   1.000  C
  H39      1.0000 0.17160  0.41550  0.74750  Biso   1.000  H
  C67      1.0000 0.25270  0.45100  0.79620  Biso   1.000  C
  H40      1.0000 0.26160  0.46730  0.70320  Biso   1.000  H
  C68      1.0000 0.29050  0.45180  0.91250  Biso   1.000  C
  C69      1.0000 0.26950  0.44000  0.04900  Biso   1.000  C
  H41      1.0000 0.29480  0.44550  0.87130  Biso   1.000  H
  C70      1.0000 0.21070  0.42740  0.93080  Biso   1.000  C
  H42      1.0000 0.19580  0.42000  0.83780  Biso   1.000  H
  N15      1.0000 0.54970  0.57680  0.88370  Biso   1.000  N
  C71      1.0000 0.62320  0.64200  0.89400  Biso   1.000  C
  H43      1.0000 0.66300  0.65740  0.90010  Biso   1.000  H
  C72      1.0000 0.60750  0.58160  0.88650  Biso   1.000  C
  C73      1.0000 0.64700  0.53410  0.89740  Biso   1.000  C
  C74      1.0000 0.52510  0.63320  0.88330  Biso   1.000  C
  C75      1.0000 0.57240  0.67370  0.89100  Biso   1.000  C
  H44      1.0000 0.56870  0.71620  0.89210  Biso   1.000  H
  N16      1.0000 0.82710  0.57340  0.95280  Biso   1.000  N
  C76      1.0000 0.80610  0.56160  0.81630  Biso   1.000  C
  H45      1.0000 0.82840  0.58450  0.74750  Biso   1.000  H
  C77      1.0000 0.74730  0.54900  0.79620  Biso   1.000  C
  H46      1.0000 0.73840  0.53270  0.70320  Biso   1.000  H
  C78      1.0000 0.70950  0.54820  0.91250  Biso   1.000  C
  C79      1.0000 0.73050  0.56000  0.04900  Biso   1.000  C
  H47      1.0000 0.70520  0.55450  0.87130  Biso   1.000  H
  C80      1.0000 0.78930  0.57260  0.93080  Biso   1.000  C
  H48      1.0000 0.80420  0.58000  0.83780  Biso   1.000  H
  N17      1.0000 0.07680  0.04970  0.88370  Biso   1.000  N
  C81      1.0000 0.14200  0.12320  0.89400  Biso   1.000  C
  H49      1.0000 0.15740  0.16300  0.90010  Biso   1.000  H
  C82      1.0000 0.08160  0.10750  0.88650  Biso   1.000  C
  C83      1.0000 0.03410  0.14700  0.89740  Biso   1.000  C
  C84      1.0000 0.13320  0.02510  0.88330  Biso   1.000  C
  C85      1.0000 0.17370  0.07240  0.89100  Biso   1.000  C
  H50      1.0000 0.21620  0.06870  0.89210  Biso   1.000  H
  N18      1.0000 0.07340  0.32710  0.95280  Biso   1.000  N
  C86      1.0000 0.06160  0.30610  0.81630  Biso   1.000  C
  H51      1.0000 0.08450  0.32840  0.74750  Biso   1.000  H
  C87      1.0000 0.04900  0.24730  0.79620  Biso   1.000  C
  H52      1.0000 0.03270  0.23840  0.70320  Biso   1.000  H
  C88      1.0000 0.04820  0.20950  0.91250  Biso   1.000  C
  C89      1.0000 0.06000  0.23050  0.04900  Biso   1.000  C
  H53      1.0000 0.05450  0.20520  0.87130  Biso   1.000  H
  C90      1.0000 0.07260  0.28930  0.93080  Biso   1.000  C
  H54      1.0000 0.08000  0.30420  0.83780  Biso   1.000  H
  N19      1.0000 0.92320  0.95030  0.88370  Biso   1.000  N
  C91      1.0000 0.85800  0.87680  0.89400  Biso   1.000  C
  H55      1.0000 0.84260  0.83700  0.90010  Biso   1.000  H
  C92      1.0000 0.91840  0.89250  0.88650  Biso   1.000  C
  C93      1.0000 0.96590  0.85300  0.89740  Biso   1.000  C
  C94      1.0000 0.86680  0.97490  0.88330  Biso   1.000  C
  C95      1.0000 0.82630  0.92760  0.89100  Biso   1.000  C
  H56      1.0000 0.78380  0.93130  0.89210  Biso   1.000  H
  N20      1.0000 0.92660  0.67290  0.95280  Biso   1.000  N
  C96      1.0000 0.93840  0.69390  0.81630  Biso   1.000  C
  H57      1.0000 0.91550  0.67160  0.74750  Biso   1.000  H
  C97      1.0000 0.95100  0.75270  0.79620  Biso   1.000  C
  H58      1.0000 0.96730  0.76160  0.70320  Biso   1.000  H
  C98      1.0000 0.95180  0.79050  0.91250  Biso   1.000  C
  C99      1.0000 0.94000  0.76950  0.04900  Biso   1.000  C
  H59      1.0000 0.94550  0.79480  0.87130  Biso   1.000  H
  C100     1.0000 0.92740  0.71070  0.93080  Biso   1.000  C
  H60      1.0000 0.92000  0.69580  0.83780  Biso   1.000  H
  N21      1.0000 0.95030  0.07680  0.88370  Biso   1.000  N
  C101     1.0000 0.87680  0.14200  0.89400  Biso   1.000  C
  H61      1.0000 0.83700  0.15740  0.90010  Biso   1.000  H
  C102     1.0000 0.89250  0.08160  0.88650  Biso   1.000  C
  C103     1.0000 0.85300  0.03410  0.89740  Biso   1.000  C
  C104     1.0000 0.97490  0.13320  0.88330  Biso   1.000  C
  C105     1.0000 0.92760  0.17370  0.89100  Biso   1.000  C
  H62      1.0000 0.93130  0.21620  0.89210  Biso   1.000  H
  N22      1.0000 0.67290  0.07340  0.95280  Biso   1.000  N
  C106     1.0000 0.69390  0.06160  0.81630  Biso   1.000  C
  H63      1.0000 0.67160  0.08450  0.74750  Biso   1.000  H
  C107     1.0000 0.75270  0.04900  0.79620  Biso   1.000  C
  H64      1.0000 0.76160  0.03270  0.70320  Biso   1.000  H
  C108     1.0000 0.79050  0.04820  0.91250  Biso   1.000  C
  C109     1.0000 0.76950  0.06000  0.04900  Biso   1.000  C
  H65      1.0000 0.79480  0.05450  0.87130  Biso   1.000  H
  C110     1.0000 0.71070  0.07260  0.93080  Biso   1.000  C
  H66      1.0000 0.69580  0.08000  0.83780  Biso   1.000  H
  N23      1.0000 0.04970  0.92320  0.88370  Biso   1.000  N
  C111     1.0000 0.12320  0.85800  0.89400  Biso   1.000  C
  H67      1.0000 0.16300  0.84260  0.90010  Biso   1.000  H
  C112     1.0000 0.10750  0.91840  0.88650  Biso   1.000  C
  C113     1.0000 0.14700  0.96590  0.89740  Biso   1.000  C
  C114     1.0000 0.02510  0.86680  0.88330  Biso   1.000  C
  C115     1.0000 0.07240  0.82630  0.89100  Biso   1.000  C
  H68      1.0000 0.06870  0.78380  0.89210  Biso   1.000  H
  N24      1.0000 0.32710  0.92660  0.95280  Biso   1.000  N
  C116     1.0000 0.30610  0.93840  0.81630  Biso   1.000  C
  H69      1.0000 0.32840  0.91550  0.74750  Biso   1.000  H
  C117     1.0000 0.24730  0.95100  0.79620  Biso   1.000  C
  H70      1.0000 0.23840  0.96730  0.70320  Biso   1.000  H
  C118     1.0000 0.20950  0.95180  0.91250  Biso   1.000  C
  C119     1.0000 0.23050  0.94000  0.04900  Biso   1.000  C
  H71      1.0000 0.20520  0.94550  0.87130  Biso   1.000  H
  C120     1.0000 0.28930  0.92740  0.93080  Biso   1.000  C
  H72      1.0000 0.30420  0.92000  0.83780  Biso   1.000  H
  N25      1.0000 0.42320  0.54970  0.11630  Biso   1.000  N
  C121     1.0000 0.35800  0.62320  0.10600  Biso   1.000  C
  H73      1.0000 0.34260  0.66300  0.09990  Biso   1.000  H
  C122     1.0000 0.41840  0.60750  0.11350  Biso   1.000  C
  C123     1.0000 0.46590  0.64700  0.10260  Biso   1.000  C
  C124     1.0000 0.36680  0.52510  0.11670  Biso   1.000  C
  C125     1.0000 0.32630  0.57240  0.10900  Biso   1.000  C
  H74      1.0000 0.28380  0.56870  0.10790  Biso   1.000  H
  N26      1.0000 0.42660  0.82710  0.04720  Biso   1.000  N
  C126     1.0000 0.43840  0.80610  0.18370  Biso   1.000  C
  H75      1.0000 0.41550  0.82840  0.25250  Biso   1.000  H
  C127     1.0000 0.45100  0.74730  0.20380  Biso   1.000  C
  H76      1.0000 0.46730  0.73840  0.29680  Biso   1.000  H
  C128     1.0000 0.45180  0.70950  0.08750  Biso   1.000  C
  C129     1.0000 0.44000  0.73050  0.95100  Biso   1.000  C
  H77      1.0000 0.44550  0.70520  0.12870  Biso   1.000  H
  C130     1.0000 0.42740  0.78930  0.06920  Biso   1.000  C
  H78      1.0000 0.42000  0.80420  0.16220  Biso   1.000  H
  N27      1.0000 0.57680  0.45030  0.11630  Biso   1.000  N
  C131     1.0000 0.64200  0.37680  0.10600  Biso   1.000  C
  H79      1.0000 0.65740  0.33700  0.09990  Biso   1.000  H
  C132     1.0000 0.58160  0.39250  0.11350  Biso   1.000  C
  C133     1.0000 0.53410  0.35300  0.10260  Biso   1.000  C
  C134     1.0000 0.63320  0.47490  0.11670  Biso   1.000  C
  C135     1.0000 0.67370  0.42760  0.10900  Biso   1.000  C
  H80      1.0000 0.71620  0.43130  0.10790  Biso   1.000  H
  N28      1.0000 0.57340  0.17290  0.04720  Biso   1.000  N
  C136     1.0000 0.56160  0.19390  0.18370  Biso   1.000  C
  H81      1.0000 0.58450  0.17160  0.25250  Biso   1.000  H
  C137     1.0000 0.54900  0.25270  0.20380  Biso   1.000  C
  H82      1.0000 0.53270  0.26160  0.29680  Biso   1.000  H
  C138     1.0000 0.54820  0.29050  0.08750  Biso   1.000  C
  C139     1.0000 0.56000  0.26950  0.95100  Biso   1.000  C
  H83      1.0000 0.55450  0.29480  0.12870  Biso   1.000  H
  C140     1.0000 0.57260  0.21070  0.06920  Biso   1.000  C
  H84      1.0000 0.58000  0.19580  0.16220  Biso   1.000  H
  N29      1.0000 0.54970  0.57680  0.11630  Biso   1.000  N
  C141     1.0000 0.62320  0.64200  0.10600  Biso   1.000  C
  H85      1.0000 0.66300  0.65740  0.09990  Biso   1.000  H
  C142     1.0000 0.60750  0.58160  0.11350  Biso   1.000  C
  C143     1.0000 0.64700  0.53410  0.10260  Biso   1.000  C
  C144     1.0000 0.52510  0.63320  0.11670  Biso   1.000  C
  C145     1.0000 0.57240  0.67370  0.10900  Biso   1.000  C
  H86      1.0000 0.56870  0.71620  0.10790  Biso   1.000  H
  N30      1.0000 0.82710  0.57340  0.04720  Biso   1.000  N
  C146     1.0000 0.80610  0.56160  0.18370  Biso   1.000  C
  H87      1.0000 0.82840  0.58450  0.25250  Biso   1.000  H
  C147     1.0000 0.74730  0.54900  0.20380  Biso   1.000  C
  H88      1.0000 0.73840  0.53270  0.29680  Biso   1.000  H
  C148     1.0000 0.70950  0.54820  0.08750  Biso   1.000  C
  C149     1.0000 0.73050  0.56000  0.95100  Biso   1.000  C
  H89      1.0000 0.70520  0.55450  0.12870  Biso   1.000  H
  C150     1.0000 0.78930  0.57260  0.06920  Biso   1.000  C
  H90      1.0000 0.80420  0.58000  0.16220  Biso   1.000  H
  N31      1.0000 0.45030  0.42320  0.11630  Biso   1.000  N
  C151     1.0000 0.37680  0.35800  0.10600  Biso   1.000  C
  H91      1.0000 0.33700  0.34260  0.09990  Biso   1.000  H
  C152     1.0000 0.39250  0.41840  0.11350  Biso   1.000  C
  C153     1.0000 0.35300  0.46590  0.10260  Biso   1.000  C
  C154     1.0000 0.47490  0.36680  0.11670  Biso   1.000  C
  C155     1.0000 0.42760  0.32630  0.10900  Biso   1.000  C
  H92      1.0000 0.43130  0.28380  0.10790  Biso   1.000  H
  N32      1.0000 0.17290  0.42660  0.04720  Biso   1.000  N
  C156     1.0000 0.19390  0.43840  0.18370  Biso   1.000  C
  H93      1.0000 0.17160  0.41550  0.25250  Biso   1.000  H
  C157     1.0000 0.25270  0.45100  0.20380  Biso   1.000  C
  H94      1.0000 0.26160  0.46730  0.29680  Biso   1.000  H
  C158     1.0000 0.29050  0.45180  0.08750  Biso   1.000  C
  C159     1.0000 0.26950  0.44000  0.95100  Biso   1.000  C
  H95      1.0000 0.29480  0.44550  0.12870  Biso   1.000  H
  C160     1.0000 0.21070  0.42740  0.06920  Biso   1.000  C
  H96      1.0000 0.19580  0.42000  0.16220  Biso   1.000  H
  Sn1      1.0000 0.00000  0.00000  0.11757  Biso   1.000  Sn
  Sn2      1.0000 0.50000  0.50000  0.88243  Biso   1.000  Sn
  Sn3      1.0000 0.00000  0.00000  0.88243  Biso   1.000  Sn
  Sn4      1.0000 0.50000  0.50000  0.11757  Biso   1.000  Sn
  Zn1      1.0000 0.91468  0.58532  0.00000  Biso   1.000  Zn
  Zn2      1.0000 0.08532  0.41468  0.00000  Biso   1.000  Zn
  Zn3      1.0000 0.41468  0.91468  0.00000  Biso   1.000  Zn
  Zn4      1.0000 0.58532  0.08532  0.00000  Biso   1.000  Zn
