data_image0
_cell_length_a       17.16
_cell_length_b       17.16
_cell_length_c       17.16
_cell_angle_alpha    90
_cell_angle_beta     90
_cell_angle_gamma    90

_symmetry_space_group_name_H-M    "P 1"
_symmetry_int_tables_number       1

loop_
  _symmetry_equiv_pos_as_xyz
  'x, y, z'

loop_
  _atom_site_label
  _atom_site_occupancy
  _atom_site_fract_x
  _atom_site_fract_y
  _atom_site_fract_z
  _atom_site_thermal_displace_type
  _atom_site_B_iso_or_equiv
  _atom_site_type_symbol
  N1       1.0000 0.67850  0.21690  0.01820  Biso   1.000  N
  C1       1.0000 0.80210  0.35500  0.94310  Biso   1.000  C
  C2       1.0000 0.69900  0.32600  0.93810  Biso   1.000  C
  C3       1.0000 0.63300  0.27660  0.90400  Biso   1.000  C
  H1       1.0000 0.76370  0.30070  0.04520  Biso   1.000  H
  H2       1.0000 0.68780  0.38840  0.93200  Biso   1.000  H
  H3       1.0000 0.75350  0.31240  0.90750  Biso   1.000  H
  H4       1.0000 0.63510  0.27300  0.84050  Biso   1.000  H
  H5       1.0000 0.57670  0.30130  0.92100  Biso   1.000  H
  H6       1.0000 0.83470  0.40920  0.95000  Biso   1.000  H
  H7       1.0000 0.83790  0.31290  0.91110  Biso   1.000  H
  H8       1.0000 0.65970  0.19350  0.07120  Biso   1.000  H
  N2       1.0000 0.32150  0.78310  0.01820  Biso   1.000  N
  C4       1.0000 0.19790  0.64500  0.94310  Biso   1.000  C
  C5       1.0000 0.30100  0.67400  0.93810  Biso   1.000  C
  C6       1.0000 0.36700  0.72340  0.90400  Biso   1.000  C
  H9       1.0000 0.23630  0.69930  0.04520  Biso   1.000  H
  H10      1.0000 0.31220  0.61160  0.93200  Biso   1.000  H
  H11      1.0000 0.24650  0.68760  0.90750  Biso   1.000  H
  H12      1.0000 0.36490  0.72700  0.84050  Biso   1.000  H
  H13      1.0000 0.42330  0.69870  0.92100  Biso   1.000  H
  H14      1.0000 0.16530  0.59080  0.95000  Biso   1.000  H
  H15      1.0000 0.16210  0.68710  0.91110  Biso   1.000  H
  H16      1.0000 0.34030  0.80650  0.07120  Biso   1.000  H
  N3       1.0000 0.32150  0.21690  0.98180  Biso   1.000  N
  C7       1.0000 0.19790  0.35500  0.05690  Biso   1.000  C
  C8       1.0000 0.30100  0.32600  0.06190  Biso   1.000  C
  C9       1.0000 0.36700  0.27660  0.09600  Biso   1.000  C
  H17      1.0000 0.23630  0.30070  0.95480  Biso   1.000  H
  H18      1.0000 0.31220  0.38840  0.06800  Biso   1.000  H
  H19      1.0000 0.24650  0.31240  0.09250  Biso   1.000  H
  H20      1.0000 0.36490  0.27300  0.15950  Biso   1.000  H
  H21      1.0000 0.42330  0.30130  0.07900  Biso   1.000  H
  H22      1.0000 0.16530  0.40920  0.05000  Biso   1.000  H
  H23      1.0000 0.16210  0.31290  0.08890  Biso   1.000  H
  H24      1.0000 0.34030  0.19350  0.92880  Biso   1.000  H
  N4       1.0000 0.67850  0.78310  0.98180  Biso   1.000  N
  C10      1.0000 0.80210  0.64500  0.05690  Biso   1.000  C
  C11      1.0000 0.69900  0.67400  0.06190  Biso   1.000  C
  C12      1.0000 0.63300  0.72340  0.09600  Biso   1.000  C
  H25      1.0000 0.76370  0.69930  0.95480  Biso   1.000  H
  H26      1.0000 0.68780  0.61160  0.06800  Biso   1.000  H
  H27      1.0000 0.75350  0.68760  0.09250  Biso   1.000  H
  H28      1.0000 0.63510  0.72700  0.15950  Biso   1.000  H
  H29      1.0000 0.57670  0.69870  0.07900  Biso   1.000  H
  H30      1.0000 0.83470  0.59080  0.05000  Biso   1.000  H
  H31      1.0000 0.83790  0.68710  0.08890  Biso   1.000  H
  H32      1.0000 0.65970  0.80650  0.92880  Biso   1.000  H
  N5       1.0000 0.01820  0.67850  0.21690  Biso   1.000  N
  C13      1.0000 0.94310  0.80210  0.35500  Biso   1.000  C
  C14      1.0000 0.93810  0.69900  0.32600  Biso   1.000  C
  C15      1.0000 0.90400  0.63300  0.27660  Biso   1.000  C
  H33      1.0000 0.04520  0.76370  0.30070  Biso   1.000  H
  H34      1.0000 0.93200  0.68780  0.38840  Biso   1.000  H
  H35      1.0000 0.90750  0.75350  0.31240  Biso   1.000  H
  H36      1.0000 0.84050  0.63510  0.27300  Biso   1.000  H
  H37      1.0000 0.92100  0.57670  0.30130  Biso   1.000  H
  H38      1.0000 0.95000  0.83470  0.40920  Biso   1.000  H
  H39      1.0000 0.91110  0.83790  0.31290  Biso   1.000  H
  H40      1.0000 0.07120  0.65970  0.19350  Biso   1.000  H
  N6       1.0000 0.01820  0.32150  0.78310  Biso   1.000  N
  C16      1.0000 0.94310  0.19790  0.64500  Biso   1.000  C
  C17      1.0000 0.93810  0.30100  0.67400  Biso   1.000  C
  C18      1.0000 0.90400  0.36700  0.72340  Biso   1.000  C
  H41      1.0000 0.04520  0.23630  0.69930  Biso   1.000  H
  H42      1.0000 0.93200  0.31220  0.61160  Biso   1.000  H
  H43      1.0000 0.90750  0.24650  0.68760  Biso   1.000  H
  H44      1.0000 0.84050  0.36490  0.72700  Biso   1.000  H
  H45      1.0000 0.92100  0.42330  0.69870  Biso   1.000  H
  H46      1.0000 0.95000  0.16530  0.59080  Biso   1.000  H
  H47      1.0000 0.91110  0.16210  0.68710  Biso   1.000  H
  H48      1.0000 0.07120  0.34030  0.80650  Biso   1.000  H
  N7       1.0000 0.98180  0.32150  0.21690  Biso   1.000  N
  C19      1.0000 0.05690  0.19790  0.35500  Biso   1.000  C
  C20      1.0000 0.06190  0.30100  0.32600  Biso   1.000  C
  C21      1.0000 0.09600  0.36700  0.27660  Biso   1.000  C
  H49      1.0000 0.95480  0.23630  0.30070  Biso   1.000  H
  H50      1.0000 0.06800  0.31220  0.38840  Biso   1.000  H
  H51      1.0000 0.09250  0.24650  0.31240  Biso   1.000  H
  H52      1.0000 0.15950  0.36490  0.27300  Biso   1.000  H
  H53      1.0000 0.07900  0.42330  0.30130  Biso   1.000  H
  H54      1.0000 0.05000  0.16530  0.40920  Biso   1.000  H
  H55      1.0000 0.08890  0.16210  0.31290  Biso   1.000  H
  H56      1.0000 0.92880  0.34030  0.19350  Biso   1.000  H
  N8       1.0000 0.98180  0.67850  0.78310  Biso   1.000  N
  C22      1.0000 0.05690  0.80210  0.64500  Biso   1.000  C
  C23      1.0000 0.06190  0.69900  0.67400  Biso   1.000  C
  C24      1.0000 0.09600  0.63300  0.72340  Biso   1.000  C
  H57      1.0000 0.95480  0.76370  0.69930  Biso   1.000  H
  H58      1.0000 0.06800  0.68780  0.61160  Biso   1.000  H
  H59      1.0000 0.09250  0.75350  0.68760  Biso   1.000  H
  H60      1.0000 0.15950  0.63510  0.72700  Biso   1.000  H
  H61      1.0000 0.07900  0.57670  0.69870  Biso   1.000  H
  H62      1.0000 0.05000  0.83470  0.59080  Biso   1.000  H
  H63      1.0000 0.08890  0.83790  0.68710  Biso   1.000  H
  H64      1.0000 0.92880  0.65970  0.80650  Biso   1.000  H
  N9       1.0000 0.21690  0.01820  0.67850  Biso   1.000  N
  C25      1.0000 0.35500  0.94310  0.80210  Biso   1.000  C
  C26      1.0000 0.32600  0.93810  0.69900  Biso   1.000  C
  C27      1.0000 0.27660  0.90400  0.63300  Biso   1.000  C
  H65      1.0000 0.30070  0.04520  0.76370  Biso   1.000  H
  H66      1.0000 0.38840  0.93200  0.68780  Biso   1.000  H
  H67      1.0000 0.31240  0.90750  0.75350  Biso   1.000  H
  H68      1.0000 0.27300  0.84050  0.63510  Biso   1.000  H
  H69      1.0000 0.30130  0.92100  0.57670  Biso   1.000  H
  H70      1.0000 0.40920  0.95000  0.83470  Biso   1.000  H
  H71      1.0000 0.31290  0.91110  0.83790  Biso   1.000  H
  H72      1.0000 0.19350  0.07120  0.65970  Biso   1.000  H
  N10      1.0000 0.78310  0.01820  0.32150  Biso   1.000  N
  C28      1.0000 0.64500  0.94310  0.19790  Biso   1.000  C
  C29      1.0000 0.67400  0.93810  0.30100  Biso   1.000  C
  C30      1.0000 0.72340  0.90400  0.36700  Biso   1.000  C
  H73      1.0000 0.69930  0.04520  0.23630  Biso   1.000  H
  H74      1.0000 0.61160  0.93200  0.31220  Biso   1.000  H
  H75      1.0000 0.68760  0.90750  0.24650  Biso   1.000  H
  H76      1.0000 0.72700  0.84050  0.36490  Biso   1.000  H
  H77      1.0000 0.69870  0.92100  0.42330  Biso   1.000  H
  H78      1.0000 0.59080  0.95000  0.16530  Biso   1.000  H
  H79      1.0000 0.68710  0.91110  0.16210  Biso   1.000  H
  H80      1.0000 0.80650  0.07120  0.34030  Biso   1.000  H
  N11      1.0000 0.21690  0.98180  0.32150  Biso   1.000  N
  C31      1.0000 0.35500  0.05690  0.19790  Biso   1.000  C
  C32      1.0000 0.32600  0.06190  0.30100  Biso   1.000  C
  C33      1.0000 0.27660  0.09600  0.36700  Biso   1.000  C
  H81      1.0000 0.30070  0.95480  0.23630  Biso   1.000  H
  H82      1.0000 0.38840  0.06800  0.31220  Biso   1.000  H
  H83      1.0000 0.31240  0.09250  0.24650  Biso   1.000  H
  H84      1.0000 0.27300  0.15950  0.36490  Biso   1.000  H
  H85      1.0000 0.30130  0.07900  0.42330  Biso   1.000  H
  H86      1.0000 0.40920  0.05000  0.16530  Biso   1.000  H
  H87      1.0000 0.31290  0.08890  0.16210  Biso   1.000  H
  H88      1.0000 0.19350  0.92880  0.34030  Biso   1.000  H
  N12      1.0000 0.78310  0.98180  0.67850  Biso   1.000  N
  C34      1.0000 0.64500  0.05690  0.80210  Biso   1.000  C
  C35      1.0000 0.67400  0.06190  0.69900  Biso   1.000  C
  C36      1.0000 0.72340  0.09600  0.63300  Biso   1.000  C
  H89      1.0000 0.69930  0.95480  0.76370  Biso   1.000  H
  H90      1.0000 0.61160  0.06800  0.68780  Biso   1.000  H
  H91      1.0000 0.68760  0.09250  0.75350  Biso   1.000  H
  H92      1.0000 0.72700  0.15950  0.63510  Biso   1.000  H
  H93      1.0000 0.69870  0.07900  0.57670  Biso   1.000  H
  H94      1.0000 0.59080  0.05000  0.83470  Biso   1.000  H
  H95      1.0000 0.68710  0.08890  0.83790  Biso   1.000  H
  H96      1.0000 0.80650  0.92880  0.65970  Biso   1.000  H
  N13      1.0000 0.21690  0.67850  0.01820  Biso   1.000  N
  C37      1.0000 0.35500  0.80210  0.94310  Biso   1.000  C
  C38      1.0000 0.32600  0.69900  0.93810  Biso   1.000  C
  C39      1.0000 0.27660  0.63300  0.90400  Biso   1.000  C
  H97      1.0000 0.30070  0.76370  0.04520  Biso   1.000  H
  H98      1.0000 0.38840  0.68780  0.93200  Biso   1.000  H
  H99      1.0000 0.31240  0.75350  0.90750  Biso   1.000  H
  H100     1.0000 0.27300  0.63510  0.84050  Biso   1.000  H
  H101     1.0000 0.30130  0.57670  0.92100  Biso   1.000  H
  H102     1.0000 0.40920  0.83470  0.95000  Biso   1.000  H
  H103     1.0000 0.31290  0.83790  0.91110  Biso   1.000  H
  H104     1.0000 0.19350  0.65970  0.07120  Biso   1.000  H
  N14      1.0000 0.78310  0.32150  0.01820  Biso   1.000  N
  C40      1.0000 0.64500  0.19790  0.94310  Biso   1.000  C
  C41      1.0000 0.67400  0.30100  0.93810  Biso   1.000  C
  C42      1.0000 0.72340  0.36700  0.90400  Biso   1.000  C
  H105     1.0000 0.69930  0.23630  0.04520  Biso   1.000  H
  H106     1.0000 0.61160  0.31220  0.93200  Biso   1.000  H
  H107     1.0000 0.68760  0.24650  0.90750  Biso   1.000  H
  H108     1.0000 0.72700  0.36490  0.84050  Biso   1.000  H
  H109     1.0000 0.69870  0.42330  0.92100  Biso   1.000  H
  H110     1.0000 0.59080  0.16530  0.95000  Biso   1.000  H
  H111     1.0000 0.68710  0.16210  0.91110  Biso   1.000  H
  H112     1.0000 0.80650  0.34030  0.07120  Biso   1.000  H
  N15      1.0000 0.21690  0.32150  0.98180  Biso   1.000  N
  C43      1.0000 0.35500  0.19790  0.05690  Biso   1.000  C
  C44      1.0000 0.32600  0.30100  0.06190  Biso   1.000  C
  C45      1.0000 0.27660  0.36700  0.09600  Biso   1.000  C
  H113     1.0000 0.30070  0.23630  0.95480  Biso   1.000  H
  H114     1.0000 0.38840  0.31220  0.06800  Biso   1.000  H
  H115     1.0000 0.31240  0.24650  0.09250  Biso   1.000  H
  H116     1.0000 0.27300  0.36490  0.15950  Biso   1.000  H
  H117     1.0000 0.30130  0.42330  0.07900  Biso   1.000  H
  H118     1.0000 0.40920  0.16530  0.05000  Biso   1.000  H
  H119     1.0000 0.31290  0.16210  0.08890  Biso   1.000  H
  H120     1.0000 0.19350  0.34030  0.92880  Biso   1.000  H
  N16      1.0000 0.78310  0.67850  0.98180  Biso   1.000  N
  C46      1.0000 0.64500  0.80210  0.05690  Biso   1.000  C
  C47      1.0000 0.67400  0.69900  0.06190  Biso   1.000  C
  C48      1.0000 0.72340  0.63300  0.09600  Biso   1.000  C
  H121     1.0000 0.69930  0.76370  0.95480  Biso   1.000  H
  H122     1.0000 0.61160  0.68780  0.06800  Biso   1.000  H
  H123     1.0000 0.68760  0.75350  0.09250  Biso   1.000  H
  H124     1.0000 0.72700  0.63510  0.15950  Biso   1.000  H
  H125     1.0000 0.69870  0.57670  0.07900  Biso   1.000  H
  H126     1.0000 0.59080  0.83470  0.05000  Biso   1.000  H
  H127     1.0000 0.68710  0.83790  0.08890  Biso   1.000  H
  H128     1.0000 0.80650  0.65970  0.92880  Biso   1.000  H
  N17      1.0000 0.67850  0.01820  0.21690  Biso   1.000  N
  C49      1.0000 0.80210  0.94310  0.35500  Biso   1.000  C
  C50      1.0000 0.69900  0.93810  0.32600  Biso   1.000  C
  C51      1.0000 0.63300  0.90400  0.27660  Biso   1.000  C
  H129     1.0000 0.76370  0.04520  0.30070  Biso   1.000  H
  H130     1.0000 0.68780  0.93200  0.38840  Biso   1.000  H
  H131     1.0000 0.75350  0.90750  0.31240  Biso   1.000  H
  H132     1.0000 0.63510  0.84050  0.27300  Biso   1.000  H
  H133     1.0000 0.57670  0.92100  0.30130  Biso   1.000  H
  H134     1.0000 0.83470  0.95000  0.40920  Biso   1.000  H
  H135     1.0000 0.83790  0.91110  0.31290  Biso   1.000  H
  H136     1.0000 0.65970  0.07120  0.19350  Biso   1.000  H
  N18      1.0000 0.32150  0.01820  0.78310  Biso   1.000  N
  C52      1.0000 0.19790  0.94310  0.64500  Biso   1.000  C
  C53      1.0000 0.30100  0.93810  0.67400  Biso   1.000  C
  C54      1.0000 0.36700  0.90400  0.72340  Biso   1.000  C
  H137     1.0000 0.23630  0.04520  0.69930  Biso   1.000  H
  H138     1.0000 0.31220  0.93200  0.61160  Biso   1.000  H
  H139     1.0000 0.24650  0.90750  0.68760  Biso   1.000  H
  H140     1.0000 0.36490  0.84050  0.72700  Biso   1.000  H
  H141     1.0000 0.42330  0.92100  0.69870  Biso   1.000  H
  H142     1.0000 0.16530  0.95000  0.59080  Biso   1.000  H
  H143     1.0000 0.16210  0.91110  0.68710  Biso   1.000  H
  H144     1.0000 0.34030  0.07120  0.80650  Biso   1.000  H
  N19      1.0000 0.32150  0.98180  0.21690  Biso   1.000  N
  C55      1.0000 0.19790  0.05690  0.35500  Biso   1.000  C
  C56      1.0000 0.30100  0.06190  0.32600  Biso   1.000  C
  C57      1.0000 0.36700  0.09600  0.27660  Biso   1.000  C
  H145     1.0000 0.23630  0.95480  0.30070  Biso   1.000  H
  H146     1.0000 0.31220  0.06800  0.38840  Biso   1.000  H
  H147     1.0000 0.24650  0.09250  0.31240  Biso   1.000  H
  H148     1.0000 0.36490  0.15950  0.27300  Biso   1.000  H
  H149     1.0000 0.42330  0.07900  0.30130  Biso   1.000  H
  H150     1.0000 0.16530  0.05000  0.40920  Biso   1.000  H
  H151     1.0000 0.16210  0.08890  0.31290  Biso   1.000  H
  H152     1.0000 0.34030  0.92880  0.19350  Biso   1.000  H
  N20      1.0000 0.67850  0.98180  0.78310  Biso   1.000  N
  C58      1.0000 0.80210  0.05690  0.64500  Biso   1.000  C
  C59      1.0000 0.69900  0.06190  0.67400  Biso   1.000  C
  C60      1.0000 0.63300  0.09600  0.72340  Biso   1.000  C
  H153     1.0000 0.76370  0.95480  0.69930  Biso   1.000  H
  H154     1.0000 0.68780  0.06800  0.61160  Biso   1.000  H
  H155     1.0000 0.75350  0.09250  0.68760  Biso   1.000  H
  H156     1.0000 0.63510  0.15950  0.72700  Biso   1.000  H
  H157     1.0000 0.57670  0.07900  0.69870  Biso   1.000  H
  H158     1.0000 0.83470  0.05000  0.59080  Biso   1.000  H
  H159     1.0000 0.83790  0.08890  0.68710  Biso   1.000  H
  H160     1.0000 0.65970  0.92880  0.80650  Biso   1.000  H
  N21      1.0000 0.01820  0.21690  0.67850  Biso   1.000  N
  C61      1.0000 0.94310  0.35500  0.80210  Biso   1.000  C
  C62      1.0000 0.93810  0.32600  0.69900  Biso   1.000  C
  C63      1.0000 0.90400  0.27660  0.63300  Biso   1.000  C
  H161     1.0000 0.04520  0.30070  0.76370  Biso   1.000  H
  H162     1.0000 0.93200  0.38840  0.68780  Biso   1.000  H
  H163     1.0000 0.90750  0.31240  0.75350  Biso   1.000  H
  H164     1.0000 0.84050  0.27300  0.63510  Biso   1.000  H
  H165     1.0000 0.92100  0.30130  0.57670  Biso   1.000  H
  H166     1.0000 0.95000  0.40920  0.83470  Biso   1.000  H
  H167     1.0000 0.91110  0.31290  0.83790  Biso   1.000  H
  H168     1.0000 0.07120  0.19350  0.65970  Biso   1.000  H
  N22      1.0000 0.01820  0.78310  0.32150  Biso   1.000  N
  C64      1.0000 0.94310  0.64500  0.19790  Biso   1.000  C
  C65      1.0000 0.93810  0.67400  0.30100  Biso   1.000  C
  C66      1.0000 0.90400  0.72340  0.36700  Biso   1.000  C
  H169     1.0000 0.04520  0.69930  0.23630  Biso   1.000  H
  H170     1.0000 0.93200  0.61160  0.31220  Biso   1.000  H
  H171     1.0000 0.90750  0.68760  0.24650  Biso   1.000  H
  H172     1.0000 0.84050  0.72700  0.36490  Biso   1.000  H
  H173     1.0000 0.92100  0.69870  0.42330  Biso   1.000  H
  H174     1.0000 0.95000  0.59080  0.16530  Biso   1.000  H
  H175     1.0000 0.91110  0.68710  0.16210  Biso   1.000  H
  H176     1.0000 0.07120  0.80650  0.34030  Biso   1.000  H
  N23      1.0000 0.98180  0.21690  0.32150  Biso   1.000  N
  C67      1.0000 0.05690  0.35500  0.19790  Biso   1.000  C
  C68      1.0000 0.06190  0.32600  0.30100  Biso   1.000  C
  C69      1.0000 0.09600  0.27660  0.36700  Biso   1.000  C
  H177     1.0000 0.95480  0.30070  0.23630  Biso   1.000  H
  H178     1.0000 0.06800  0.38840  0.31220  Biso   1.000  H
  H179     1.0000 0.09250  0.31240  0.24650  Biso   1.000  H
  H180     1.0000 0.15950  0.27300  0.36490  Biso   1.000  H
  H181     1.0000 0.07900  0.30130  0.42330  Biso   1.000  H
  H182     1.0000 0.05000  0.40920  0.16530  Biso   1.000  H
  H183     1.0000 0.08890  0.31290  0.16210  Biso   1.000  H
  H184     1.0000 0.92880  0.19350  0.34030  Biso   1.000  H
  N24      1.0000 0.98180  0.78310  0.67850  Biso   1.000  N
  C70      1.0000 0.05690  0.64500  0.80210  Biso   1.000  C
  C71      1.0000 0.06190  0.67400  0.69900  Biso   1.000  C
  C72      1.0000 0.09600  0.72340  0.63300  Biso   1.000  C
  H185     1.0000 0.95480  0.69930  0.76370  Biso   1.000  H
  H186     1.0000 0.06800  0.61160  0.68780  Biso   1.000  H
  H187     1.0000 0.09250  0.68760  0.75350  Biso   1.000  H
  H188     1.0000 0.15950  0.72700  0.63510  Biso   1.000  H
  H189     1.0000 0.07900  0.69870  0.57670  Biso   1.000  H
  H190     1.0000 0.05000  0.59080  0.83470  Biso   1.000  H
  H191     1.0000 0.08890  0.68710  0.83790  Biso   1.000  H
  H192     1.0000 0.92880  0.80650  0.65970  Biso   1.000  H
  Zn1      1.0000 0.56460  0.43540  0.43540  Biso   1.000  Zn
  Zn2      1.0000 0.43540  0.56460  0.43540  Biso   1.000  Zn
  Zn3      1.0000 0.43540  0.43540  0.56460  Biso   1.000  Zn
  Zn4      1.0000 0.56460  0.56460  0.56460  Biso   1.000  Zn
  O1       1.0000 0.50000  0.50000  0.50000  Biso   1.000  O
  O2       1.0000 0.54830  0.45170  0.33250  Biso   1.000  O
  C73      1.0000 0.54960  0.45040  0.16540  Biso   1.000  C
  C74      1.0000 0.54940  0.45060  0.08400  Biso   1.000  C
  N25      1.0000 0.60000  0.40000  0.04610  Biso   1.000  N
  C75      1.0000 0.70400  0.29600  0.02270  Biso   1.000  C
  C76      1.0000 0.65000  0.35000  0.07510  Biso   1.000  C
  O3       1.0000 0.65000  0.35000  0.14620  Biso   1.000  O
  H193     1.0000 0.57305  0.42695  0.19400  Biso   1.000  H
  H194     1.0000 0.58270  0.41730  0.05820  Biso   1.000  H
  H195     1.0000 0.59500  0.40500  0.99780  Biso   1.000  H
  O4       1.0000 0.45170  0.54830  0.33250  Biso   1.000  O
  C77      1.0000 0.45040  0.54960  0.16540  Biso   1.000  C
  C78      1.0000 0.45060  0.54940  0.08400  Biso   1.000  C
  N26      1.0000 0.40000  0.60000  0.04610  Biso   1.000  N
  C79      1.0000 0.29600  0.70400  0.02270  Biso   1.000  C
  C80      1.0000 0.35000  0.65000  0.07510  Biso   1.000  C
  O5       1.0000 0.35000  0.65000  0.14620  Biso   1.000  O
  H196     1.0000 0.42695  0.57305  0.19400  Biso   1.000  H
  H197     1.0000 0.41730  0.58270  0.05820  Biso   1.000  H
  H198     1.0000 0.40500  0.59500  0.99780  Biso   1.000  H
  O6       1.0000 0.45170  0.45170  0.66750  Biso   1.000  O
  C81      1.0000 0.45040  0.45040  0.83460  Biso   1.000  C
  C82      1.0000 0.45060  0.45060  0.91600  Biso   1.000  C
  N27      1.0000 0.40000  0.40000  0.95390  Biso   1.000  N
  C83      1.0000 0.29600  0.29600  0.97730  Biso   1.000  C
  C84      1.0000 0.35000  0.35000  0.92490  Biso   1.000  C
  O7       1.0000 0.35000  0.35000  0.85380  Biso   1.000  O
  H199     1.0000 0.42695  0.42695  0.80600  Biso   1.000  H
  H200     1.0000 0.41730  0.41730  0.94180  Biso   1.000  H
  H201     1.0000 0.40500  0.40500  0.00220  Biso   1.000  H
  O8       1.0000 0.54830  0.54830  0.66750  Biso   1.000  O
  C85      1.0000 0.54960  0.54960  0.83460  Biso   1.000  C
  C86      1.0000 0.54940  0.54940  0.91600  Biso   1.000  C
  N28      1.0000 0.60000  0.60000  0.95390  Biso   1.000  N
  C87      1.0000 0.70400  0.70400  0.97730  Biso   1.000  C
  C88      1.0000 0.65000  0.65000  0.92490  Biso   1.000  C
  O9       1.0000 0.65000  0.65000  0.85380  Biso   1.000  O
  H202     1.0000 0.57305  0.57305  0.80600  Biso   1.000  H
  H203     1.0000 0.58270  0.58270  0.94180  Biso   1.000  H
  H204     1.0000 0.59500  0.59500  0.00220  Biso   1.000  H
  O10      1.0000 0.33250  0.54830  0.45170  Biso   1.000  O
  C89      1.0000 0.16540  0.54960  0.45040  Biso   1.000  C
  C90      1.0000 0.08400  0.54940  0.45060  Biso   1.000  C
  N29      1.0000 0.04610  0.60000  0.40000  Biso   1.000  N
  C91      1.0000 0.02270  0.70400  0.29600  Biso   1.000  C
  C92      1.0000 0.07510  0.65000  0.35000  Biso   1.000  C
  O11      1.0000 0.14620  0.65000  0.35000  Biso   1.000  O
  H205     1.0000 0.19400  0.57305  0.42695  Biso   1.000  H
  H206     1.0000 0.05820  0.58270  0.41730  Biso   1.000  H
  H207     1.0000 0.99780  0.59500  0.40500  Biso   1.000  H
  O12      1.0000 0.33250  0.45170  0.54830  Biso   1.000  O
  C93      1.0000 0.16540  0.45040  0.54960  Biso   1.000  C
  C94      1.0000 0.08400  0.45060  0.54940  Biso   1.000  C
  N30      1.0000 0.04610  0.40000  0.60000  Biso   1.000  N
  C95      1.0000 0.02270  0.29600  0.70400  Biso   1.000  C
  C96      1.0000 0.07510  0.35000  0.65000  Biso   1.000  C
  O13      1.0000 0.14620  0.35000  0.65000  Biso   1.000  O
  H208     1.0000 0.19400  0.42695  0.57305  Biso   1.000  H
  H209     1.0000 0.05820  0.41730  0.58270  Biso   1.000  H
  H210     1.0000 0.99780  0.40500  0.59500  Biso   1.000  H
  O14      1.0000 0.66750  0.45170  0.45170  Biso   1.000  O
  C97      1.0000 0.83460  0.45040  0.45040  Biso   1.000  C
  C98      1.0000 0.91600  0.45060  0.45060  Biso   1.000  C
  N31      1.0000 0.95390  0.40000  0.40000  Biso   1.000  N
  C99      1.0000 0.97730  0.29600  0.29600  Biso   1.000  C
  C100     1.0000 0.92490  0.35000  0.35000  Biso   1.000  C
  O15      1.0000 0.85380  0.35000  0.35000  Biso   1.000  O
  H211     1.0000 0.80600  0.42695  0.42695  Biso   1.000  H
  H212     1.0000 0.94180  0.41730  0.41730  Biso   1.000  H
  H213     1.0000 0.00220  0.40500  0.40500  Biso   1.000  H
  O16      1.0000 0.66750  0.54830  0.54830  Biso   1.000  O
  C101     1.0000 0.83460  0.54960  0.54960  Biso   1.000  C
  C102     1.0000 0.91600  0.54940  0.54940  Biso   1.000  C
  N32      1.0000 0.95390  0.60000  0.60000  Biso   1.000  N
  C103     1.0000 0.97730  0.70400  0.70400  Biso   1.000  C
  C104     1.0000 0.92490  0.65000  0.65000  Biso   1.000  C
  O17      1.0000 0.85380  0.65000  0.65000  Biso   1.000  O
  H214     1.0000 0.80600  0.57305  0.57305  Biso   1.000  H
  H215     1.0000 0.94180  0.58270  0.58270  Biso   1.000  H
  H216     1.0000 0.00220  0.59500  0.59500  Biso   1.000  H
  O18      1.0000 0.45170  0.33250  0.54830  Biso   1.000  O
  C105     1.0000 0.45040  0.16540  0.54960  Biso   1.000  C
  C106     1.0000 0.45060  0.08400  0.54940  Biso   1.000  C
  N33      1.0000 0.40000  0.04610  0.60000  Biso   1.000  N
  C107     1.0000 0.29600  0.02270  0.70400  Biso   1.000  C
  C108     1.0000 0.35000  0.07510  0.65000  Biso   1.000  C
  O19      1.0000 0.35000  0.14620  0.65000  Biso   1.000  O
  H217     1.0000 0.42695  0.19400  0.57305  Biso   1.000  H
  H218     1.0000 0.41730  0.05820  0.58270  Biso   1.000  H
  H219     1.0000 0.40500  0.99780  0.59500  Biso   1.000  H
  O20      1.0000 0.54830  0.33250  0.45170  Biso   1.000  O
  C109     1.0000 0.54960  0.16540  0.45040  Biso   1.000  C
  C110     1.0000 0.54940  0.08400  0.45060  Biso   1.000  C
  N34      1.0000 0.60000  0.04610  0.40000  Biso   1.000  N
  C111     1.0000 0.70400  0.02270  0.29600  Biso   1.000  C
  C112     1.0000 0.65000  0.07510  0.35000  Biso   1.000  C
  O21      1.0000 0.65000  0.14620  0.35000  Biso   1.000  O
  H220     1.0000 0.57305  0.19400  0.42695  Biso   1.000  H
  H221     1.0000 0.58270  0.05820  0.41730  Biso   1.000  H
  H222     1.0000 0.59500  0.99780  0.40500  Biso   1.000  H
  O22      1.0000 0.45170  0.66750  0.45170  Biso   1.000  O
  C113     1.0000 0.45040  0.83460  0.45040  Biso   1.000  C
  C114     1.0000 0.45060  0.91600  0.45060  Biso   1.000  C
  N35      1.0000 0.40000  0.95390  0.40000  Biso   1.000  N
  C115     1.0000 0.29600  0.97730  0.29600  Biso   1.000  C
  C116     1.0000 0.35000  0.92490  0.35000  Biso   1.000  C
  O23      1.0000 0.35000  0.85380  0.35000  Biso   1.000  O
  H223     1.0000 0.42695  0.80600  0.42695  Biso   1.000  H
  H224     1.0000 0.41730  0.94180  0.41730  Biso   1.000  H
  H225     1.0000 0.40500  0.00220  0.40500  Biso   1.000  H
  O24      1.0000 0.54830  0.66750  0.54830  Biso   1.000  O
  C117     1.0000 0.54960  0.83460  0.54960  Biso   1.000  C
  C118     1.0000 0.54940  0.91600  0.54940  Biso   1.000  C
  N36      1.0000 0.60000  0.95390  0.60000  Biso   1.000  N
  C119     1.0000 0.70400  0.97730  0.70400  Biso   1.000  C
  C120     1.0000 0.65000  0.92490  0.65000  Biso   1.000  C
  O25      1.0000 0.65000  0.85380  0.65000  Biso   1.000  O
  H226     1.0000 0.57305  0.80600  0.57305  Biso   1.000  H
  H227     1.0000 0.58270  0.94180  0.58270  Biso   1.000  H
  H228     1.0000 0.59500  0.00220  0.59500  Biso   1.000  H
  C121     1.0000 0.50000  0.50000  0.29800  Biso   1.000  C
  C122     1.0000 0.50000  0.50000  0.20570  Biso   1.000  C
  C123     1.0000 0.50000  0.50000  0.04310  Biso   1.000  C
  C124     1.0000 0.50000  0.50000  0.70200  Biso   1.000  C
  C125     1.0000 0.50000  0.50000  0.79430  Biso   1.000  C
  C126     1.0000 0.50000  0.50000  0.95690  Biso   1.000  C
  C127     1.0000 0.29800  0.50000  0.50000  Biso   1.000  C
  C128     1.0000 0.20570  0.50000  0.50000  Biso   1.000  C
  C129     1.0000 0.04310  0.50000  0.50000  Biso   1.000  C
  C130     1.0000 0.70200  0.50000  0.50000  Biso   1.000  C
  C131     1.0000 0.79430  0.50000  0.50000  Biso   1.000  C
  C132     1.0000 0.95690  0.50000  0.50000  Biso   1.000  C
  C133     1.0000 0.50000  0.29800  0.50000  Biso   1.000  C
  C134     1.0000 0.50000  0.20570  0.50000  Biso   1.000  C
  C135     1.0000 0.50000  0.04310  0.50000  Biso   1.000  C
  C136     1.0000 0.50000  0.70200  0.50000  Biso   1.000  C
  C137     1.0000 0.50000  0.79430  0.50000  Biso   1.000  C
  C138     1.0000 0.50000  0.95690  0.50000  Biso   1.000  C
