data_image0
_cell_length_a       12.6417
_cell_length_b       16.3072
_cell_length_c       13.2331
_cell_angle_alpha    90
_cell_angle_beta     116.079
_cell_angle_gamma    90

_symmetry_space_group_name_H-M    "P 1"
_symmetry_int_tables_number       1

loop_
  _symmetry_equiv_pos_as_xyz
  'x, y, z'

loop_
  _atom_site_label
  _atom_site_occupancy
  _atom_site_fract_x
  _atom_site_fract_y
  _atom_site_fract_z
  _atom_site_thermal_displace_type
  _atom_site_B_iso_or_equiv
  _atom_site_type_symbol
  C1       1.0000 0.48330  0.73290  0.42700  Biso   1.000  C
  C2       1.0000 0.47550  0.65730  0.49060  Biso   1.000  C
  H1       1.0000 0.53150  0.61620  0.49180  Biso   1.000  H
  H2       1.0000 0.39700  0.63390  0.45420  Biso   1.000  H
  C3       1.0000 0.50330  0.68360  0.61040  Biso   1.000  C
  H3       1.0000 0.58540  0.69980  0.64840  Biso   1.000  H
  H4       1.0000 0.45600  0.73130  0.60690  Biso   1.000  H
  C4       1.0000 0.55480  0.54080  0.69110  Biso   1.000  C
  C5       1.0000 0.43950  0.60760  0.84490  Biso   1.000  C
  C6       1.0000 0.47450  0.62990  0.95630  Biso   1.000  C
  C7       1.0000 0.40840  0.60120  0.00970  Biso   1.000  C
  H5       1.0000 0.34200  0.56910  0.97020  Biso   1.000  H
  C8       1.0000 0.44150  0.62050  0.12180  Biso   1.000  C
  H6       1.0000 0.39730  0.60130  0.15750  Biso   1.000  H
  C9       1.0000 0.54070  0.66850  0.18070  Biso   1.000  C
  H7       1.0000 0.56280  0.68140  0.25580  Biso   1.000  H
  C10      1.0000 0.60680  0.69710  0.12740  Biso   1.000  C
  H8       1.0000 0.67310  0.72920  0.16680  Biso   1.000  H
  C11      1.0000 0.57370  0.67790  0.01520  Biso   1.000  C
  H9       1.0000 0.61790  0.69700  0.97960  Biso   1.000  H
  C12      1.0000 0.33060  0.81690  0.10610  Biso   1.000  C
  H10      1.0000 0.27660  0.78950  0.12410  Biso   1.000  H
  C13      1.0000 0.32140  0.80840  0.99910  Biso   1.000  C
  H11      1.0000 0.26020  0.77790  0.94560  Biso   1.000  H
  C14      1.0000 0.40410  0.84560  0.97180  Biso   1.000  C
  C15      1.0000 0.49040  0.89200  0.05500  Biso   1.000  C
  H12      1.0000 0.54740  0.91820  0.04010  Biso   1.000  H
  C16      1.0000 0.49260  0.89970  0.15820  Biso   1.000  C
  H13      1.0000 0.55100  0.93180  0.21210  Biso   1.000  H
  C17      1.0000 0.40420  0.83710  0.85810  Biso   1.000  C
  H14      1.0000 0.48080  0.81740  0.86880  Biso   1.000  H
  H15      1.0000 0.34630  0.79630  0.81460  Biso   1.000  H
  C18      1.0000 0.37850  0.91270  0.79510  Biso   1.000  C
  H16      1.0000 0.43300  0.95460  0.84100  Biso   1.000  H
  H17      1.0000 0.29970  0.93030  0.78000  Biso   1.000  H
  C19      1.0000 0.38670  0.90640  0.68380  Biso   1.000  C
  C20      1.0000 0.29810  0.86950  0.59220  Biso   1.000  C
  H18      1.0000 0.23340  0.84730  0.59830  Biso   1.000  H
  C21      1.0000 0.30520  0.86550  0.49120  Biso   1.000  C
  H19      1.0000 0.24470  0.83990  0.43050  Biso   1.000  H
  C22      1.0000 0.48100  0.93400  0.56550  Biso   1.000  C
  H20      1.0000 0.54400  0.95700  0.55700  Biso   1.000  H
  C23      1.0000 0.47970  0.93960  0.66970  Biso   1.000  C
  H21      1.0000 0.54100  0.96550  0.72940  Biso   1.000  H
  C24      1.0000 0.48090  0.61770  0.67980  Biso   1.000  C
  H22      1.0000 0.39820  0.60140  0.63790  Biso   1.000  H
  C25      1.0000 0.48170  0.62680  0.87120  Biso   1.000  C
  C26      1.0000 0.52840  0.64750  0.98780  Biso   1.000  C
  C27      1.0000 0.62390  0.70070  0.03400  Biso   1.000  C
  H23      1.0000 0.66030  0.71920  0.99060  Biso   1.000  H
  C28      1.0000 0.66490  0.72620  0.14510  Biso   1.000  C
  H24      1.0000 0.72880  0.76180  0.17600  Biso   1.000  H
  C29      1.0000 0.61050  0.69860  0.21000  Biso   1.000  C
  H25      1.0000 0.63800  0.71560  0.28430  Biso   1.000  H
  C30      1.0000 0.51510  0.64540  0.16380  Biso   1.000  C
  H26      1.0000 0.47870  0.62690  0.20720  Biso   1.000  H
  C31      1.0000 0.47410  0.61990  0.05270  Biso   1.000  C
  H27      1.0000 0.41020  0.58430  0.02180  Biso   1.000  H
  H28      1.0000 0.39690  0.60430  0.64870  Biso   1.000  H
  Cu1      1.0000 0.41382  0.87630  0.33575  Biso   1.000  Cu
  N1       1.0000 0.49550  0.64590  0.78900  Biso   1.000  N
  H29      1.0000 0.54010  0.68740  0.81960  Biso   1.000  H
  N2       1.0000 0.39600  0.89710  0.47700  Biso   1.000  N
  N3       1.0000 0.41330  0.86260  0.18550  Biso   1.000  N
  N4       1.0000 0.52500  0.64950  0.79550  Biso   1.000  N
  H30      1.0000 0.58150  0.68460  0.81750  Biso   1.000  H
  O1       1.0000 0.49810  0.47820  0.63730  Biso   1.000  O
  O2       1.0000 0.66300  0.54380  0.75200  Biso   1.000  O
  O3       1.0000 0.38660  0.75990  0.35090  Biso   1.000  O
  O4       1.0000 0.57880  0.76730  0.45530  Biso   1.000  O
  O5       1.0000 0.35380  0.55680  0.78840  Biso   1.000  O
  O6       1.0000 0.39210  0.57750  0.83000  Biso   1.000  O
  C32      1.0000 0.51670  0.23290  0.57300  Biso   1.000  C
  C33      1.0000 0.52450  0.15730  0.50940  Biso   1.000  C
  H31      1.0000 0.46850  0.11620  0.50820  Biso   1.000  H
  H32      1.0000 0.60300  0.13390  0.54580  Biso   1.000  H
  C34      1.0000 0.49670  0.18360  0.38960  Biso   1.000  C
  H33      1.0000 0.41460  0.19980  0.35160  Biso   1.000  H
  H34      1.0000 0.54400  0.23130  0.39310  Biso   1.000  H
  C35      1.0000 0.44520  0.04080  0.30890  Biso   1.000  C
  C36      1.0000 0.56050  0.10760  0.15510  Biso   1.000  C
  C37      1.0000 0.52550  0.12990  0.04370  Biso   1.000  C
  C38      1.0000 0.59160  0.10120  0.99030  Biso   1.000  C
  H35      1.0000 0.65800  0.06910  0.02980  Biso   1.000  H
  C39      1.0000 0.55850  0.12050  0.87820  Biso   1.000  C
  H36      1.0000 0.60270  0.10130  0.84250  Biso   1.000  H
  C40      1.0000 0.45930  0.16850  0.81930  Biso   1.000  C
  H37      1.0000 0.43720  0.18140  0.74420  Biso   1.000  H
  C41      1.0000 0.39320  0.19710  0.87260  Biso   1.000  C
  H38      1.0000 0.32690  0.22920  0.83320  Biso   1.000  H
  C42      1.0000 0.42630  0.17790  0.98480  Biso   1.000  C
  H39      1.0000 0.38210  0.19700  0.02040  Biso   1.000  H
  C43      1.0000 0.66940  0.31690  0.89390  Biso   1.000  C
  H40      1.0000 0.72340  0.28950  0.87590  Biso   1.000  H
  C44      1.0000 0.67860  0.30840  0.00090  Biso   1.000  C
  H41      1.0000 0.73980  0.27790  0.05440  Biso   1.000  H
  C45      1.0000 0.59590  0.34560  0.02820  Biso   1.000  C
  C46      1.0000 0.50960  0.39200  0.94500  Biso   1.000  C
  H42      1.0000 0.45260  0.41820  0.95990  Biso   1.000  H
  C47      1.0000 0.50740  0.39970  0.84180  Biso   1.000  C
  H43      1.0000 0.44900  0.43180  0.78790  Biso   1.000  H
  C48      1.0000 0.59580  0.33710  0.14190  Biso   1.000  C
  H44      1.0000 0.51920  0.31740  0.13120  Biso   1.000  H
  H45      1.0000 0.65370  0.29630  0.18540  Biso   1.000  H
  C49      1.0000 0.62150  0.41270  0.20490  Biso   1.000  C
  H46      1.0000 0.56700  0.45460  0.15900  Biso   1.000  H
  H47      1.0000 0.70030  0.43030  0.22000  Biso   1.000  H
  C50      1.0000 0.61330  0.40640  0.31620  Biso   1.000  C
  C51      1.0000 0.70190  0.36950  0.40780  Biso   1.000  C
  H48      1.0000 0.76660  0.34730  0.40170  Biso   1.000  H
  C52      1.0000 0.69480  0.36550  0.50880  Biso   1.000  C
  H49      1.0000 0.75530  0.33990  0.56950  Biso   1.000  H
  C53      1.0000 0.51900  0.43400  0.43450  Biso   1.000  C
  H50      1.0000 0.45600  0.45700  0.44300  Biso   1.000  H
  C54      1.0000 0.52030  0.43960  0.33030  Biso   1.000  C
  H51      1.0000 0.45900  0.46550  0.27060  Biso   1.000  H
  C55      1.0000 0.51910  0.11770  0.32020  Biso   1.000  C
  H52      1.0000 0.60180  0.10140  0.36210  Biso   1.000  H
  C56      1.0000 0.51830  0.12680  0.12880  Biso   1.000  C
  C57      1.0000 0.47160  0.14750  0.01220  Biso   1.000  C
  C58      1.0000 0.37610  0.20070  0.96600  Biso   1.000  C
  H53      1.0000 0.33970  0.21920  0.00940  Biso   1.000  H
  C59      1.0000 0.33510  0.22620  0.85490  Biso   1.000  C
  H54      1.0000 0.27120  0.26180  0.82400  Biso   1.000  H
  C60      1.0000 0.38950  0.19860  0.79000  Biso   1.000  C
  H55      1.0000 0.36200  0.21560  0.71570  Biso   1.000  H
  C61      1.0000 0.48490  0.14540  0.83620  Biso   1.000  C
  H56      1.0000 0.52130  0.12690  0.79280  Biso   1.000  H
  C62      1.0000 0.52590  0.11990  0.94730  Biso   1.000  C
  H57      1.0000 0.58980  0.08430  0.97820  Biso   1.000  H
  H58      1.0000 0.60310  0.10430  0.35130  Biso   1.000  H
  Cu2      1.0000 0.58618  0.37630  0.66425  Biso   1.000  Cu
  N5       1.0000 0.50450  0.14590  0.21100  Biso   1.000  N
  H59      1.0000 0.45990  0.18740  0.18040  Biso   1.000  H
  N6       1.0000 0.60400  0.39710  0.52300  Biso   1.000  N
  N7       1.0000 0.58670  0.36260  0.81450  Biso   1.000  N
  N8       1.0000 0.47500  0.14950  0.20450  Biso   1.000  N
  H60      1.0000 0.41850  0.18460  0.18250  Biso   1.000  H
  O7       1.0000 0.50190  0.97820  0.36270  Biso   1.000  O
  O8       1.0000 0.33700  0.04380  0.24800  Biso   1.000  O
  O9       1.0000 0.61340  0.25990  0.64910  Biso   1.000  O
  O10      1.0000 0.42120  0.26730  0.54470  Biso   1.000  O
  O11      1.0000 0.64620  0.05680  0.21160  Biso   1.000  O
  O12      1.0000 0.60790  0.07750  0.17000  Biso   1.000  O
  C63      1.0000 0.99280  0.12750  0.05260  Biso   1.000  C
  C64      1.0000 0.94730  0.20030  0.97550  Biso   1.000  C
  H61      1.0000 0.97810  0.25030  0.01820  Biso   1.000  H
  H62      1.0000 0.86210  0.20200  0.94440  Biso   1.000  H
  C65      1.0000 0.98430  0.19590  0.87840  Biso   1.000  C
  H63      1.0000 0.06710  0.21000  0.90720  Biso   1.000  H
  H64      1.0000 0.97440  0.14020  0.85010  Biso   1.000  H
  C66      1.0000 0.91090  0.25460  0.78070  Biso   1.000  C
  H65      1.0000 0.82780  0.23870  0.74990  Biso   1.000  H
  C67      1.0000 0.92320  0.34470  0.81980  Biso   1.000  C
  C68      1.0000 0.89850  0.19900  0.60360  Biso   1.000  C
  C69      1.0000 0.92710  0.21080  0.50560  Biso   1.000  C
  C70      1.0000 0.01290  0.26570  0.50730  Biso   1.000  C
  H66      1.0000 0.05670  0.29640  0.57150  Biso   1.000  H
  C71      1.0000 0.03190  0.27380  0.41240  Biso   1.000  C
  H67      1.0000 0.08940  0.30980  0.41330  Biso   1.000  H
  C72      1.0000 0.96610  0.22910  0.31610  Biso   1.000  C
  H68      1.0000 0.97980  0.23510  0.25300  Biso   1.000  H
  C73      1.0000 0.88210  0.17660  0.31340  Biso   1.000  C
  H69      1.0000 0.83730  0.14740  0.24800  Biso   1.000  H
  C74      1.0000 0.86250  0.16610  0.40790  Biso   1.000  C
  H70      1.0000 0.80580  0.12890  0.40600  Biso   1.000  H
  C75      1.0000 0.79770  0.58420  0.61370  Biso   1.000  C
  H71      1.0000 0.74650  0.61470  0.63220  Biso   1.000  H
  C76      1.0000 0.79410  0.59460  0.50970  Biso   1.000  C
  H72      1.0000 0.74110  0.63150  0.45920  Biso   1.000  H
  C77      1.0000 0.86940  0.55000  0.47910  Biso   1.000  C
  C78      1.0000 0.95030  0.49930  0.55930  Biso   1.000  C
  H73      1.0000 0.00460  0.47010  0.54360  Biso   1.000  H
  C79      1.0000 0.94990  0.49230  0.66360  Biso   1.000  C
  H74      1.0000 0.00610  0.45880  0.71730  Biso   1.000  H
  C80      1.0000 0.85570  0.55640  0.35910  Biso   1.000  C
  H75      1.0000 0.77320  0.54930  0.30750  Biso   1.000  H
  H76      1.0000 0.87840  0.61120  0.34770  Biso   1.000  H
  C81      1.0000 0.92750  0.49470  0.32980  Biso   1.000  C
  H77      1.0000 0.01040  0.50710  0.37420  Biso   1.000  H
  H78      1.0000 0.91330  0.44060  0.35170  Biso   1.000  H
  C82      1.0000 0.90270  0.49200  0.20730  Biso   1.000  C
  C83      1.0000 0.80910  0.53180  0.12300  Biso   1.000  C
  H79      1.0000 0.75670  0.56210  0.14000  Biso   1.000  H
  C84      1.0000 0.79380  0.52640  0.01400  Biso   1.000  C
  H80      1.0000 0.72940  0.55310  0.95850  Biso   1.000  H
  C85      1.0000 0.95560  0.44450  0.06440  Biso   1.000  C
  H81      1.0000 0.00640  0.41430  0.04490  Biso   1.000  H
  C86      1.0000 0.97550  0.44560  0.17460  Biso   1.000  C
  H82      1.0000 0.03750  0.41550  0.22780  Biso   1.000  H
  Cu3      1.0000 0.86076  0.50545  0.83164  Biso   1.000  Cu
  N9       1.0000 0.94780  0.25200  0.69120  Biso   1.000  N
  H83      1.0000 0.00210  0.28490  0.69370  Biso   1.000  H
  N10      1.0000 0.87290  0.53120  0.69120  Biso   1.000  N
  N11      1.0000 0.86600  0.48500  0.98250  Biso   1.000  N
  O13      1.0000 0.82770  0.14620  0.60070  Biso   1.000  O
  O14      1.0000 0.82790  0.38730  0.78500  Biso   1.000  O
  O15      1.0000 0.02280  0.37160  0.87740  Biso   1.000  O
  O16      1.0000 0.10140  0.12230  0.11550  Biso   1.000  O
  O17      1.0000 0.92320  0.07360  0.05030  Biso   1.000  O
  C87      1.0000 0.00720  0.62750  0.94740  Biso   1.000  C
  C88      1.0000 0.05270  0.70030  0.02450  Biso   1.000  C
  H84      1.0000 0.02190  0.75030  0.98180  Biso   1.000  H
  H85      1.0000 0.13790  0.70200  0.05560  Biso   1.000  H
  C89      1.0000 0.01570  0.69590  0.12160  Biso   1.000  C
  H86      1.0000 0.93290  0.71000  0.09280  Biso   1.000  H
  H87      1.0000 0.02560  0.64020  0.14990  Biso   1.000  H
  C90      1.0000 0.08910  0.75460  0.21930  Biso   1.000  C
  H88      1.0000 0.17220  0.73870  0.25010  Biso   1.000  H
  C91      1.0000 0.07680  0.84470  0.18020  Biso   1.000  C
  C92      1.0000 0.10150  0.69900  0.39640  Biso   1.000  C
  C93      1.0000 0.07290  0.71080  0.49440  Biso   1.000  C
  C94      1.0000 0.98710  0.76570  0.49270  Biso   1.000  C
  H89      1.0000 0.94330  0.79640  0.42850  Biso   1.000  H
  C95      1.0000 0.96810  0.77380  0.58760  Biso   1.000  C
  H90      1.0000 0.91060  0.80980  0.58670  Biso   1.000  H
  C96      1.0000 0.03390  0.72910  0.68390  Biso   1.000  C
  H91      1.0000 0.02020  0.73510  0.74700  Biso   1.000  H
  C97      1.0000 0.11790  0.67660  0.68660  Biso   1.000  C
  H92      1.0000 0.16270  0.64740  0.75200  Biso   1.000  H
  C98      1.0000 0.13750  0.66610  0.59210  Biso   1.000  C
  H93      1.0000 0.19420  0.62890  0.59400  Biso   1.000  H
  C99      1.0000 0.20230  0.08420  0.38630  Biso   1.000  C
  H94      1.0000 0.25350  0.11470  0.36780  Biso   1.000  H
  C100     1.0000 0.20590  0.09460  0.49030  Biso   1.000  C
  H95      1.0000 0.25890  0.13150  0.54080  Biso   1.000  H
  C101     1.0000 0.13060  0.05000  0.52090  Biso   1.000  C
  C102     1.0000 0.04970  0.99930  0.44070  Biso   1.000  C
  H96      1.0000 0.99540  0.97010  0.45640  Biso   1.000  H
  C103     1.0000 0.05010  0.99230  0.33640  Biso   1.000  C
  H97      1.0000 0.99390  0.95880  0.28270  Biso   1.000  H
  C104     1.0000 0.14430  0.05640  0.64090  Biso   1.000  C
  H98      1.0000 0.22680  0.04930  0.69250  Biso   1.000  H
  H99      1.0000 0.12160  0.11120  0.65230  Biso   1.000  H
  C105     1.0000 0.07250  0.99470  0.67020  Biso   1.000  C
  H100     1.0000 0.98960  0.00710  0.62580  Biso   1.000  H
  H101     1.0000 0.08670  0.94060  0.64830  Biso   1.000  H
  C106     1.0000 0.09730  0.99200  0.79270  Biso   1.000  C
  C107     1.0000 0.19090  0.03180  0.87700  Biso   1.000  C
  H102     1.0000 0.24330  0.06210  0.86000  Biso   1.000  H
  C108     1.0000 0.20620  0.02640  0.98600  Biso   1.000  C
  H103     1.0000 0.27060  0.05310  0.04150  Biso   1.000  H
  C109     1.0000 0.04440  0.94450  0.93560  Biso   1.000  C
  H104     1.0000 0.99360  0.91430  0.95510  Biso   1.000  H
  C110     1.0000 0.02450  0.94560  0.82540  Biso   1.000  C
  H105     1.0000 0.96250  0.91550  0.77220  Biso   1.000  H
  Cu4      1.0000 0.13924  0.00545  0.16836  Biso   1.000  Cu
  N12      1.0000 0.05220  0.75200  0.30880  Biso   1.000  N
  H106     1.0000 0.99790  0.78490  0.30630  Biso   1.000  H
  N13      1.0000 0.12710  0.03120  0.30880  Biso   1.000  N
  N14      1.0000 0.13400  0.98500  0.01750  Biso   1.000  N
  O18      1.0000 0.17230  0.64620  0.39930  Biso   1.000  O
  O19      1.0000 0.17210  0.88730  0.21500  Biso   1.000  O
  O20      1.0000 0.97720  0.87160  0.12260  Biso   1.000  O
  O21      1.0000 0.89860  0.62230  0.88450  Biso   1.000  O
  O22      1.0000 0.07680  0.57360  0.94970  Biso   1.000  O
