data_image0
_cell_length_a       9.598
_cell_length_b       10.184
_cell_length_c       18.288
_cell_angle_alpha    102.759
_cell_angle_beta     96.644
_cell_angle_gamma    96.74

_symmetry_space_group_name_H-M    "P 1"
_symmetry_int_tables_number       1

loop_
  _symmetry_equiv_pos_as_xyz
  'x, y, z'

loop_
  _atom_site_label
  _atom_site_occupancy
  _atom_site_fract_x
  _atom_site_fract_y
  _atom_site_fract_z
  _atom_site_thermal_displace_type
  _atom_site_B_iso_or_equiv
  _atom_site_type_symbol
  C1       1.0000 0.23020  0.77880  0.91490  Biso   1.000  C
  C2       1.0000 0.72710  0.83080  0.95110  Biso   1.000  C
  C3       1.0000 0.91950  0.86600  0.05920  Biso   1.000  C
  H1       1.0000 0.84860  0.88540  0.09050  Biso   1.000  H
  C4       1.0000 0.88230  0.83090  0.98080  Biso   1.000  C
  C5       1.0000 0.98180  0.80200  0.93470  Biso   1.000  C
  H2       1.0000 0.95510  0.77620  0.88130  Biso   1.000  H
  C6       1.0000 0.12310  0.81010  0.96590  Biso   1.000  C
  C7       1.0000 0.16100  0.84460  0.04440  Biso   1.000  C
  H3       1.0000 0.25700  0.84900  0.06560  Biso   1.000  H
  C8       1.0000 0.05860  0.87300  0.09220  Biso   1.000  C
  C9       1.0000 0.09870  0.91100  0.17660  Biso   1.000  C
  C10      1.0000 0.17210  0.98700  0.33510  Biso   1.000  C
  C11      1.0000 0.21470  0.02850  0.41910  Biso   1.000  C
  C12      1.0000 0.30080  0.10950  0.57760  Biso   1.000  C
  C13      1.0000 0.34840  0.15350  0.66110  Biso   1.000  C
  C14      1.0000 0.00550  0.86950  0.22510  Biso   1.000  C
  H4       1.0000 0.91700  0.81450  0.20380  Biso   1.000  H
  C15      1.0000 0.04280  0.90840  0.30290  Biso   1.000  C
  H5       1.0000 0.97910  0.88100  0.33460  Biso   1.000  H
  C16      1.0000 0.25980  0.03430  0.28770  Biso   1.000  C
  H6       1.0000 0.34630  0.09300  0.30890  Biso   1.000  H
  C17      1.0000 0.22120  0.99630  0.21090  Biso   1.000  C
  H7       1.0000 0.28200  0.03060  0.17980  Biso   1.000  H
  C18      1.0000 0.17160  0.13990  0.46370  Biso   1.000  C
  H8       1.0000 0.11260  0.19280  0.44080  Biso   1.000  H
  C19      1.0000 0.21220  0.17460  0.53960  Biso   1.000  C
  H9       1.0000 0.17640  0.24960  0.56830  Biso   1.000  H
  C20      1.0000 0.34490  0.99600  0.53310  Biso   1.000  C
  H10      1.0000 0.40440  0.94480  0.55700  Biso   1.000  H
  C21      1.0000 0.30430  0.95550  0.45440  Biso   1.000  C
  H11      1.0000 0.33740  0.87900  0.42540  Biso   1.000  H
  C22      1.0000 0.01960  0.99080  0.22220  Biso   1.000  C
  H12      1.0000 0.93950  0.02140  0.19930  Biso   1.000  H
  C23      1.0000 0.05460  0.02680  0.30000  Biso   1.000  C
  H13      1.0000 0.99700  0.07970  0.32990  Biso   1.000  H
  C24      1.0000 0.25360  0.90520  0.28820  Biso   1.000  C
  H14      1.0000 0.33420  0.87530  0.31100  Biso   1.000  H
  C25      1.0000 0.21750  0.86790  0.20910  Biso   1.000  C
  H15      1.0000 0.27330  0.81420  0.17840  Biso   1.000  H
  C26      1.0000 0.17480  0.95280  0.46600  Biso   1.000  C
  H16      1.0000 0.11350  0.86920  0.44540  Biso   1.000  H
  C27      1.0000 0.21950  0.99140  0.54500  Biso   1.000  C
  H17      1.0000 0.19080  0.93180  0.57550  Biso   1.000  H
  C28      1.0000 0.34490  0.19600  0.53200  Biso   1.000  C
  H18      1.0000 0.40300  0.28090  0.55420  Biso   1.000  H
  C29      1.0000 0.30230  0.15570  0.45250  Biso   1.000  C
  H19      1.0000 0.33220  0.21370  0.42130  Biso   1.000  H
  C30      1.0000 0.36940  0.29080  0.69770  Biso   1.000  C
  H20      1.0000 0.35500  0.35670  0.66910  Biso   1.000  H
  C31      1.0000 0.41090  0.33220  0.77520  Biso   1.000  C
  C32      1.0000 0.43420  0.23850  0.81740  Biso   1.000  C
  H21      1.0000 0.46090  0.26720  0.87080  Biso   1.000  H
  C33      1.0000 0.41840  0.10150  0.78130  Biso   1.000  C
  C34      1.0000 0.37260  0.05950  0.70350  Biso   1.000  C
  H22      1.0000 0.35780  0.96520  0.67940  Biso   1.000  H
  C35      1.0000 0.43340  0.48390  0.81360  Biso   1.000  C
  C36      1.0000 0.45340  0.99770  0.82600  Biso   1.000  C
  O1       1.0000 0.19150  0.71990  0.84770  Biso   1.000  O
  O2       1.0000 0.36350  0.81010  0.94187  Biso   1.000  O
  O3       1.0000 0.68080  0.76780  0.88430  Biso   1.000  O
  O4       1.0000 0.66090  0.89610  0.99740  Biso   1.000  O
  O5       1.0000 0.43020  0.56670  0.77260  Biso   1.000  O
  O6       1.0000 0.45600  0.52040  0.88380  Biso   1.000  O
  O7       1.0000 0.43270  0.87520  0.79174  Biso   1.000  O
  O8       1.0000 0.50830  0.04400  0.89413  Biso   1.000  O
  Zn1      1.0000 0.46795  0.74118  0.85389  Biso   1.000  Zn
  C37      1.0000 0.76980  0.22120  0.08510  Biso   1.000  C
  C38      1.0000 0.27290  0.16920  0.04890  Biso   1.000  C
  C39      1.0000 0.08050  0.13400  0.94080  Biso   1.000  C
  H23      1.0000 0.15140  0.11460  0.90950  Biso   1.000  H
  C40      1.0000 0.11770  0.16910  0.01920  Biso   1.000  C
  C41      1.0000 0.01820  0.19800  0.06530  Biso   1.000  C
  H24      1.0000 0.04490  0.22380  0.11870  Biso   1.000  H
  C42      1.0000 0.87690  0.18990  0.03410  Biso   1.000  C
  C43      1.0000 0.83900  0.15540  0.95560  Biso   1.000  C
  H25      1.0000 0.74300  0.15100  0.93440  Biso   1.000  H
  C44      1.0000 0.94140  0.12700  0.90780  Biso   1.000  C
  C45      1.0000 0.90130  0.08900  0.82340  Biso   1.000  C
  C46      1.0000 0.82790  0.01300  0.66490  Biso   1.000  C
  C47      1.0000 0.78530  0.97150  0.58090  Biso   1.000  C
  C48      1.0000 0.69920  0.89050  0.42240  Biso   1.000  C
  C49      1.0000 0.65160  0.84650  0.33890  Biso   1.000  C
  C50      1.0000 0.99450  0.13050  0.77490  Biso   1.000  C
  H26      1.0000 0.08300  0.18550  0.79620  Biso   1.000  H
  C51      1.0000 0.95720  0.09160  0.69710  Biso   1.000  C
  H27      1.0000 0.02090  0.11900  0.66540  Biso   1.000  H
  C52      1.0000 0.74020  0.96570  0.71230  Biso   1.000  C
  H28      1.0000 0.65370  0.90700  0.69110  Biso   1.000  H
  C53      1.0000 0.77880  0.00370  0.78910  Biso   1.000  C
  H29      1.0000 0.71800  0.96940  0.82020  Biso   1.000  H
  C54      1.0000 0.82840  0.86010  0.53630  Biso   1.000  C
  H30      1.0000 0.88740  0.80720  0.55920  Biso   1.000  H
  C55      1.0000 0.78780  0.82540  0.46040  Biso   1.000  C
  H31      1.0000 0.82360  0.75040  0.43170  Biso   1.000  H
  C56      1.0000 0.65510  0.00400  0.46690  Biso   1.000  C
  H32      1.0000 0.59560  0.05520  0.44300  Biso   1.000  H
  C57      1.0000 0.69570  0.04450  0.54560  Biso   1.000  C
  H33      1.0000 0.66260  0.12100  0.57460  Biso   1.000  H
  C58      1.0000 0.98040  0.00920  0.77780  Biso   1.000  C
  H34      1.0000 0.06050  0.97860  0.80070  Biso   1.000  H
  C59      1.0000 0.94540  0.97320  0.70000  Biso   1.000  C
  H35      1.0000 0.00300  0.92030  0.67010  Biso   1.000  H
  C60      1.0000 0.74640  0.09480  0.71180  Biso   1.000  C
  H36      1.0000 0.66580  0.12470  0.68900  Biso   1.000  H
  C61      1.0000 0.78250  0.13210  0.79090  Biso   1.000  C
  H37      1.0000 0.72670  0.18580  0.82160  Biso   1.000  H
  C62      1.0000 0.82520  0.04720  0.53400  Biso   1.000  C
  H38      1.0000 0.88650  0.13080  0.55460  Biso   1.000  H
  C63      1.0000 0.78050  0.00860  0.45500  Biso   1.000  C
  H39      1.0000 0.80920  0.06820  0.42450  Biso   1.000  H
  C64      1.0000 0.65510  0.80400  0.46800  Biso   1.000  C
  H40      1.0000 0.59700  0.71910  0.44580  Biso   1.000  H
  C65      1.0000 0.69770  0.84430  0.54750  Biso   1.000  C
  H41      1.0000 0.66780  0.78630  0.57870  Biso   1.000  H
  C66      1.0000 0.63060  0.70920  0.30230  Biso   1.000  C
  H42      1.0000 0.64500  0.64330  0.33090  Biso   1.000  H
  C67      1.0000 0.58910  0.66780  0.22480  Biso   1.000  C
  C68      1.0000 0.56580  0.76150  0.18260  Biso   1.000  C
  H43      1.0000 0.53910  0.73280  0.12920  Biso   1.000  H
  C69      1.0000 0.58160  0.89850  0.21870  Biso   1.000  C
  C70      1.0000 0.62740  0.94050  0.29650  Biso   1.000  C
  H44      1.0000 0.64220  0.03480  0.32060  Biso   1.000  H
  C71      1.0000 0.56660  0.51610  0.18640  Biso   1.000  C
  C72      1.0000 0.54660  0.00230  0.17400  Biso   1.000  C
  O9       1.0000 0.80850  0.28010  0.15230  Biso   1.000  O
  O10      1.0000 0.63650  0.18990  0.05813  Biso   1.000  O
  O11      1.0000 0.31920  0.23220  0.11570  Biso   1.000  O
  O12      1.0000 0.33910  0.10390  0.00260  Biso   1.000  O
  O13      1.0000 0.56980  0.43330  0.22740  Biso   1.000  O
  O14      1.0000 0.54400  0.47960  0.11620  Biso   1.000  O
  O15      1.0000 0.56730  0.12480  0.20826  Biso   1.000  O
  O16      1.0000 0.49170  0.95600  0.10587  Biso   1.000  O
  Zn2      1.0000 0.53205  0.25882  0.14611  Biso   1.000  Zn
  Zn3      1.0000 0.50000  0.00000  0.00000  Biso   1.000  Zn
