data_image0
_cell_length_a       11.621
_cell_length_b       11.941
_cell_length_c       22.698
_cell_angle_alpha    90
_cell_angle_beta     94.33
_cell_angle_gamma    90

_symmetry_space_group_name_H-M    "P 1"
_symmetry_int_tables_number       1

loop_
  _symmetry_equiv_pos_as_xyz
  'x, y, z'

loop_
  _atom_site_label
  _atom_site_occupancy
  _atom_site_fract_x
  _atom_site_fract_y
  _atom_site_fract_z
  _atom_site_thermal_displace_type
  _atom_site_B_iso_or_equiv
  _atom_site_type_symbol
  Co1      1.0000 0.61570  0.97960  0.53470  Biso   1.000  Co
  Co2      1.0000 0.47240  0.72990  0.52170  Biso   1.000  Co
  Co3      1.0000 0.38460  0.50780  0.45710  Biso   1.000  Co
  O1       1.0000 0.71710  0.83930  0.55190  Biso   1.000  O
  O2       1.0000 0.65080  0.67160  0.52310  Biso   1.000  O
  O3       1.0000 0.28830  0.73980  0.52660  Biso   1.000  O
  O4       1.0000 0.23650  0.58080  0.47890  Biso   1.000  O
  O5       1.0000 0.69980  0.01610  0.45130  Biso   1.000  O
  H1       1.0000 0.71800  0.08220  0.45300  Biso   1.000  H
  O6       1.0000 0.48960  0.88610  0.48810  Biso   1.000  O
  H2       1.0000 0.52400  0.86300  0.46080  Biso   1.000  H
  O7       1.0000 0.45740  0.56300  0.54180  Biso   1.000  O
  H3       1.0000 0.42600  0.55600  0.57230  Biso   1.000  H
  O8       1.0000 0.45840  0.66700  0.42940  Biso   1.000  O
  O9       1.0000 0.59250  0.78390  0.40100  Biso   1.000  O
  O10      1.0000 0.53540  0.54060  0.11470  Biso   1.000  O
  O11      1.0000 0.48470  0.72180  0.11120  Biso   1.000  O
  N1       1.0000 0.30990  0.48030  0.37110  Biso   1.000  N
  N2       1.0000 0.28110  0.44340  0.27760  Biso   1.000  N
  N3       1.0000 0.19400  0.51350  0.28970  Biso   1.000  N
  N4       1.0000 0.93580  0.38850  0.10430  Biso   1.000  N
  N5       1.0000 0.87270  0.29880  0.11840  Biso   1.000  N
  N6       1.0000 0.75890  0.43160  0.07510  Biso   1.000  N
  C1       1.0000 0.73200  0.73890  0.53930  Biso   1.000  C
  C2       1.0000 0.85540  0.70260  0.53990  Biso   1.000  C
  C3       1.0000 0.89150  0.64960  0.49150  Biso   1.000  C
  H4       1.0000 0.83720  0.62210  0.46290  Biso   1.000  H
  C4       1.0000 0.00940  0.63600  0.48420  Biso   1.000  C
  H5       1.0000 0.03170  0.59800  0.45110  Biso   1.000  H
  C5       1.0000 0.09240  0.67690  0.52440  Biso   1.000  C
  C6       1.0000 0.05890  0.72670  0.57780  Biso   1.000  C
  C7       1.0000 0.13930  0.76250  0.62450  Biso   1.000  C
  H6       1.0000 0.21790  0.75740  0.61980  Biso   1.000  H
  C8       1.0000 0.10330  0.80420  0.67580  Biso   1.000  C
  H7       1.0000 0.15760  0.82630  0.70580  Biso   1.000  H
  C9       1.0000 0.98500  0.81410  0.68400  Biso   1.000  C
  H8       1.0000 0.96140  0.84320  0.71920  Biso   1.000  H
  C10      1.0000 0.90500  0.78100  0.64040  Biso   1.000  C
  H9       1.0000 0.82690  0.78720  0.64640  Biso   1.000  H
  C11      1.0000 0.93820  0.73760  0.58640  Biso   1.000  C
  C12      1.0000 0.21600  0.66560  0.50960  Biso   1.000  C
  C13      1.0000 0.52240  0.70740  0.39150  Biso   1.000  C
  C14      1.0000 0.51040  0.66800  0.32760  Biso   1.000  C
  C15      1.0000 0.42680  0.71480  0.28950  Biso   1.000  C
  H10      1.0000 0.36780  0.75630  0.30430  Biso   1.000  H
  C16      1.0000 0.42970  0.70040  0.22860  Biso   1.000  C
  H11      1.0000 0.37360  0.73500  0.20350  Biso   1.000  H
  C17      1.0000 0.51270  0.63680  0.20470  Biso   1.000  C
  C18      1.0000 0.59920  0.58290  0.24320  Biso   1.000  C
  C19      1.0000 0.69080  0.51920  0.22250  Biso   1.000  C
  H12      1.0000 0.69290  0.50620  0.18220  Biso   1.000  H
  C20      1.0000 0.77590  0.47670  0.26070  Biso   1.000  C
  H13      1.0000 0.83450  0.43410  0.24620  Biso   1.000  H
  C21      1.0000 0.77590  0.49630  0.32160  Biso   1.000  C
  H14      1.0000 0.83520  0.46820  0.34720  Biso   1.000  H
  C22      1.0000 0.68930  0.55640  0.34310  Biso   1.000  C
  H15      1.0000 0.68980  0.56860  0.38360  Biso   1.000  H
  C23      1.0000 0.59830  0.60080  0.30530  Biso   1.000  C
  C24      1.0000 0.51200  0.63270  0.13810  Biso   1.000  C
  C25      1.0000 0.21510  0.53340  0.34580  Biso   1.000  C
  H16      1.0000 0.16910  0.58020  0.36700  Biso   1.000  H
  C26      1.0000 0.34800  0.42420  0.32630  Biso   1.000  C
  H17      1.0000 0.41260  0.37800  0.32870  Biso   1.000  H
  C27      1.0000 0.29190  0.40330  0.21690  Biso   1.000  C
  H18      1.0000 0.28090  0.46600  0.18990  Biso   1.000  H
  H19      1.0000 0.36940  0.37480  0.21390  Biso   1.000  H
  C28      1.0000 0.21180  0.31870  0.19980  Biso   1.000  C
  H20      1.0000 0.21140  0.26510  0.23190  Biso   1.000  H
  H21      1.0000 0.23990  0.27970  0.16620  Biso   1.000  H
  C29      1.0000 0.09210  0.35210  0.18380  Biso   1.000  C
  H22      1.0000 0.07340  0.41390  0.20920  Biso   1.000  H
  H23      1.0000 0.04230  0.29000  0.19250  Biso   1.000  H
  C30      1.0000 0.06190  0.38850  0.11780  Biso   1.000  C
  H24      1.0000 0.09230  0.46290  0.11140  Biso   1.000  H
  H25      1.0000 0.09760  0.33710  0.09150  Biso   1.000  H
  C31      1.0000 0.86850  0.46590  0.07860  Biso   1.000  C
  H26      1.0000 0.89370  0.53440  0.06490  Biso   1.000  H
  C32      1.0000 0.76750  0.32880  0.09960  Biso   1.000  C
  H27      1.0000 0.70380  0.28260  0.10280  Biso   1.000  H
  Co4      1.0000 0.38430  0.97960  0.46530  Biso   1.000  Co
  Co5      1.0000 0.52760  0.72990  0.47830  Biso   1.000  Co
  Co6      1.0000 0.61540  0.50780  0.54290  Biso   1.000  Co
  O12      1.0000 0.28290  0.83930  0.44810  Biso   1.000  O
  O13      1.0000 0.34920  0.67160  0.47690  Biso   1.000  O
  O14      1.0000 0.71170  0.73980  0.47340  Biso   1.000  O
  O15      1.0000 0.76350  0.58080  0.52110  Biso   1.000  O
  O16      1.0000 0.30020  0.01610  0.54870  Biso   1.000  O
  H28      1.0000 0.28200  0.08220  0.54700  Biso   1.000  H
  O17      1.0000 0.51040  0.88610  0.51190  Biso   1.000  O
  H29      1.0000 0.47600  0.86300  0.53920  Biso   1.000  H
  O18      1.0000 0.54260  0.56300  0.45820  Biso   1.000  O
  H30      1.0000 0.57400  0.55600  0.42770  Biso   1.000  H
  O19      1.0000 0.54160  0.66700  0.57060  Biso   1.000  O
  O20      1.0000 0.40750  0.78390  0.59900  Biso   1.000  O
  O21      1.0000 0.46460  0.54060  0.88530  Biso   1.000  O
  O22      1.0000 0.51530  0.72180  0.88880  Biso   1.000  O
  N7       1.0000 0.69010  0.48030  0.62890  Biso   1.000  N
  N8       1.0000 0.71890  0.44340  0.72240  Biso   1.000  N
  N9       1.0000 0.80600  0.51350  0.71030  Biso   1.000  N
  N10      1.0000 0.06420  0.38850  0.89570  Biso   1.000  N
  N11      1.0000 0.12730  0.29880  0.88160  Biso   1.000  N
  N12      1.0000 0.24110  0.43160  0.92490  Biso   1.000  N
  C33      1.0000 0.26800  0.73890  0.46070  Biso   1.000  C
  C34      1.0000 0.14460  0.70260  0.46010  Biso   1.000  C
  C35      1.0000 0.10850  0.64960  0.50850  Biso   1.000  C
  H31      1.0000 0.16280  0.62210  0.53710  Biso   1.000  H
  C36      1.0000 0.99060  0.63600  0.51580  Biso   1.000  C
  H32      1.0000 0.96830  0.59800  0.54890  Biso   1.000  H
  C37      1.0000 0.90760  0.67690  0.47560  Biso   1.000  C
  C38      1.0000 0.94110  0.72670  0.42220  Biso   1.000  C
  C39      1.0000 0.86070  0.76250  0.37550  Biso   1.000  C
  H33      1.0000 0.78210  0.75740  0.38020  Biso   1.000  H
  C40      1.0000 0.89670  0.80420  0.32420  Biso   1.000  C
  H34      1.0000 0.84240  0.82630  0.29420  Biso   1.000  H
  C41      1.0000 0.01500  0.81410  0.31600  Biso   1.000  C
  H35      1.0000 0.03860  0.84320  0.28080  Biso   1.000  H
  C42      1.0000 0.09500  0.78100  0.35960  Biso   1.000  C
  H36      1.0000 0.17310  0.78720  0.35360  Biso   1.000  H
  C43      1.0000 0.06180  0.73760  0.41360  Biso   1.000  C
  C44      1.0000 0.78400  0.66560  0.49040  Biso   1.000  C
  C45      1.0000 0.47760  0.70740  0.60850  Biso   1.000  C
  C46      1.0000 0.48960  0.66800  0.67240  Biso   1.000  C
  C47      1.0000 0.57320  0.71480  0.71050  Biso   1.000  C
  H37      1.0000 0.63220  0.75630  0.69570  Biso   1.000  H
  C48      1.0000 0.57030  0.70040  0.77140  Biso   1.000  C
  H38      1.0000 0.62640  0.73500  0.79650  Biso   1.000  H
  C49      1.0000 0.48730  0.63680  0.79530  Biso   1.000  C
  C50      1.0000 0.40080  0.58290  0.75680  Biso   1.000  C
  C51      1.0000 0.30920  0.51920  0.77750  Biso   1.000  C
  H39      1.0000 0.30710  0.50620  0.81780  Biso   1.000  H
  C52      1.0000 0.22410  0.47670  0.73930  Biso   1.000  C
  H40      1.0000 0.16550  0.43410  0.75380  Biso   1.000  H
  C53      1.0000 0.22410  0.49630  0.67840  Biso   1.000  C
  H41      1.0000 0.16480  0.46820  0.65280  Biso   1.000  H
  C54      1.0000 0.31070  0.55640  0.65690  Biso   1.000  C
  H42      1.0000 0.31020  0.56860  0.61640  Biso   1.000  H
  C55      1.0000 0.40170  0.60080  0.69470  Biso   1.000  C
  C56      1.0000 0.48800  0.63270  0.86190  Biso   1.000  C
  C57      1.0000 0.78490  0.53340  0.65420  Biso   1.000  C
  H43      1.0000 0.83090  0.58020  0.63300  Biso   1.000  H
  C58      1.0000 0.65200  0.42420  0.67370  Biso   1.000  C
  H44      1.0000 0.58740  0.37800  0.67130  Biso   1.000  H
  C59      1.0000 0.70810  0.40330  0.78310  Biso   1.000  C
  H45      1.0000 0.71910  0.46600  0.81010  Biso   1.000  H
  H46      1.0000 0.63060  0.37480  0.78610  Biso   1.000  H
  C60      1.0000 0.78820  0.31870  0.80020  Biso   1.000  C
  H47      1.0000 0.78860  0.26510  0.76810  Biso   1.000  H
  H48      1.0000 0.76010  0.27970  0.83380  Biso   1.000  H
  C61      1.0000 0.90790  0.35210  0.81620  Biso   1.000  C
  H49      1.0000 0.92660  0.41390  0.79080  Biso   1.000  H
  H50      1.0000 0.95770  0.29000  0.80750  Biso   1.000  H
  C62      1.0000 0.93810  0.38850  0.88220  Biso   1.000  C
  H51      1.0000 0.90770  0.46290  0.88860  Biso   1.000  H
  H52      1.0000 0.90240  0.33710  0.90850  Biso   1.000  H
  C63      1.0000 0.13150  0.46590  0.92140  Biso   1.000  C
  H53      1.0000 0.10630  0.53440  0.93510  Biso   1.000  H
  C64      1.0000 0.23250  0.32880  0.90040  Biso   1.000  C
  H54      1.0000 0.29620  0.28260  0.89720  Biso   1.000  H
  Co7      1.0000 0.38430  0.02040  0.46530  Biso   1.000  Co
  Co8      1.0000 0.52760  0.27010  0.47830  Biso   1.000  Co
  Co9      1.0000 0.61540  0.49220  0.54290  Biso   1.000  Co
  O23      1.0000 0.28290  0.16070  0.44810  Biso   1.000  O
  O24      1.0000 0.34920  0.32840  0.47690  Biso   1.000  O
  O25      1.0000 0.71170  0.26020  0.47340  Biso   1.000  O
  O26      1.0000 0.76350  0.41920  0.52110  Biso   1.000  O
  O27      1.0000 0.30020  0.98390  0.54870  Biso   1.000  O
  H55      1.0000 0.28200  0.91780  0.54700  Biso   1.000  H
  O28      1.0000 0.51040  0.11390  0.51190  Biso   1.000  O
  H56      1.0000 0.47600  0.13700  0.53920  Biso   1.000  H
  O29      1.0000 0.54260  0.43700  0.45820  Biso   1.000  O
  H57      1.0000 0.57400  0.44400  0.42770  Biso   1.000  H
  O30      1.0000 0.54160  0.33300  0.57060  Biso   1.000  O
  O31      1.0000 0.40750  0.21610  0.59900  Biso   1.000  O
  O32      1.0000 0.46460  0.45940  0.88530  Biso   1.000  O
  O33      1.0000 0.51530  0.27820  0.88880  Biso   1.000  O
  N13      1.0000 0.69010  0.51970  0.62890  Biso   1.000  N
  N14      1.0000 0.71890  0.55660  0.72240  Biso   1.000  N
  N15      1.0000 0.80600  0.48650  0.71030  Biso   1.000  N
  N16      1.0000 0.06420  0.61150  0.89570  Biso   1.000  N
  N17      1.0000 0.12730  0.70120  0.88160  Biso   1.000  N
  N18      1.0000 0.24110  0.56840  0.92490  Biso   1.000  N
  C65      1.0000 0.26800  0.26110  0.46070  Biso   1.000  C
  C66      1.0000 0.14460  0.29740  0.46010  Biso   1.000  C
  C67      1.0000 0.10850  0.35040  0.50850  Biso   1.000  C
  H58      1.0000 0.16280  0.37790  0.53710  Biso   1.000  H
  C68      1.0000 0.99060  0.36400  0.51580  Biso   1.000  C
  H59      1.0000 0.96830  0.40200  0.54890  Biso   1.000  H
  C69      1.0000 0.90760  0.32310  0.47560  Biso   1.000  C
  C70      1.0000 0.94110  0.27330  0.42220  Biso   1.000  C
  C71      1.0000 0.86070  0.23750  0.37550  Biso   1.000  C
  H60      1.0000 0.78210  0.24260  0.38020  Biso   1.000  H
  C72      1.0000 0.89670  0.19580  0.32420  Biso   1.000  C
  H61      1.0000 0.84240  0.17370  0.29420  Biso   1.000  H
  C73      1.0000 0.01500  0.18590  0.31600  Biso   1.000  C
  H62      1.0000 0.03860  0.15680  0.28080  Biso   1.000  H
  C74      1.0000 0.09500  0.21900  0.35960  Biso   1.000  C
  H63      1.0000 0.17310  0.21280  0.35360  Biso   1.000  H
  C75      1.0000 0.06180  0.26240  0.41360  Biso   1.000  C
  C76      1.0000 0.78400  0.33440  0.49040  Biso   1.000  C
  C77      1.0000 0.47760  0.29260  0.60850  Biso   1.000  C
  C78      1.0000 0.48960  0.33200  0.67240  Biso   1.000  C
  C79      1.0000 0.57320  0.28520  0.71050  Biso   1.000  C
  H64      1.0000 0.63220  0.24370  0.69570  Biso   1.000  H
  C80      1.0000 0.57030  0.29960  0.77140  Biso   1.000  C
  H65      1.0000 0.62640  0.26500  0.79650  Biso   1.000  H
  C81      1.0000 0.48730  0.36320  0.79530  Biso   1.000  C
  C82      1.0000 0.40080  0.41710  0.75680  Biso   1.000  C
  C83      1.0000 0.30920  0.48080  0.77750  Biso   1.000  C
  H66      1.0000 0.30710  0.49380  0.81780  Biso   1.000  H
  C84      1.0000 0.22410  0.52330  0.73930  Biso   1.000  C
  H67      1.0000 0.16550  0.56590  0.75380  Biso   1.000  H
  C85      1.0000 0.22410  0.50370  0.67840  Biso   1.000  C
  H68      1.0000 0.16480  0.53180  0.65280  Biso   1.000  H
  C86      1.0000 0.31070  0.44360  0.65690  Biso   1.000  C
  H69      1.0000 0.31020  0.43140  0.61640  Biso   1.000  H
  C87      1.0000 0.40170  0.39920  0.69470  Biso   1.000  C
  C88      1.0000 0.48800  0.36730  0.86190  Biso   1.000  C
  C89      1.0000 0.78490  0.46660  0.65420  Biso   1.000  C
  H70      1.0000 0.83090  0.41980  0.63300  Biso   1.000  H
  C90      1.0000 0.65200  0.57580  0.67370  Biso   1.000  C
  H71      1.0000 0.58740  0.62200  0.67130  Biso   1.000  H
  C91      1.0000 0.70810  0.59670  0.78310  Biso   1.000  C
  H72      1.0000 0.71910  0.53400  0.81010  Biso   1.000  H
  H73      1.0000 0.63060  0.62520  0.78610  Biso   1.000  H
  C92      1.0000 0.78820  0.68130  0.80020  Biso   1.000  C
  H74      1.0000 0.78860  0.73490  0.76810  Biso   1.000  H
  H75      1.0000 0.76010  0.72030  0.83380  Biso   1.000  H
  C93      1.0000 0.90790  0.64790  0.81620  Biso   1.000  C
  H76      1.0000 0.92660  0.58610  0.79080  Biso   1.000  H
  H77      1.0000 0.95770  0.71000  0.80750  Biso   1.000  H
  C94      1.0000 0.93810  0.61150  0.88220  Biso   1.000  C
  H78      1.0000 0.90770  0.53710  0.88860  Biso   1.000  H
  H79      1.0000 0.90240  0.66290  0.90850  Biso   1.000  H
  C95      1.0000 0.13150  0.53410  0.92140  Biso   1.000  C
  H80      1.0000 0.10630  0.46560  0.93510  Biso   1.000  H
  C96      1.0000 0.23250  0.67120  0.90040  Biso   1.000  C
  H81      1.0000 0.29620  0.71740  0.89720  Biso   1.000  H
  Co10     1.0000 0.61570  0.02040  0.53470  Biso   1.000  Co
  Co11     1.0000 0.47240  0.27010  0.52170  Biso   1.000  Co
  Co12     1.0000 0.38460  0.49220  0.45710  Biso   1.000  Co
  O34      1.0000 0.71710  0.16070  0.55190  Biso   1.000  O
  O35      1.0000 0.65080  0.32840  0.52310  Biso   1.000  O
  O36      1.0000 0.28830  0.26020  0.52660  Biso   1.000  O
  O37      1.0000 0.23650  0.41920  0.47890  Biso   1.000  O
  O38      1.0000 0.69980  0.98390  0.45130  Biso   1.000  O
  H82      1.0000 0.71800  0.91780  0.45300  Biso   1.000  H
  O39      1.0000 0.48960  0.11390  0.48810  Biso   1.000  O
  H83      1.0000 0.52400  0.13700  0.46080  Biso   1.000  H
  O40      1.0000 0.45740  0.43700  0.54180  Biso   1.000  O
  H84      1.0000 0.42600  0.44400  0.57230  Biso   1.000  H
  O41      1.0000 0.45840  0.33300  0.42940  Biso   1.000  O
  O42      1.0000 0.59250  0.21610  0.40100  Biso   1.000  O
  O43      1.0000 0.53540  0.45940  0.11470  Biso   1.000  O
  O44      1.0000 0.48470  0.27820  0.11120  Biso   1.000  O
  N19      1.0000 0.30990  0.51970  0.37110  Biso   1.000  N
  N20      1.0000 0.28110  0.55660  0.27760  Biso   1.000  N
  N21      1.0000 0.19400  0.48650  0.28970  Biso   1.000  N
  N22      1.0000 0.93580  0.61150  0.10430  Biso   1.000  N
  N23      1.0000 0.87270  0.70120  0.11840  Biso   1.000  N
  N24      1.0000 0.75890  0.56840  0.07510  Biso   1.000  N
  C97      1.0000 0.73200  0.26110  0.53930  Biso   1.000  C
  C98      1.0000 0.85540  0.29740  0.53990  Biso   1.000  C
  C99      1.0000 0.89150  0.35040  0.49150  Biso   1.000  C
  H85      1.0000 0.83720  0.37790  0.46290  Biso   1.000  H
  C100     1.0000 0.00940  0.36400  0.48420  Biso   1.000  C
  H86      1.0000 0.03170  0.40200  0.45110  Biso   1.000  H
  C101     1.0000 0.09240  0.32310  0.52440  Biso   1.000  C
  C102     1.0000 0.05890  0.27330  0.57780  Biso   1.000  C
  C103     1.0000 0.13930  0.23750  0.62450  Biso   1.000  C
  H87      1.0000 0.21790  0.24260  0.61980  Biso   1.000  H
  C104     1.0000 0.10330  0.19580  0.67580  Biso   1.000  C
  H88      1.0000 0.15760  0.17370  0.70580  Biso   1.000  H
  C105     1.0000 0.98500  0.18590  0.68400  Biso   1.000  C
  H89      1.0000 0.96140  0.15680  0.71920  Biso   1.000  H
  C106     1.0000 0.90500  0.21900  0.64040  Biso   1.000  C
  H90      1.0000 0.82690  0.21280  0.64640  Biso   1.000  H
  C107     1.0000 0.93820  0.26240  0.58640  Biso   1.000  C
  C108     1.0000 0.21600  0.33440  0.50960  Biso   1.000  C
  C109     1.0000 0.52240  0.29260  0.39150  Biso   1.000  C
  C110     1.0000 0.51040  0.33200  0.32760  Biso   1.000  C
  C111     1.0000 0.42680  0.28520  0.28950  Biso   1.000  C
  H91      1.0000 0.36780  0.24370  0.30430  Biso   1.000  H
  C112     1.0000 0.42970  0.29960  0.22860  Biso   1.000  C
  H92      1.0000 0.37360  0.26500  0.20350  Biso   1.000  H
  C113     1.0000 0.51270  0.36320  0.20470  Biso   1.000  C
  C114     1.0000 0.59920  0.41710  0.24320  Biso   1.000  C
  C115     1.0000 0.69080  0.48080  0.22250  Biso   1.000  C
  H93      1.0000 0.69290  0.49380  0.18220  Biso   1.000  H
  C116     1.0000 0.77590  0.52330  0.26070  Biso   1.000  C
  H94      1.0000 0.83450  0.56590  0.24620  Biso   1.000  H
  C117     1.0000 0.77590  0.50370  0.32160  Biso   1.000  C
  H95      1.0000 0.83520  0.53180  0.34720  Biso   1.000  H
  C118     1.0000 0.68930  0.44360  0.34310  Biso   1.000  C
  H96      1.0000 0.68980  0.43140  0.38360  Biso   1.000  H
  C119     1.0000 0.59830  0.39920  0.30530  Biso   1.000  C
  C120     1.0000 0.51200  0.36730  0.13810  Biso   1.000  C
  C121     1.0000 0.21510  0.46660  0.34580  Biso   1.000  C
  H97      1.0000 0.16910  0.41980  0.36700  Biso   1.000  H
  C122     1.0000 0.34800  0.57580  0.32630  Biso   1.000  C
  H98      1.0000 0.41260  0.62200  0.32870  Biso   1.000  H
  C123     1.0000 0.29190  0.59670  0.21690  Biso   1.000  C
  H99      1.0000 0.28090  0.53400  0.18990  Biso   1.000  H
  H100     1.0000 0.36940  0.62520  0.21390  Biso   1.000  H
  C124     1.0000 0.21180  0.68130  0.19980  Biso   1.000  C
  H101     1.0000 0.21140  0.73490  0.23190  Biso   1.000  H
  H102     1.0000 0.23990  0.72030  0.16620  Biso   1.000  H
  C125     1.0000 0.09210  0.64790  0.18380  Biso   1.000  C
  H103     1.0000 0.07340  0.58610  0.20920  Biso   1.000  H
  H104     1.0000 0.04230  0.71000  0.19250  Biso   1.000  H
  C126     1.0000 0.06190  0.61150  0.11780  Biso   1.000  C
  H105     1.0000 0.09230  0.53710  0.11140  Biso   1.000  H
  H106     1.0000 0.09760  0.66290  0.09150  Biso   1.000  H
  C127     1.0000 0.86850  0.53410  0.07860  Biso   1.000  C
  H107     1.0000 0.89370  0.46560  0.06490  Biso   1.000  H
  C128     1.0000 0.76750  0.67120  0.09960  Biso   1.000  C
  H108     1.0000 0.70380  0.71740  0.10280  Biso   1.000  H
  H109     1.0000 0.65100  0.00000  0.42530  Biso   1.000  H
  H110     1.0000 0.34900  0.00000  0.57470  Biso   1.000  H
