data_image0
_cell_length_a       18.508
_cell_length_b       18.508
_cell_length_c       38.802
_cell_angle_alpha    90
_cell_angle_beta     90
_cell_angle_gamma    120

_symmetry_space_group_name_H-M    "P 1"
_symmetry_int_tables_number       1

loop_
  _symmetry_equiv_pos_as_xyz
  'x, y, z'

loop_
  _atom_site_label
  _atom_site_occupancy
  _atom_site_fract_x
  _atom_site_fract_y
  _atom_site_fract_z
  _atom_site_thermal_displace_type
  _atom_site_B_iso_or_equiv
  _atom_site_type_symbol
  O1       1.0000 0.78930  0.76070  0.61920  Biso   1.000  O
  C1       1.0000 0.81710  0.72770  0.67810  Biso   1.000  C
  O2       1.0000 0.77660  0.81480  0.83612  Biso   1.000  O
  O3       1.0000 0.69570  0.77460  0.78850  Biso   1.000  O
  C2       1.0000 0.80300  0.70160  0.64310  Biso   1.000  C
  C3       1.0000 0.81780  0.76390  0.78853  Biso   1.000  C
  C4       1.0000 0.75840  0.78500  0.80578  Biso   1.000  C
  C5       1.0000 0.80280  0.73460  0.75522  Biso   1.000  C
  H1       1.0000 0.75420  0.72490  0.74410  Biso   1.000  H
  O4       1.0000 0.45597  0.09403  0.95253  Biso   1.000  O
  C6       1.0000 0.48377  0.06103  0.01143  Biso   1.000  C
  O5       1.0000 0.44327  0.14813  0.16945  Biso   1.000  O
  O6       1.0000 0.36237  0.10793  0.12183  Biso   1.000  O
  C7       1.0000 0.46967  0.03493  0.97643  Biso   1.000  C
  C8       1.0000 0.48447  0.09723  0.12186  Biso   1.000  C
  C9       1.0000 0.42507  0.11833  0.13911  Biso   1.000  C
  C10      1.0000 0.46947  0.06793  0.08855  Biso   1.000  C
  H2       1.0000 0.42087  0.05823  0.07743  Biso   1.000  H
  O7       1.0000 0.12263  0.42737  0.28587  Biso   1.000  O
  C11      1.0000 0.15043  0.39437  0.34477  Biso   1.000  C
  O8       1.0000 0.10993  0.48147  0.50279  Biso   1.000  O
  O9       1.0000 0.02903  0.44127  0.45517  Biso   1.000  O
  C12      1.0000 0.13633  0.36827  0.30977  Biso   1.000  C
  C13      1.0000 0.15113  0.43057  0.45520  Biso   1.000  C
  C14      1.0000 0.09173  0.45167  0.47245  Biso   1.000  C
  C15      1.0000 0.13613  0.40127  0.42189  Biso   1.000  C
  H3       1.0000 0.08753  0.39157  0.41077  Biso   1.000  H
  O10      1.0000 0.23930  0.02860  0.61920  Biso   1.000  O
  C16      1.0000 0.27230  0.08940  0.67810  Biso   1.000  C
  O11      1.0000 0.18520  0.96180  0.83612  Biso   1.000  O
  O12      1.0000 0.22540  0.92110  0.78850  Biso   1.000  O
  C17      1.0000 0.29840  0.10140  0.64310  Biso   1.000  C
  C18      1.0000 0.23610  0.05390  0.78853  Biso   1.000  C
  C19      1.0000 0.21500  0.97340  0.80578  Biso   1.000  C
  C20      1.0000 0.26540  0.06820  0.75522  Biso   1.000  C
  H4       1.0000 0.27510  0.02930  0.74410  Biso   1.000  H
  O13      1.0000 0.90597  0.36193  0.95253  Biso   1.000  O
  C21      1.0000 0.93897  0.42273  0.01143  Biso   1.000  C
  O14      1.0000 0.85187  0.29513  0.16945  Biso   1.000  O
  O15      1.0000 0.89207  0.25443  0.12183  Biso   1.000  O
  C22      1.0000 0.96507  0.43473  0.97643  Biso   1.000  C
  C23      1.0000 0.90277  0.38723  0.12186  Biso   1.000  C
  C24      1.0000 0.88167  0.30673  0.13911  Biso   1.000  C
  C25      1.0000 0.93207  0.40153  0.08855  Biso   1.000  C
  H5       1.0000 0.94177  0.36263  0.07743  Biso   1.000  H
  O16      1.0000 0.57263  0.69527  0.28587  Biso   1.000  O
  C26      1.0000 0.60563  0.75607  0.34477  Biso   1.000  C
  O17      1.0000 0.51853  0.62847  0.50279  Biso   1.000  O
  O18      1.0000 0.55873  0.58777  0.45517  Biso   1.000  O
  C27      1.0000 0.63173  0.76807  0.30977  Biso   1.000  C
  C28      1.0000 0.56943  0.72057  0.45520  Biso   1.000  C
  C29      1.0000 0.54833  0.64007  0.47245  Biso   1.000  C
  C30      1.0000 0.59873  0.73487  0.42189  Biso   1.000  C
  H6       1.0000 0.60843  0.69597  0.41077  Biso   1.000  H
  O19      1.0000 0.97140  0.21070  0.61920  Biso   1.000  O
  C31      1.0000 0.91060  0.18290  0.67810  Biso   1.000  C
  O20      1.0000 0.03820  0.22340  0.83612  Biso   1.000  O
  O21      1.0000 0.07890  0.30430  0.78850  Biso   1.000  O
  C32      1.0000 0.89860  0.19700  0.64310  Biso   1.000  C
  C33      1.0000 0.94610  0.18220  0.78853  Biso   1.000  C
  C34      1.0000 0.02660  0.24160  0.80578  Biso   1.000  C
  C35      1.0000 0.93180  0.19720  0.75522  Biso   1.000  C
  H7       1.0000 0.97070  0.24580  0.74410  Biso   1.000  H
  O22      1.0000 0.63807  0.54403  0.95253  Biso   1.000  O
  C36      1.0000 0.57727  0.51623  0.01143  Biso   1.000  C
  O23      1.0000 0.70487  0.55673  0.16945  Biso   1.000  O
  O24      1.0000 0.74557  0.63763  0.12183  Biso   1.000  O
  C37      1.0000 0.56527  0.53033  0.97643  Biso   1.000  C
  C38      1.0000 0.61277  0.51553  0.12186  Biso   1.000  C
  C39      1.0000 0.69327  0.57493  0.13911  Biso   1.000  C
  C40      1.0000 0.59847  0.53053  0.08855  Biso   1.000  C
  H8       1.0000 0.63737  0.57913  0.07743  Biso   1.000  H
  O25      1.0000 0.30473  0.87737  0.28587  Biso   1.000  O
  C41      1.0000 0.24393  0.84957  0.34477  Biso   1.000  C
  O26      1.0000 0.37153  0.89007  0.50279  Biso   1.000  O
  O27      1.0000 0.41223  0.97097  0.45517  Biso   1.000  O
  C42      1.0000 0.23193  0.86367  0.30977  Biso   1.000  C
  C43      1.0000 0.27943  0.84887  0.45520  Biso   1.000  C
  C44      1.0000 0.35993  0.90827  0.47245  Biso   1.000  C
  C45      1.0000 0.26513  0.86387  0.42189  Biso   1.000  C
  H9       1.0000 0.30403  0.91247  0.41077  Biso   1.000  H
  O28      1.0000 0.76070  0.78930  0.38080  Biso   1.000  O
  C46      1.0000 0.72770  0.81710  0.32190  Biso   1.000  C
  O29      1.0000 0.81480  0.77660  0.16388  Biso   1.000  O
  O30      1.0000 0.77460  0.69570  0.21150  Biso   1.000  O
  C47      1.0000 0.70160  0.80300  0.35690  Biso   1.000  C
  C48      1.0000 0.76390  0.81780  0.21147  Biso   1.000  C
  C49      1.0000 0.78500  0.75840  0.19422  Biso   1.000  C
  C50      1.0000 0.73460  0.80280  0.24478  Biso   1.000  C
  H10      1.0000 0.72490  0.75420  0.25590  Biso   1.000  H
  O31      1.0000 0.42737  0.12263  0.71413  Biso   1.000  O
  C51      1.0000 0.39437  0.15043  0.65523  Biso   1.000  C
  O32      1.0000 0.48147  0.10993  0.49721  Biso   1.000  O
  O33      1.0000 0.44127  0.02903  0.54483  Biso   1.000  O
  C52      1.0000 0.36827  0.13633  0.69023  Biso   1.000  C
  C53      1.0000 0.43057  0.15113  0.54480  Biso   1.000  C
  C54      1.0000 0.45167  0.09173  0.52755  Biso   1.000  C
  C55      1.0000 0.40127  0.13613  0.57811  Biso   1.000  C
  H11      1.0000 0.39157  0.08753  0.58923  Biso   1.000  H
  O34      1.0000 0.09403  0.45597  0.04747  Biso   1.000  O
  C56      1.0000 0.06103  0.48377  0.98857  Biso   1.000  C
  O35      1.0000 0.14813  0.44327  0.83055  Biso   1.000  O
  O36      1.0000 0.10793  0.36237  0.87817  Biso   1.000  O
  C57      1.0000 0.03493  0.46967  0.02357  Biso   1.000  C
  C58      1.0000 0.09723  0.48447  0.87814  Biso   1.000  C
  C59      1.0000 0.11833  0.42507  0.86089  Biso   1.000  C
  C60      1.0000 0.06793  0.46947  0.91145  Biso   1.000  C
  H12      1.0000 0.05823  0.42087  0.92257  Biso   1.000  H
  O37      1.0000 0.02860  0.23930  0.38080  Biso   1.000  O
  C61      1.0000 0.08940  0.27230  0.32190  Biso   1.000  C
  O38      1.0000 0.96180  0.18520  0.16388  Biso   1.000  O
  O39      1.0000 0.92110  0.22540  0.21150  Biso   1.000  O
  C62      1.0000 0.10140  0.29840  0.35690  Biso   1.000  C
  C63      1.0000 0.05390  0.23610  0.21147  Biso   1.000  C
  C64      1.0000 0.97340  0.21500  0.19422  Biso   1.000  C
  C65      1.0000 0.06820  0.26540  0.24478  Biso   1.000  C
  H13      1.0000 0.02930  0.27510  0.25590  Biso   1.000  H
  O40      1.0000 0.69527  0.57263  0.71413  Biso   1.000  O
  C66      1.0000 0.75607  0.60563  0.65523  Biso   1.000  C
  O41      1.0000 0.62847  0.51853  0.49721  Biso   1.000  O
  O42      1.0000 0.58777  0.55873  0.54483  Biso   1.000  O
  C67      1.0000 0.76807  0.63173  0.69023  Biso   1.000  C
  C68      1.0000 0.72057  0.56943  0.54480  Biso   1.000  C
  C69      1.0000 0.64007  0.54833  0.52755  Biso   1.000  C
  C70      1.0000 0.73487  0.59873  0.57811  Biso   1.000  C
  H14      1.0000 0.69597  0.60843  0.58923  Biso   1.000  H
  O43      1.0000 0.36193  0.90597  0.04747  Biso   1.000  O
  C71      1.0000 0.42273  0.93897  0.98857  Biso   1.000  C
  O44      1.0000 0.29513  0.85187  0.83055  Biso   1.000  O
  O45      1.0000 0.25443  0.89207  0.87817  Biso   1.000  O
  C72      1.0000 0.43473  0.96507  0.02357  Biso   1.000  C
  C73      1.0000 0.38723  0.90277  0.87814  Biso   1.000  C
  C74      1.0000 0.30673  0.88167  0.86089  Biso   1.000  C
  C75      1.0000 0.40153  0.93207  0.91145  Biso   1.000  C
  H15      1.0000 0.36263  0.94177  0.92257  Biso   1.000  H
  O46      1.0000 0.21070  0.97140  0.38080  Biso   1.000  O
  C76      1.0000 0.18290  0.91060  0.32190  Biso   1.000  C
  O47      1.0000 0.22340  0.03820  0.16388  Biso   1.000  O
  O48      1.0000 0.30430  0.07890  0.21150  Biso   1.000  O
  C77      1.0000 0.19700  0.89860  0.35690  Biso   1.000  C
  C78      1.0000 0.18220  0.94610  0.21147  Biso   1.000  C
  C79      1.0000 0.24160  0.02660  0.19422  Biso   1.000  C
  C80      1.0000 0.19720  0.93180  0.24478  Biso   1.000  C
  H16      1.0000 0.24580  0.97070  0.25590  Biso   1.000  H
  O49      1.0000 0.87737  0.30473  0.71413  Biso   1.000  O
  C81      1.0000 0.84957  0.24393  0.65523  Biso   1.000  C
  O50      1.0000 0.89007  0.37153  0.49721  Biso   1.000  O
  O51      1.0000 0.97097  0.41223  0.54483  Biso   1.000  O
  C82      1.0000 0.86367  0.23193  0.69023  Biso   1.000  C
  C83      1.0000 0.84887  0.27943  0.54480  Biso   1.000  C
  C84      1.0000 0.90827  0.35993  0.52755  Biso   1.000  C
  C85      1.0000 0.86387  0.26513  0.57811  Biso   1.000  C
  H17      1.0000 0.91247  0.30403  0.58923  Biso   1.000  H
  O52      1.0000 0.54403  0.63807  0.04747  Biso   1.000  O
  C86      1.0000 0.51623  0.57727  0.98857  Biso   1.000  C
  O53      1.0000 0.55673  0.70487  0.83055  Biso   1.000  O
  O54      1.0000 0.63763  0.74557  0.87817  Biso   1.000  O
  C87      1.0000 0.53033  0.56527  0.02357  Biso   1.000  C
  C88      1.0000 0.51553  0.61277  0.87814  Biso   1.000  C
  C89      1.0000 0.57493  0.69327  0.86089  Biso   1.000  C
  C90      1.0000 0.53053  0.59847  0.91145  Biso   1.000  C
  H18      1.0000 0.57913  0.63737  0.92257  Biso   1.000  H
  O55      1.0000 0.21070  0.23930  0.38080  Biso   1.000  O
  C91      1.0000 0.18290  0.27230  0.32190  Biso   1.000  C
  O56      1.0000 0.22340  0.18520  0.16388  Biso   1.000  O
  O57      1.0000 0.30430  0.22540  0.21150  Biso   1.000  O
  C92      1.0000 0.19700  0.29840  0.35690  Biso   1.000  C
  C93      1.0000 0.18220  0.23610  0.21147  Biso   1.000  C
  C94      1.0000 0.24160  0.21500  0.19422  Biso   1.000  C
  C95      1.0000 0.19720  0.26540  0.24478  Biso   1.000  C
  H19      1.0000 0.24580  0.27510  0.25590  Biso   1.000  H
  O58      1.0000 0.87737  0.57263  0.71413  Biso   1.000  O
  C96      1.0000 0.84957  0.60563  0.65523  Biso   1.000  C
  O59      1.0000 0.89007  0.51853  0.49721  Biso   1.000  O
  O60      1.0000 0.97097  0.55873  0.54483  Biso   1.000  O
  C97      1.0000 0.86367  0.63173  0.69023  Biso   1.000  C
  C98      1.0000 0.84887  0.56943  0.54480  Biso   1.000  C
  C99      1.0000 0.90827  0.54833  0.52755  Biso   1.000  C
  C100     1.0000 0.86387  0.59873  0.57811  Biso   1.000  C
  H20      1.0000 0.91247  0.60843  0.58923  Biso   1.000  H
  O61      1.0000 0.54403  0.90597  0.04747  Biso   1.000  O
  C101     1.0000 0.51623  0.93897  0.98857  Biso   1.000  C
  O62      1.0000 0.55673  0.85187  0.83055  Biso   1.000  O
  O63      1.0000 0.63763  0.89207  0.87817  Biso   1.000  O
  C102     1.0000 0.53033  0.96507  0.02357  Biso   1.000  C
  C103     1.0000 0.51553  0.90277  0.87814  Biso   1.000  C
  C104     1.0000 0.57493  0.88167  0.86089  Biso   1.000  C
  C105     1.0000 0.53053  0.93207  0.91145  Biso   1.000  C
  H21      1.0000 0.57913  0.94177  0.92257  Biso   1.000  H
  O64      1.0000 0.76070  0.97140  0.38080  Biso   1.000  O
  C106     1.0000 0.72770  0.91060  0.32190  Biso   1.000  C
  O65      1.0000 0.81480  0.03820  0.16388  Biso   1.000  O
  O66      1.0000 0.77460  0.07890  0.21150  Biso   1.000  O
  C107     1.0000 0.70160  0.89860  0.35690  Biso   1.000  C
  C108     1.0000 0.76390  0.94610  0.21147  Biso   1.000  C
  C109     1.0000 0.78500  0.02660  0.19422  Biso   1.000  C
  C110     1.0000 0.73460  0.93180  0.24478  Biso   1.000  C
  H22      1.0000 0.72490  0.97070  0.25590  Biso   1.000  H
  O67      1.0000 0.42737  0.30473  0.71413  Biso   1.000  O
  C111     1.0000 0.39437  0.24393  0.65523  Biso   1.000  C
  O68      1.0000 0.48147  0.37153  0.49721  Biso   1.000  O
  O69      1.0000 0.44127  0.41223  0.54483  Biso   1.000  O
  C112     1.0000 0.36827  0.23193  0.69023  Biso   1.000  C
  C113     1.0000 0.43057  0.27943  0.54480  Biso   1.000  C
  C114     1.0000 0.45167  0.35993  0.52755  Biso   1.000  C
  C115     1.0000 0.40127  0.26513  0.57811  Biso   1.000  C
  H23      1.0000 0.39157  0.30403  0.58923  Biso   1.000  H
  O70      1.0000 0.09403  0.63807  0.04747  Biso   1.000  O
  C116     1.0000 0.06103  0.57727  0.98857  Biso   1.000  C
  O71      1.0000 0.14813  0.70487  0.83055  Biso   1.000  O
  O72      1.0000 0.10793  0.74557  0.87817  Biso   1.000  O
  C117     1.0000 0.03493  0.56527  0.02357  Biso   1.000  C
  C118     1.0000 0.09723  0.61277  0.87814  Biso   1.000  C
  C119     1.0000 0.11833  0.69327  0.86089  Biso   1.000  C
  C120     1.0000 0.06793  0.59847  0.91145  Biso   1.000  C
  H24      1.0000 0.05823  0.63737  0.92257  Biso   1.000  H
  O73      1.0000 0.02860  0.78930  0.38080  Biso   1.000  O
  C121     1.0000 0.08940  0.81710  0.32190  Biso   1.000  C
  O74      1.0000 0.96180  0.77660  0.16388  Biso   1.000  O
  O75      1.0000 0.92110  0.69570  0.21150  Biso   1.000  O
  C122     1.0000 0.10140  0.80300  0.35690  Biso   1.000  C
  C123     1.0000 0.05390  0.81780  0.21147  Biso   1.000  C
  C124     1.0000 0.97340  0.75840  0.19422  Biso   1.000  C
  C125     1.0000 0.06820  0.80280  0.24478  Biso   1.000  C
  H25      1.0000 0.02930  0.75420  0.25590  Biso   1.000  H
  O76      1.0000 0.69527  0.12263  0.71413  Biso   1.000  O
  C126     1.0000 0.75607  0.15043  0.65523  Biso   1.000  C
  O77      1.0000 0.62847  0.10993  0.49721  Biso   1.000  O
  O78      1.0000 0.58777  0.02903  0.54483  Biso   1.000  O
  C127     1.0000 0.76807  0.13633  0.69023  Biso   1.000  C
  C128     1.0000 0.72057  0.15113  0.54480  Biso   1.000  C
  C129     1.0000 0.64007  0.09173  0.52755  Biso   1.000  C
  C130     1.0000 0.73487  0.13613  0.57811  Biso   1.000  C
  H26      1.0000 0.69597  0.08753  0.58923  Biso   1.000  H
  O79      1.0000 0.36193  0.45597  0.04747  Biso   1.000  O
  C131     1.0000 0.42273  0.48377  0.98857  Biso   1.000  C
  O80      1.0000 0.29513  0.44327  0.83055  Biso   1.000  O
  O81      1.0000 0.25443  0.36237  0.87817  Biso   1.000  O
  C132     1.0000 0.43473  0.46967  0.02357  Biso   1.000  C
  C133     1.0000 0.38723  0.48447  0.87814  Biso   1.000  C
  C134     1.0000 0.30673  0.42507  0.86089  Biso   1.000  C
  C135     1.0000 0.40153  0.46947  0.91145  Biso   1.000  C
  H27      1.0000 0.36263  0.42087  0.92257  Biso   1.000  H
  O82      1.0000 0.23930  0.21070  0.61920  Biso   1.000  O
  C136     1.0000 0.27230  0.18290  0.67810  Biso   1.000  C
  O83      1.0000 0.18520  0.22340  0.83612  Biso   1.000  O
  O84      1.0000 0.22540  0.30430  0.78850  Biso   1.000  O
  C137     1.0000 0.29840  0.19700  0.64310  Biso   1.000  C
  C138     1.0000 0.23610  0.18220  0.78853  Biso   1.000  C
  C139     1.0000 0.21500  0.24160  0.80578  Biso   1.000  C
  C140     1.0000 0.26540  0.19720  0.75522  Biso   1.000  C
  H28      1.0000 0.27510  0.24580  0.74410  Biso   1.000  H
  O85      1.0000 0.90597  0.54403  0.95253  Biso   1.000  O
  C141     1.0000 0.93897  0.51623  0.01143  Biso   1.000  C
  O86      1.0000 0.85187  0.55673  0.16945  Biso   1.000  O
  O87      1.0000 0.89207  0.63763  0.12183  Biso   1.000  O
  C142     1.0000 0.96507  0.53033  0.97643  Biso   1.000  C
  C143     1.0000 0.90277  0.51553  0.12186  Biso   1.000  C
  C144     1.0000 0.88167  0.57493  0.13911  Biso   1.000  C
  C145     1.0000 0.93207  0.53053  0.08855  Biso   1.000  C
  H29      1.0000 0.94177  0.57913  0.07743  Biso   1.000  H
  O88      1.0000 0.57263  0.87737  0.28587  Biso   1.000  O
  C146     1.0000 0.60563  0.84957  0.34477  Biso   1.000  C
  O89      1.0000 0.51853  0.89007  0.50279  Biso   1.000  O
  O90      1.0000 0.55873  0.97097  0.45517  Biso   1.000  O
  C147     1.0000 0.63173  0.86367  0.30977  Biso   1.000  C
  C148     1.0000 0.56943  0.84887  0.45520  Biso   1.000  C
  C149     1.0000 0.54833  0.90827  0.47245  Biso   1.000  C
  C150     1.0000 0.59873  0.86387  0.42189  Biso   1.000  C
  H30      1.0000 0.60843  0.91247  0.41077  Biso   1.000  H
  O91      1.0000 0.97140  0.76070  0.61920  Biso   1.000  O
  C151     1.0000 0.91060  0.72770  0.67810  Biso   1.000  C
  O92      1.0000 0.03820  0.81480  0.83612  Biso   1.000  O
  O93      1.0000 0.07890  0.77460  0.78850  Biso   1.000  O
  C152     1.0000 0.89860  0.70160  0.64310  Biso   1.000  C
  C153     1.0000 0.94610  0.76390  0.78853  Biso   1.000  C
  C154     1.0000 0.02660  0.78500  0.80578  Biso   1.000  C
  C155     1.0000 0.93180  0.73460  0.75522  Biso   1.000  C
  H31      1.0000 0.97070  0.72490  0.74410  Biso   1.000  H
  O94      1.0000 0.63807  0.09403  0.95253  Biso   1.000  O
  C156     1.0000 0.57727  0.06103  0.01143  Biso   1.000  C
  O95      1.0000 0.70487  0.14813  0.16945  Biso   1.000  O
  O96      1.0000 0.74557  0.10793  0.12183  Biso   1.000  O
  C157     1.0000 0.56527  0.03493  0.97643  Biso   1.000  C
  C158     1.0000 0.61277  0.09723  0.12186  Biso   1.000  C
  C159     1.0000 0.69327  0.11833  0.13911  Biso   1.000  C
  C160     1.0000 0.59847  0.06793  0.08855  Biso   1.000  C
  H32      1.0000 0.63737  0.05823  0.07743  Biso   1.000  H
  O97      1.0000 0.30473  0.42737  0.28587  Biso   1.000  O
  C161     1.0000 0.24393  0.39437  0.34477  Biso   1.000  C
  O98      1.0000 0.37153  0.48147  0.50279  Biso   1.000  O
  O99      1.0000 0.41223  0.44127  0.45517  Biso   1.000  O
  C162     1.0000 0.23193  0.36827  0.30977  Biso   1.000  C
  C163     1.0000 0.27943  0.43057  0.45520  Biso   1.000  C
  C164     1.0000 0.35993  0.45167  0.47245  Biso   1.000  C
  C165     1.0000 0.26513  0.40127  0.42189  Biso   1.000  C
  H33      1.0000 0.30403  0.39157  0.41077  Biso   1.000  H
  O100     1.0000 0.78930  0.02860  0.61920  Biso   1.000  O
  C166     1.0000 0.81710  0.08940  0.67810  Biso   1.000  C
  O101     1.0000 0.77660  0.96180  0.83612  Biso   1.000  O
  O102     1.0000 0.69570  0.92110  0.78850  Biso   1.000  O
  C167     1.0000 0.80300  0.10140  0.64310  Biso   1.000  C
  C168     1.0000 0.81780  0.05390  0.78853  Biso   1.000  C
  C169     1.0000 0.75840  0.97340  0.80578  Biso   1.000  C
  C170     1.0000 0.80280  0.06820  0.75522  Biso   1.000  C
  H34      1.0000 0.75420  0.02930  0.74410  Biso   1.000  H
  O103     1.0000 0.45597  0.36193  0.95253  Biso   1.000  O
  C171     1.0000 0.48377  0.42273  0.01143  Biso   1.000  C
  O104     1.0000 0.44327  0.29513  0.16945  Biso   1.000  O
  O105     1.0000 0.36237  0.25443  0.12183  Biso   1.000  O
  C172     1.0000 0.46967  0.43473  0.97643  Biso   1.000  C
  C173     1.0000 0.48447  0.38723  0.12186  Biso   1.000  C
  C174     1.0000 0.42507  0.30673  0.13911  Biso   1.000  C
  C175     1.0000 0.46947  0.40153  0.08855  Biso   1.000  C
  H35      1.0000 0.42087  0.36263  0.07743  Biso   1.000  H
  O106     1.0000 0.12263  0.69527  0.28587  Biso   1.000  O
  C176     1.0000 0.15043  0.75607  0.34477  Biso   1.000  C
  O107     1.0000 0.10993  0.62847  0.50279  Biso   1.000  O
  O108     1.0000 0.02903  0.58777  0.45517  Biso   1.000  O
  C177     1.0000 0.13633  0.76807  0.30977  Biso   1.000  C
  C178     1.0000 0.15113  0.72057  0.45520  Biso   1.000  C
  C179     1.0000 0.09173  0.64007  0.47245  Biso   1.000  C
  C180     1.0000 0.13613  0.73487  0.42189  Biso   1.000  C
  H36      1.0000 0.08753  0.69597  0.41077  Biso   1.000  H
  Cu1      1.0000 0.71431  0.85716  0.86087  Biso   1.000  Cu
  Cu2      1.0000 0.38098  0.19049  0.19420  Biso   1.000  Cu
  Cu3      1.0000 0.04764  0.52382  0.52754  Biso   1.000  Cu
  Cu4      1.0000 0.14285  0.85716  0.86087  Biso   1.000  Cu
  Cu5      1.0000 0.80951  0.19049  0.19420  Biso   1.000  Cu
  Cu6      1.0000 0.47618  0.52382  0.52754  Biso   1.000  Cu
  Cu7      1.0000 0.14285  0.28569  0.86087  Biso   1.000  Cu
  Cu8      1.0000 0.80951  0.61902  0.19420  Biso   1.000  Cu
  Cu9      1.0000 0.47618  0.95236  0.52754  Biso   1.000  Cu
  Cu10     1.0000 0.85716  0.71431  0.13913  Biso   1.000  Cu
  Cu11     1.0000 0.52382  0.04764  0.47246  Biso   1.000  Cu
  Cu12     1.0000 0.19049  0.38098  0.80580  Biso   1.000  Cu
  Cu13     1.0000 0.85715  0.14285  0.13913  Biso   1.000  Cu
  Cu14     1.0000 0.52382  0.47618  0.47246  Biso   1.000  Cu
  Cu15     1.0000 0.19049  0.80951  0.80580  Biso   1.000  Cu
  Cu16     1.0000 0.28569  0.14285  0.13913  Biso   1.000  Cu
  Cu17     1.0000 0.95236  0.47618  0.47246  Biso   1.000  Cu
  Cu18     1.0000 0.61902  0.80951  0.80580  Biso   1.000  Cu
  C181     1.0000 0.84555  0.69110  0.70120  Biso   1.000  C
  C182     1.0000 0.88970  0.77940  0.80531  Biso   1.000  C
  H37      1.0000 0.90000  0.80000  0.82770  Biso   1.000  H
  C183     1.0000 0.85965  0.71930  0.73810  Biso   1.000  C
  C184     1.0000 0.51222  0.02443  0.03453  Biso   1.000  C
  C185     1.0000 0.55637  0.11273  0.13864  Biso   1.000  C
  H38      1.0000 0.56667  0.13333  0.16103  Biso   1.000  H
  C186     1.0000 0.52632  0.05263  0.07143  Biso   1.000  C
  C187     1.0000 0.17888  0.35777  0.36787  Biso   1.000  C
  C188     1.0000 0.22303  0.44607  0.47198  Biso   1.000  C
  H39      1.0000 0.23333  0.46667  0.49437  Biso   1.000  H
  C189     1.0000 0.19298  0.38597  0.40477  Biso   1.000  C
  C190     1.0000 0.30890  0.15445  0.70120  Biso   1.000  C
  C191     1.0000 0.22060  0.11030  0.80531  Biso   1.000  C
  H40      1.0000 0.20000  0.10000  0.82770  Biso   1.000  H
  C192     1.0000 0.28070  0.14035  0.73810  Biso   1.000  C
  C193     1.0000 0.97557  0.48778  0.03453  Biso   1.000  C
  C194     1.0000 0.88727  0.44363  0.13864  Biso   1.000  C
  H41      1.0000 0.86667  0.43333  0.16103  Biso   1.000  H
  C195     1.0000 0.94737  0.47368  0.07143  Biso   1.000  C
  C196     1.0000 0.64223  0.82112  0.36787  Biso   1.000  C
  C197     1.0000 0.55393  0.77697  0.47198  Biso   1.000  C
  H42      1.0000 0.53333  0.76667  0.49437  Biso   1.000  H
  C198     1.0000 0.61403  0.80702  0.40477  Biso   1.000  C
  C199     1.0000 0.84555  0.15445  0.70120  Biso   1.000  C
  C200     1.0000 0.88970  0.11030  0.80531  Biso   1.000  C
  H43      1.0000 0.90000  0.10000  0.82770  Biso   1.000  H
  C201     1.0000 0.85965  0.14035  0.73810  Biso   1.000  C
  C202     1.0000 0.51222  0.48778  0.03453  Biso   1.000  C
  C203     1.0000 0.55637  0.44363  0.13864  Biso   1.000  C
  H44      1.0000 0.56667  0.43333  0.16103  Biso   1.000  H
  C204     1.0000 0.52632  0.47368  0.07143  Biso   1.000  C
  C205     1.0000 0.17888  0.82112  0.36787  Biso   1.000  C
  C206     1.0000 0.22303  0.77697  0.47198  Biso   1.000  C
  H45      1.0000 0.23333  0.76667  0.49437  Biso   1.000  H
  C207     1.0000 0.19298  0.80702  0.40477  Biso   1.000  C
  C208     1.0000 0.69110  0.84555  0.29880  Biso   1.000  C
  C209     1.0000 0.77940  0.88970  0.19469  Biso   1.000  C
  H46      1.0000 0.80000  0.90000  0.17230  Biso   1.000  H
  C210     1.0000 0.71930  0.85965  0.26190  Biso   1.000  C
  C211     1.0000 0.35777  0.17888  0.63213  Biso   1.000  C
  C212     1.0000 0.44607  0.22303  0.52802  Biso   1.000  C
  H47      1.0000 0.46667  0.23333  0.50563  Biso   1.000  H
  C213     1.0000 0.38597  0.19298  0.59523  Biso   1.000  C
  C214     1.0000 0.02443  0.51222  0.96547  Biso   1.000  C
  C215     1.0000 0.11273  0.55637  0.86136  Biso   1.000  C
  H48      1.0000 0.13333  0.56667  0.83897  Biso   1.000  H
  C216     1.0000 0.05263  0.52632  0.92857  Biso   1.000  C
  C217     1.0000 0.15445  0.30890  0.29880  Biso   1.000  C
  C218     1.0000 0.11030  0.22060  0.19469  Biso   1.000  C
  H49      1.0000 0.10000  0.20000  0.17230  Biso   1.000  H
  C219     1.0000 0.14035  0.28070  0.26190  Biso   1.000  C
  C220     1.0000 0.82112  0.64223  0.63213  Biso   1.000  C
  C221     1.0000 0.77697  0.55393  0.52802  Biso   1.000  C
  H50      1.0000 0.76667  0.53333  0.50563  Biso   1.000  H
  C222     1.0000 0.80702  0.61403  0.59523  Biso   1.000  C
  C223     1.0000 0.48778  0.97557  0.96547  Biso   1.000  C
  C224     1.0000 0.44363  0.88727  0.86136  Biso   1.000  C
  H51      1.0000 0.43333  0.86667  0.83897  Biso   1.000  H
  C225     1.0000 0.47368  0.94737  0.92857  Biso   1.000  C
  C226     1.0000 0.15445  0.84555  0.29880  Biso   1.000  C
  C227     1.0000 0.11030  0.88970  0.19469  Biso   1.000  C
  H52      1.0000 0.10000  0.90000  0.17230  Biso   1.000  H
  C228     1.0000 0.14035  0.85965  0.26190  Biso   1.000  C
  C229     1.0000 0.82112  0.17888  0.63213  Biso   1.000  C
  C230     1.0000 0.77697  0.22303  0.52802  Biso   1.000  C
  H53      1.0000 0.76667  0.23333  0.50563  Biso   1.000  H
  C231     1.0000 0.80702  0.19298  0.59523  Biso   1.000  C
  C232     1.0000 0.48778  0.51222  0.96547  Biso   1.000  C
  C233     1.0000 0.44363  0.55637  0.86136  Biso   1.000  C
  H54      1.0000 0.43333  0.56667  0.83897  Biso   1.000  H
  C234     1.0000 0.47368  0.52632  0.92857  Biso   1.000  C
