data_image0
_cell_length_a       18.5696
_cell_length_b       18.5696
_cell_length_c       12.0128
_cell_angle_alpha    90
_cell_angle_beta     90
_cell_angle_gamma    120

_symmetry_space_group_name_H-M    "P 1"
_symmetry_int_tables_number       1

loop_
  _symmetry_equiv_pos_as_xyz
  'x, y, z'

loop_
  _atom_site_label
  _atom_site_occupancy
  _atom_site_fract_x
  _atom_site_fract_y
  _atom_site_fract_z
  _atom_site_thermal_displace_type
  _atom_site_B_iso_or_equiv
  _atom_site_type_symbol
  C1       1.0000 0.06340  0.98650  0.38650  Biso   1.000  C
  H1       1.0000 0.10660  0.03410  0.42260  Biso   1.000  H
  C2       1.0000 0.06430  0.91180  0.38740  Biso   1.000  C
  C3       1.0000 0.12930  0.90350  0.44840  Biso   1.000  C
  C4       1.0000 0.11370  0.39860  0.35770  Biso   1.000  C
  C5       1.0000 0.07450  0.43260  0.43460  Biso   1.000  C
  C6       1.0000 0.11070  0.51990  0.43200  Biso   1.000  C
  H2       1.0000 0.15610  0.55250  0.38380  Biso   1.000  H
  C7       1.0000 0.07950  0.55720  0.50000  Biso   1.000  C
  C8       1.0000 0.11880  0.65000  0.50350  Biso   1.000  C
  C9       1.0000 0.01180  0.51130  0.56700  Biso   1.000  C
  H3       1.0000 0.99030  0.53860  0.61160  Biso   1.000  H
  C10      1.0000 0.97440  0.42450  0.57100  Biso   1.000  C
  C11      1.0000 0.89950  0.37480  0.64110  Biso   1.000  C
  C12      1.0000 0.00870  0.38730  0.50300  Biso   1.000  C
  H4       1.0000 0.98500  0.32860  0.50570  Biso   1.000  H
  O1       1.0000 0.17930  0.69270  0.43600  Biso   1.000  O
  O2       1.0000 0.09530  0.68560  0.56890  Biso   1.000  O
  O3       1.0000 0.87150  0.41220  0.70120  Biso   1.000  O
  O4       1.0000 0.86280  0.29580  0.63600  Biso   1.000  O
  C13      1.0000 0.08350  0.43940  0.43990  Biso   1.000  C
  C14      1.0000 0.11590  0.52590  0.44700  Biso   1.000  C
  H5       1.0000 0.15970  0.56240  0.39940  Biso   1.000  H
  C15      1.0000 0.08400  0.55780  0.52400  Biso   1.000  C
  C16      1.0000 0.12010  0.65040  0.53500  Biso   1.000  C
  C17      1.0000 0.01880  0.50560  0.59300  Biso   1.000  C
  H6       1.0000 0.99640  0.52850  0.64390  Biso   1.000  H
  C18      1.0000 0.98550  0.41960  0.58800  Biso   1.000  C
  C19      1.0000 0.91490  0.36270  0.66110  Biso   1.000  C
  C20      1.0000 0.02100  0.38830  0.51000  Biso   1.000  C
  H7       1.0000 0.00070  0.33010  0.50770  Biso   1.000  H
  O5       1.0000 0.17600  0.69490  0.46000  Biso   1.000  O
  O6       1.0000 0.10360  0.68240  0.61200  Biso   1.000  O
  O7       1.0000 0.89900  0.39310  0.74590  Biso   1.000  O
  O8       1.0000 0.87550  0.28480  0.64100  Biso   1.000  O
  Co1      1.0000 0.21128  0.80887  0.48647  Biso   1.000  Co
  O9       1.0000 0.93420  0.07300  0.30890  Biso   1.000  O
  O10      1.0000 0.09170  0.32260  0.36690  Biso   1.000  O
  O11      1.0000 0.16210  0.44470  0.28500  Biso   1.000  O
  O12      1.0000 0.12330  0.83280  0.44440  Biso   1.000  O
  O13      1.0000 0.18640  0.96620  0.49610  Biso   1.000  O
  C21      1.0000 0.01350  0.07690  0.05317  Biso   1.000  C
  H8       1.0000 0.96590  0.07250  0.08927  Biso   1.000  H
  C22      1.0000 0.08820  0.15250  0.05407  Biso   1.000  C
  C23      1.0000 0.09650  0.22580  0.11507  Biso   1.000  C
  C24      1.0000 0.60140  0.71510  0.02437  Biso   1.000  C
  C25      1.0000 0.56740  0.64190  0.10127  Biso   1.000  C
  C26      1.0000 0.48010  0.59080  0.09867  Biso   1.000  C
  H9       1.0000 0.44750  0.60360  0.05047  Biso   1.000  H
  C27      1.0000 0.44280  0.52230  0.16667  Biso   1.000  C
  C28      1.0000 0.35000  0.46880  0.17017  Biso   1.000  C
  C29      1.0000 0.48870  0.50050  0.23367  Biso   1.000  C
  H10      1.0000 0.46140  0.45170  0.27827  Biso   1.000  H
  C30      1.0000 0.57550  0.54990  0.23767  Biso   1.000  C
  C31      1.0000 0.62520  0.52470  0.30777  Biso   1.000  C
  C32      1.0000 0.61270  0.62140  0.16967  Biso   1.000  C
  H11      1.0000 0.67140  0.65640  0.17237  Biso   1.000  H
  O14      1.0000 0.30730  0.48660  0.10267  Biso   1.000  O
  O15      1.0000 0.31440  0.40970  0.23557  Biso   1.000  O
  O16      1.0000 0.58780  0.45930  0.36787  Biso   1.000  O
  O17      1.0000 0.70420  0.56700  0.30267  Biso   1.000  O
  C33      1.0000 0.56060  0.64410  0.10657  Biso   1.000  C
  C34      1.0000 0.47410  0.59000  0.11367  Biso   1.000  C
  H12      1.0000 0.43760  0.59730  0.06607  Biso   1.000  H
  C35      1.0000 0.44220  0.52620  0.19067  Biso   1.000  C
  C36      1.0000 0.34960  0.46970  0.20167  Biso   1.000  C
  C37      1.0000 0.49440  0.51320  0.25967  Biso   1.000  C
  H13      1.0000 0.47150  0.46790  0.31057  Biso   1.000  H
  C38      1.0000 0.58040  0.56590  0.25467  Biso   1.000  C
  C39      1.0000 0.63730  0.55220  0.32777  Biso   1.000  C
  C40      1.0000 0.61170  0.63270  0.17667  Biso   1.000  C
  H14      1.0000 0.66990  0.67060  0.17437  Biso   1.000  H
  O18      1.0000 0.30510  0.48110  0.12667  Biso   1.000  O
  O19      1.0000 0.31760  0.42120  0.27867  Biso   1.000  O
  O20      1.0000 0.60690  0.50590  0.41257  Biso   1.000  O
  O21      1.0000 0.71520  0.59070  0.30767  Biso   1.000  O
  Co2      1.0000 0.19113  0.40241  0.15314  Biso   1.000  Co
  O22      1.0000 0.92700  0.86120  0.97557  Biso   1.000  O
  O23      1.0000 0.67740  0.76910  0.03357  Biso   1.000  O
  O24      1.0000 0.55530  0.71740  0.95167  Biso   1.000  O
  O25      1.0000 0.16720  0.29050  0.11107  Biso   1.000  O
  O26      1.0000 0.03380  0.22020  0.16277  Biso   1.000  O
  C41      1.0000 0.92310  0.93660  0.71983  Biso   1.000  C
  H15      1.0000 0.92750  0.89340  0.75593  Biso   1.000  H
  C42      1.0000 0.84750  0.93570  0.72073  Biso   1.000  C
  C43      1.0000 0.77420  0.87070  0.78173  Biso   1.000  C
  C44      1.0000 0.28490  0.88630  0.69103  Biso   1.000  C
  C45      1.0000 0.35810  0.92550  0.76793  Biso   1.000  C
  C46      1.0000 0.40920  0.88930  0.76533  Biso   1.000  C
  H16      1.0000 0.39640  0.84390  0.71713  Biso   1.000  H
  C47      1.0000 0.47770  0.92050  0.83333  Biso   1.000  C
  C48      1.0000 0.53120  0.88120  0.83683  Biso   1.000  C
  C49      1.0000 0.49950  0.98820  0.90033  Biso   1.000  C
  H17      1.0000 0.54830  0.00970  0.94493  Biso   1.000  H
  C50      1.0000 0.45010  0.02560  0.90433  Biso   1.000  C
  C51      1.0000 0.47530  0.10050  0.97443  Biso   1.000  C
  C52      1.0000 0.37860  0.99130  0.83633  Biso   1.000  C
  H18      1.0000 0.34360  0.01500  0.83903  Biso   1.000  H
  O27      1.0000 0.51340  0.82070  0.76933  Biso   1.000  O
  O28      1.0000 0.59030  0.90470  0.90223  Biso   1.000  O
  O29      1.0000 0.54070  0.12850  0.03453  Biso   1.000  O
  O30      1.0000 0.43300  0.13720  0.96933  Biso   1.000  O
  C53      1.0000 0.35590  0.91650  0.77323  Biso   1.000  C
  C54      1.0000 0.41000  0.88410  0.78033  Biso   1.000  C
  H19      1.0000 0.40270  0.84030  0.73273  Biso   1.000  H
  C55      1.0000 0.47380  0.91600  0.85733  Biso   1.000  C
  C56      1.0000 0.53030  0.87990  0.86833  Biso   1.000  C
  C57      1.0000 0.48680  0.98120  0.92633  Biso   1.000  C
  H20      1.0000 0.53210  0.00360  0.97723  Biso   1.000  H
  C58      1.0000 0.43410  0.01450  0.92133  Biso   1.000  C
  C59      1.0000 0.44780  0.08510  0.99443  Biso   1.000  C
  C60      1.0000 0.36730  0.97900  0.84333  Biso   1.000  C
  H21      1.0000 0.32940  0.99930  0.84103  Biso   1.000  H
  O31      1.0000 0.51890  0.82400  0.79333  Biso   1.000  O
  O32      1.0000 0.57880  0.89640  0.94533  Biso   1.000  O
  O33      1.0000 0.49410  0.10100  0.07923  Biso   1.000  O
  O34      1.0000 0.40930  0.12450  0.97433  Biso   1.000  O
  Co3      1.0000 0.59759  0.78872  0.81980  Biso   1.000  Co
  O35      1.0000 0.13880  0.06580  0.64223  Biso   1.000  O
  O36      1.0000 0.23090  0.90830  0.70023  Biso   1.000  O
  O37      1.0000 0.28260  0.83790  0.61833  Biso   1.000  O
  O38      1.0000 0.70950  0.87670  0.77773  Biso   1.000  O
  O39      1.0000 0.77980  0.81360  0.82943  Biso   1.000  O
  C61      1.0000 0.98650  0.06340  0.61350  Biso   1.000  C
  H22      1.0000 0.03410  0.10660  0.57740  Biso   1.000  H
  C62      1.0000 0.91180  0.06430  0.61260  Biso   1.000  C
  C63      1.0000 0.90350  0.12930  0.55160  Biso   1.000  C
  C64      1.0000 0.39860  0.11370  0.64230  Biso   1.000  C
  C65      1.0000 0.43260  0.07450  0.56540  Biso   1.000  C
  C66      1.0000 0.51990  0.11070  0.56800  Biso   1.000  C
  H23      1.0000 0.55250  0.15610  0.61620  Biso   1.000  H
  C67      1.0000 0.55720  0.07950  0.50000  Biso   1.000  C
  C68      1.0000 0.65000  0.11880  0.49650  Biso   1.000  C
  C69      1.0000 0.51130  0.01180  0.43300  Biso   1.000  C
  H24      1.0000 0.53860  0.99030  0.38840  Biso   1.000  H
  C70      1.0000 0.42450  0.97440  0.42900  Biso   1.000  C
  C71      1.0000 0.37480  0.89950  0.35890  Biso   1.000  C
  C72      1.0000 0.38730  0.00870  0.49700  Biso   1.000  C
  H25      1.0000 0.32860  0.98500  0.49430  Biso   1.000  H
  O40      1.0000 0.69270  0.17930  0.56400  Biso   1.000  O
  O41      1.0000 0.68560  0.09530  0.43110  Biso   1.000  O
  O42      1.0000 0.41220  0.87150  0.29880  Biso   1.000  O
  O43      1.0000 0.29580  0.86280  0.36400  Biso   1.000  O
  C73      1.0000 0.43940  0.08350  0.56010  Biso   1.000  C
  C74      1.0000 0.52590  0.11590  0.55300  Biso   1.000  C
  H26      1.0000 0.56240  0.15970  0.60060  Biso   1.000  H
  C75      1.0000 0.55780  0.08400  0.47600  Biso   1.000  C
  C76      1.0000 0.65040  0.12010  0.46500  Biso   1.000  C
  C77      1.0000 0.50560  0.01880  0.40700  Biso   1.000  C
  H27      1.0000 0.52850  0.99640  0.35610  Biso   1.000  H
  C78      1.0000 0.41960  0.98550  0.41200  Biso   1.000  C
  C79      1.0000 0.36270  0.91490  0.33890  Biso   1.000  C
  C80      1.0000 0.38830  0.02100  0.49000  Biso   1.000  C
  H28      1.0000 0.33010  0.00070  0.49230  Biso   1.000  H
  O44      1.0000 0.69490  0.17600  0.54000  Biso   1.000  O
  O45      1.0000 0.68240  0.10360  0.38800  Biso   1.000  O
  O46      1.0000 0.39310  0.89900  0.25410  Biso   1.000  O
  O47      1.0000 0.28480  0.87550  0.35900  Biso   1.000  O
  Co4      1.0000 0.80887  0.21128  0.51353  Biso   1.000  Co
  O48      1.0000 0.07300  0.93420  0.69110  Biso   1.000  O
  O49      1.0000 0.32260  0.09170  0.63310  Biso   1.000  O
  O50      1.0000 0.44470  0.16210  0.71500  Biso   1.000  O
  O51      1.0000 0.83280  0.12330  0.55560  Biso   1.000  O
  O52      1.0000 0.96620  0.18640  0.50390  Biso   1.000  O
  C81      1.0000 0.07690  0.01350  0.94683  Biso   1.000  C
  H29      1.0000 0.07250  0.96590  0.91073  Biso   1.000  H
  C82      1.0000 0.15250  0.08820  0.94593  Biso   1.000  C
  C83      1.0000 0.22580  0.09650  0.88493  Biso   1.000  C
  C84      1.0000 0.71510  0.60140  0.97563  Biso   1.000  C
  C85      1.0000 0.64190  0.56740  0.89873  Biso   1.000  C
  C86      1.0000 0.59080  0.48010  0.90133  Biso   1.000  C
  H30      1.0000 0.60360  0.44750  0.94953  Biso   1.000  H
  C87      1.0000 0.52230  0.44280  0.83333  Biso   1.000  C
  C88      1.0000 0.46880  0.35000  0.82983  Biso   1.000  C
  C89      1.0000 0.50050  0.48870  0.76633  Biso   1.000  C
  H31      1.0000 0.45170  0.46140  0.72173  Biso   1.000  H
  C90      1.0000 0.54990  0.57550  0.76233  Biso   1.000  C
  C91      1.0000 0.52470  0.62520  0.69223  Biso   1.000  C
  C92      1.0000 0.62140  0.61270  0.83033  Biso   1.000  C
  H32      1.0000 0.65640  0.67140  0.82763  Biso   1.000  H
  O53      1.0000 0.48660  0.30730  0.89733  Biso   1.000  O
  O54      1.0000 0.40970  0.31440  0.76443  Biso   1.000  O
  O55      1.0000 0.45930  0.58780  0.63213  Biso   1.000  O
  O56      1.0000 0.56700  0.70420  0.69733  Biso   1.000  O
  C93      1.0000 0.64410  0.56060  0.89343  Biso   1.000  C
  C94      1.0000 0.59000  0.47410  0.88633  Biso   1.000  C
  H33      1.0000 0.59730  0.43760  0.93393  Biso   1.000  H
  C95      1.0000 0.52620  0.44220  0.80933  Biso   1.000  C
  C96      1.0000 0.46970  0.34960  0.79833  Biso   1.000  C
  C97      1.0000 0.51320  0.49440  0.74033  Biso   1.000  C
  H34      1.0000 0.46790  0.47150  0.68943  Biso   1.000  H
  C98      1.0000 0.56590  0.58040  0.74533  Biso   1.000  C
  C99      1.0000 0.55220  0.63730  0.67223  Biso   1.000  C
  C100     1.0000 0.63270  0.61170  0.82333  Biso   1.000  C
  H35      1.0000 0.67060  0.66990  0.82563  Biso   1.000  H
  O57      1.0000 0.48110  0.30510  0.87333  Biso   1.000  O
  O58      1.0000 0.42120  0.31760  0.72133  Biso   1.000  O
  O59      1.0000 0.50590  0.60690  0.58743  Biso   1.000  O
  O60      1.0000 0.59070  0.71520  0.69233  Biso   1.000  O
  Co5      1.0000 0.40241  0.19113  0.84686  Biso   1.000  Co
  O61      1.0000 0.86120  0.92700  0.02443  Biso   1.000  O
  O62      1.0000 0.76910  0.67740  0.96643  Biso   1.000  O
  O63      1.0000 0.71740  0.55530  0.04833  Biso   1.000  O
  O64      1.0000 0.29050  0.16720  0.88893  Biso   1.000  O
  O65      1.0000 0.22020  0.03380  0.83723  Biso   1.000  O
  C101     1.0000 0.93660  0.92310  0.28017  Biso   1.000  C
  H36      1.0000 0.89340  0.92750  0.24407  Biso   1.000  H
  C102     1.0000 0.93570  0.84750  0.27927  Biso   1.000  C
  C103     1.0000 0.87070  0.77420  0.21827  Biso   1.000  C
  C104     1.0000 0.88630  0.28490  0.30897  Biso   1.000  C
  C105     1.0000 0.92550  0.35810  0.23207  Biso   1.000  C
  C106     1.0000 0.88930  0.40920  0.23467  Biso   1.000  C
  H37      1.0000 0.84390  0.39640  0.28287  Biso   1.000  H
  C107     1.0000 0.92050  0.47770  0.16667  Biso   1.000  C
  C108     1.0000 0.88120  0.53120  0.16317  Biso   1.000  C
  C109     1.0000 0.98820  0.49950  0.09967  Biso   1.000  C
  H38      1.0000 0.00970  0.54830  0.05507  Biso   1.000  H
  C110     1.0000 0.02560  0.45010  0.09567  Biso   1.000  C
  C111     1.0000 0.10050  0.47530  0.02557  Biso   1.000  C
  C112     1.0000 0.99130  0.37860  0.16367  Biso   1.000  C
  H39      1.0000 0.01500  0.34360  0.16097  Biso   1.000  H
  O66      1.0000 0.82070  0.51340  0.23067  Biso   1.000  O
  O67      1.0000 0.90470  0.59030  0.09777  Biso   1.000  O
  O68      1.0000 0.12850  0.54070  0.96547  Biso   1.000  O
  O69      1.0000 0.13720  0.43300  0.03067  Biso   1.000  O
  C113     1.0000 0.91650  0.35590  0.22677  Biso   1.000  C
  C114     1.0000 0.88410  0.41000  0.21967  Biso   1.000  C
  H40      1.0000 0.84030  0.40270  0.26727  Biso   1.000  H
  C115     1.0000 0.91600  0.47380  0.14267  Biso   1.000  C
  C116     1.0000 0.87990  0.53030  0.13167  Biso   1.000  C
  C117     1.0000 0.98120  0.48680  0.07367  Biso   1.000  C
  H41      1.0000 0.00360  0.53210  0.02277  Biso   1.000  H
  C118     1.0000 0.01450  0.43410  0.07867  Biso   1.000  C
  C119     1.0000 0.08510  0.44780  0.00557  Biso   1.000  C
  C120     1.0000 0.97900  0.36730  0.15667  Biso   1.000  C
  H42      1.0000 0.99930  0.32940  0.15897  Biso   1.000  H
  O70      1.0000 0.82400  0.51890  0.20667  Biso   1.000  O
  O71      1.0000 0.89640  0.57880  0.05467  Biso   1.000  O
  O72      1.0000 0.10100  0.49410  0.92077  Biso   1.000  O
  O73      1.0000 0.12450  0.40930  0.02567  Biso   1.000  O
  Co6      1.0000 0.78872  0.59759  0.18020  Biso   1.000  Co
  O74      1.0000 0.06580  0.13880  0.35777  Biso   1.000  O
  O75      1.0000 0.90830  0.23090  0.29977  Biso   1.000  O
  O76      1.0000 0.83790  0.28260  0.38167  Biso   1.000  O
  O77      1.0000 0.87670  0.70950  0.22227  Biso   1.000  O
  O78      1.0000 0.81360  0.77980  0.17057  Biso   1.000  O
  C121     1.0000 0.00000  0.07210  0.33333  Biso   1.000  C
  C122     1.0000 0.00000  0.99170  0.33333  Biso   1.000  C
  C123     1.0000 0.00000  0.84240  0.33333  Biso   1.000  C
  H43      1.0000 0.00000  0.79130  0.33333  Biso   1.000  H
  Co7      1.0000 0.00000  0.20515  0.33333  Biso   1.000  Co
  C124     1.0000 0.92790  0.92790  0.00000  Biso   1.000  C
  C125     1.0000 0.00830  0.00830  0.00000  Biso   1.000  C
  C126     1.0000 0.15760  0.15760  0.00000  Biso   1.000  C
  H44      1.0000 0.20870  0.20870  0.00000  Biso   1.000  H
  Co8      1.0000 0.79485  0.79485  0.00000  Biso   1.000  Co
  C127     1.0000 0.07210  0.00000  0.66667  Biso   1.000  C
  C128     1.0000 0.99170  0.00000  0.66667  Biso   1.000  C
  C129     1.0000 0.84240  0.00000  0.66667  Biso   1.000  C
  H45      1.0000 0.79130  0.00000  0.66667  Biso   1.000  H
  Co9      1.0000 0.20515  0.00000  0.66667  Biso   1.000  Co
