data_image0
_cell_length_a       9.5837
_cell_length_b       12.643
_cell_length_c       13.9294
_cell_angle_alpha    90
_cell_angle_beta     110.093
_cell_angle_gamma    90

_symmetry_space_group_name_H-M    "P 1"
_symmetry_int_tables_number       1

loop_
  _symmetry_equiv_pos_as_xyz
  'x, y, z'

loop_
  _atom_site_label
  _atom_site_occupancy
  _atom_site_fract_x
  _atom_site_fract_y
  _atom_site_fract_z
  _atom_site_thermal_displace_type
  _atom_site_B_iso_or_equiv
  _atom_site_type_symbol
  C1       1.0000 0.69610  0.89905  0.87428  Biso   1.000  C
  C2       1.0000 0.83700  0.94520  0.86749  Biso   1.000  C
  C3       1.0000 0.84960  0.05530  0.87222  Biso   1.000  C
  H1       1.0000 0.76870  0.09720  0.87480  Biso   1.000  H
  C4       1.0000 0.98000  0.10360  0.87320  Biso   1.000  C
  C5       1.0000 0.10020  0.04250  0.87096  Biso   1.000  C
  H2       1.0000 0.18940  0.07550  0.87140  Biso   1.000  H
  C6       1.0000 0.08820  0.93279  0.86816  Biso   1.000  C
  C7       1.0000 0.95590  0.88379  0.86552  Biso   1.000  C
  H3       1.0000 0.94770  0.80890  0.86240  Biso   1.000  H
  C8       1.0000 0.21670  0.86944  0.86290  Biso   1.000  C
  C9       1.0000 0.51510  0.77298  0.07500  Biso   1.000  C
  C10      1.0000 0.51070  0.70944  0.16579  Biso   1.000  C
  C11      1.0000 0.51290  0.59974  0.16643  Biso   1.000  C
  H4       1.0000 0.52320  0.56220  0.11020  Biso   1.000  H
  Co1      1.0000 0.43542  0.77487  0.84285  Biso   1.000  Co
  O1       1.0000 0.63745  0.81584  0.82347  Biso   1.000  O
  O2       1.0000 0.64470  0.94597  0.93251  Biso   1.000  O
  O3       1.0000 0.20358  0.77299  0.84136  Biso   1.000  O
  O4       1.0000 0.34002  0.91555  0.87522  Biso   1.000  O
  O5       1.0000 0.47130  0.12925  0.91151  Biso   1.000  O
  O6       1.0000 0.50150  0.72376  0.99333  Biso   1.000  O
  O7       1.0000 0.44860  0.62014  0.81104  Biso   1.000  O
  C12      1.0000 0.00160  0.21930  0.88820  Biso   1.000  C
  O8       1.0000 0.91050  0.27370  0.91230  Biso   1.000  O
  O9       1.0000 0.12820  0.25160  0.89020  Biso   1.000  O
  H5       1.0000 0.13190  0.30830  0.85260  Biso   1.000  H
  C13      1.0000 0.98800  0.22260  0.87700  Biso   1.000  C
  O10      1.0000 0.87250  0.27360  0.87300  Biso   1.000  O
  O11      1.0000 0.10490  0.26690  0.87140  Biso   1.000  O
  H6       1.0000 0.15280  0.31390  0.91840  Biso   1.000  H
  C14      1.0000 0.30390  0.89905  0.62572  Biso   1.000  C
  C15      1.0000 0.16300  0.94520  0.63251  Biso   1.000  C
  C16      1.0000 0.15040  0.05530  0.62778  Biso   1.000  C
  H7       1.0000 0.23130  0.09720  0.62520  Biso   1.000  H
  C17      1.0000 0.02000  0.10360  0.62680  Biso   1.000  C
  C18      1.0000 0.89980  0.04250  0.62904  Biso   1.000  C
  H8       1.0000 0.81060  0.07550  0.62860  Biso   1.000  H
  C19      1.0000 0.91180  0.93279  0.63184  Biso   1.000  C
  C20      1.0000 0.04410  0.88379  0.63448  Biso   1.000  C
  H9       1.0000 0.05230  0.80890  0.63760  Biso   1.000  H
  C21      1.0000 0.78330  0.86944  0.63710  Biso   1.000  C
  C22      1.0000 0.48490  0.77298  0.42500  Biso   1.000  C
  C23      1.0000 0.48930  0.70944  0.33421  Biso   1.000  C
  C24      1.0000 0.48710  0.59974  0.33357  Biso   1.000  C
  H10      1.0000 0.47680  0.56220  0.38980  Biso   1.000  H
  Co2      1.0000 0.56458  0.77487  0.65715  Biso   1.000  Co
  O12      1.0000 0.36255  0.81584  0.67653  Biso   1.000  O
  O13      1.0000 0.35530  0.94597  0.56749  Biso   1.000  O
  O14      1.0000 0.79642  0.77299  0.65864  Biso   1.000  O
  O15      1.0000 0.65998  0.91555  0.62478  Biso   1.000  O
  O16      1.0000 0.52870  0.12925  0.58849  Biso   1.000  O
  O17      1.0000 0.49850  0.72376  0.50667  Biso   1.000  O
  O18      1.0000 0.55140  0.62014  0.68896  Biso   1.000  O
  C25      1.0000 0.99840  0.21930  0.61180  Biso   1.000  C
  O19      1.0000 0.08950  0.27370  0.58770  Biso   1.000  O
  O20      1.0000 0.87180  0.25160  0.60980  Biso   1.000  O
  H11      1.0000 0.86810  0.30830  0.64740  Biso   1.000  H
  C26      1.0000 0.01200  0.22260  0.62300  Biso   1.000  C
  O21      1.0000 0.12750  0.27360  0.62700  Biso   1.000  O
  O22      1.0000 0.89510  0.26690  0.62860  Biso   1.000  O
  H12      1.0000 0.84720  0.31390  0.58160  Biso   1.000  H
  C27      1.0000 0.30390  0.10095  0.12572  Biso   1.000  C
  C28      1.0000 0.16300  0.05480  0.13251  Biso   1.000  C
  C29      1.0000 0.15040  0.94470  0.12778  Biso   1.000  C
  H13      1.0000 0.23130  0.90280  0.12520  Biso   1.000  H
  C30      1.0000 0.02000  0.89640  0.12680  Biso   1.000  C
  C31      1.0000 0.89980  0.95750  0.12904  Biso   1.000  C
  H14      1.0000 0.81060  0.92450  0.12860  Biso   1.000  H
  C32      1.0000 0.91180  0.06721  0.13184  Biso   1.000  C
  C33      1.0000 0.04410  0.11621  0.13448  Biso   1.000  C
  H15      1.0000 0.05230  0.19110  0.13760  Biso   1.000  H
  C34      1.0000 0.78330  0.13056  0.13710  Biso   1.000  C
  C35      1.0000 0.48490  0.22702  0.92500  Biso   1.000  C
  C36      1.0000 0.48930  0.29056  0.83421  Biso   1.000  C
  C37      1.0000 0.48710  0.40026  0.83357  Biso   1.000  C
  H16      1.0000 0.47680  0.43780  0.88980  Biso   1.000  H
  Co3      1.0000 0.56458  0.22513  0.15715  Biso   1.000  Co
  O23      1.0000 0.36255  0.18416  0.17653  Biso   1.000  O
  O24      1.0000 0.35530  0.05403  0.06749  Biso   1.000  O
  O25      1.0000 0.79642  0.22701  0.15864  Biso   1.000  O
  O26      1.0000 0.65998  0.08445  0.12478  Biso   1.000  O
  O27      1.0000 0.52870  0.87075  0.08849  Biso   1.000  O
  O28      1.0000 0.49850  0.27624  0.00667  Biso   1.000  O
  O29      1.0000 0.55140  0.37986  0.18896  Biso   1.000  O
  C38      1.0000 0.99840  0.78070  0.11180  Biso   1.000  C
  O30      1.0000 0.08950  0.72630  0.08770  Biso   1.000  O
  O31      1.0000 0.87180  0.74840  0.10980  Biso   1.000  O
  H17      1.0000 0.86810  0.69170  0.14740  Biso   1.000  H
  C39      1.0000 0.01200  0.77740  0.12300  Biso   1.000  C
  O32      1.0000 0.12750  0.72640  0.12700  Biso   1.000  O
  O33      1.0000 0.89510  0.73310  0.12860  Biso   1.000  O
  H18      1.0000 0.84720  0.68610  0.08160  Biso   1.000  H
  C40      1.0000 0.69610  0.10095  0.37428  Biso   1.000  C
  C41      1.0000 0.83700  0.05480  0.36749  Biso   1.000  C
  C42      1.0000 0.84960  0.94470  0.37222  Biso   1.000  C
  H19      1.0000 0.76870  0.90280  0.37480  Biso   1.000  H
  C43      1.0000 0.98000  0.89640  0.37320  Biso   1.000  C
  C44      1.0000 0.10020  0.95750  0.37096  Biso   1.000  C
  H20      1.0000 0.18940  0.92450  0.37140  Biso   1.000  H
  C45      1.0000 0.08820  0.06721  0.36816  Biso   1.000  C
  C46      1.0000 0.95590  0.11621  0.36552  Biso   1.000  C
  H21      1.0000 0.94770  0.19110  0.36240  Biso   1.000  H
  C47      1.0000 0.21670  0.13056  0.36290  Biso   1.000  C
  C48      1.0000 0.51510  0.22702  0.57500  Biso   1.000  C
  C49      1.0000 0.51070  0.29056  0.66579  Biso   1.000  C
  C50      1.0000 0.51290  0.40026  0.66643  Biso   1.000  C
  H22      1.0000 0.52320  0.43780  0.61020  Biso   1.000  H
  Co4      1.0000 0.43542  0.22513  0.34285  Biso   1.000  Co
  O34      1.0000 0.63745  0.18416  0.32347  Biso   1.000  O
  O35      1.0000 0.64470  0.05403  0.43251  Biso   1.000  O
  O36      1.0000 0.20358  0.22701  0.34136  Biso   1.000  O
  O37      1.0000 0.34002  0.08445  0.37522  Biso   1.000  O
  O38      1.0000 0.47130  0.87075  0.41151  Biso   1.000  O
  O39      1.0000 0.50150  0.27624  0.49333  Biso   1.000  O
  O40      1.0000 0.44860  0.37986  0.31104  Biso   1.000  O
  C51      1.0000 0.00160  0.78070  0.38820  Biso   1.000  C
  O41      1.0000 0.91050  0.72630  0.41230  Biso   1.000  O
  O42      1.0000 0.12820  0.74840  0.39020  Biso   1.000  O
  H23      1.0000 0.13190  0.69170  0.35260  Biso   1.000  H
  C52      1.0000 0.98800  0.77740  0.37700  Biso   1.000  C
  O43      1.0000 0.87250  0.72640  0.37300  Biso   1.000  O
  O44      1.0000 0.10490  0.73310  0.37140  Biso   1.000  O
  H24      1.0000 0.15280  0.68610  0.41840  Biso   1.000  H
  C53      1.0000 0.50000  0.76380  0.25000  Biso   1.000  C
  H25      1.0000 0.50000  0.83890  0.25000  Biso   1.000  H
  C54      1.0000 0.50000  0.42550  0.25000  Biso   1.000  C
  C55      1.0000 0.50000  0.54430  0.25000  Biso   1.000  C
  C56      1.0000 0.50000  0.23620  0.75000  Biso   1.000  C
  H26      1.0000 0.50000  0.16110  0.75000  Biso   1.000  H
  C57      1.0000 0.50000  0.57450  0.75000  Biso   1.000  C
  C58      1.0000 0.50000  0.45570  0.75000  Biso   1.000  C
  Co5      1.0000 0.50000  0.00000  0.00000  Biso   1.000  Co
  Co6      1.0000 0.50000  0.00000  0.50000  Biso   1.000  Co
