data_image0
_cell_length_a       17.355
_cell_length_b       17.355
_cell_length_c       22.74
_cell_angle_alpha    90
_cell_angle_beta     90
_cell_angle_gamma    90

_symmetry_space_group_name_H-M    "P 1"
_symmetry_int_tables_number       1

loop_
  _symmetry_equiv_pos_as_xyz
  'x, y, z'

loop_
  _atom_site_label
  _atom_site_occupancy
  _atom_site_fract_x
  _atom_site_fract_y
  _atom_site_fract_z
  _atom_site_thermal_displace_type
  _atom_site_B_iso_or_equiv
  _atom_site_type_symbol
  N1       1.0000 0.37310  0.22910  0.45260  Biso   1.000  N
  N2       1.0000 0.62630  0.23570  0.49960  Biso   1.000  N
  C1       1.0000 0.43180  0.20270  0.46600  Biso   1.000  C
  C2       1.0000 0.49990  0.16500  0.48150  Biso   1.000  C
  C3       1.0000 0.56710  0.20640  0.49100  Biso   1.000  C
  C4       1.0000 0.49980  0.08090  0.49140  Biso   1.000  C
  C5       1.0000 0.56590  0.04220  0.51010  Biso   1.000  C
  C6       1.0000 0.56600  0.96370  0.51910  Biso   1.000  C
  C7       1.0000 0.69340  0.28320  0.62450  Biso   1.000  C
  C8       1.0000 0.69080  0.28420  0.68510  Biso   1.000  C
  C9       1.0000 0.28430  0.19550  0.57680  Biso   1.000  C
  C10      1.0000 0.28590  0.19260  0.63830  Biso   1.000  C
  C11      1.0000 0.21340  0.19300  0.76680  Biso   1.000  C
  C12      1.0000 0.21580  0.19290  0.82880  Biso   1.000  C
  H1       1.0000 0.61170  0.07070  0.51730  Biso   1.000  H
  H2       1.0000 0.65270  0.30660  0.60310  Biso   1.000  H
  H3       1.0000 0.64920  0.30870  0.70480  Biso   1.000  H
  H4       1.0000 0.31040  0.15630  0.55550  Biso   1.000  H
  H5       1.0000 0.31000  0.15090  0.65820  Biso   1.000  H
  H6       1.0000 0.18580  0.15390  0.74650  Biso   1.000  H
  H7       1.0000 0.19260  0.15150  0.84950  Biso   1.000  H
  H8       1.0000 0.61180  0.93930  0.53230  Biso   1.000  H
  N3       1.0000 0.12690  0.27090  0.45260  Biso   1.000  N
  N4       1.0000 0.87370  0.26430  0.49960  Biso   1.000  N
  C13      1.0000 0.06820  0.29730  0.46600  Biso   1.000  C
  C14      1.0000 0.00010  0.33500  0.48150  Biso   1.000  C
  C15      1.0000 0.93290  0.29360  0.49100  Biso   1.000  C
  C16      1.0000 0.00020  0.41910  0.49140  Biso   1.000  C
  C17      1.0000 0.93410  0.45780  0.51010  Biso   1.000  C
  C18      1.0000 0.93400  0.53630  0.51910  Biso   1.000  C
  C19      1.0000 0.80660  0.21680  0.62450  Biso   1.000  C
  C20      1.0000 0.80920  0.21580  0.68510  Biso   1.000  C
  C21      1.0000 0.21570  0.30450  0.57680  Biso   1.000  C
  C22      1.0000 0.21410  0.30740  0.63830  Biso   1.000  C
  C23      1.0000 0.28660  0.30700  0.76680  Biso   1.000  C
  C24      1.0000 0.28420  0.30710  0.82880  Biso   1.000  C
  H9       1.0000 0.88830  0.42930  0.51730  Biso   1.000  H
  H10      1.0000 0.84730  0.19340  0.60310  Biso   1.000  H
  H11      1.0000 0.85080  0.19130  0.70480  Biso   1.000  H
  H12      1.0000 0.18960  0.34370  0.55550  Biso   1.000  H
  H13      1.0000 0.19000  0.34910  0.65820  Biso   1.000  H
  H14      1.0000 0.31420  0.34610  0.74650  Biso   1.000  H
  H15      1.0000 0.30740  0.34850  0.84950  Biso   1.000  H
  H16      1.0000 0.88820  0.56070  0.53230  Biso   1.000  H
  N5       1.0000 0.27090  0.37310  0.45260  Biso   1.000  N
  N6       1.0000 0.26430  0.62630  0.49960  Biso   1.000  N
  C25      1.0000 0.29730  0.43180  0.46600  Biso   1.000  C
  C26      1.0000 0.33500  0.49990  0.48150  Biso   1.000  C
  C27      1.0000 0.29360  0.56710  0.49100  Biso   1.000  C
  C28      1.0000 0.41910  0.49980  0.49140  Biso   1.000  C
  C29      1.0000 0.45780  0.56590  0.51010  Biso   1.000  C
  C30      1.0000 0.53630  0.56600  0.51910  Biso   1.000  C
  C31      1.0000 0.21680  0.69340  0.62450  Biso   1.000  C
  C32      1.0000 0.21580  0.69080  0.68510  Biso   1.000  C
  C33      1.0000 0.30450  0.28430  0.57680  Biso   1.000  C
  C34      1.0000 0.30740  0.28590  0.63830  Biso   1.000  C
  C35      1.0000 0.30700  0.21340  0.76680  Biso   1.000  C
  C36      1.0000 0.30710  0.21580  0.82880  Biso   1.000  C
  H17      1.0000 0.42930  0.61170  0.51730  Biso   1.000  H
  H18      1.0000 0.19340  0.65270  0.60310  Biso   1.000  H
  H19      1.0000 0.19130  0.64920  0.70480  Biso   1.000  H
  H20      1.0000 0.34370  0.31040  0.55550  Biso   1.000  H
  H21      1.0000 0.34910  0.31000  0.65820  Biso   1.000  H
  H22      1.0000 0.34610  0.18580  0.74650  Biso   1.000  H
  H23      1.0000 0.34850  0.19260  0.84950  Biso   1.000  H
  H24      1.0000 0.56070  0.61180  0.53230  Biso   1.000  H
  N7       1.0000 0.22910  0.12690  0.45260  Biso   1.000  N
  N8       1.0000 0.23570  0.87370  0.49960  Biso   1.000  N
  C37      1.0000 0.20270  0.06820  0.46600  Biso   1.000  C
  C38      1.0000 0.16500  0.00010  0.48150  Biso   1.000  C
  C39      1.0000 0.20640  0.93290  0.49100  Biso   1.000  C
  C40      1.0000 0.08090  0.00020  0.49140  Biso   1.000  C
  C41      1.0000 0.04220  0.93410  0.51010  Biso   1.000  C
  C42      1.0000 0.96370  0.93400  0.51910  Biso   1.000  C
  C43      1.0000 0.28320  0.80660  0.62450  Biso   1.000  C
  C44      1.0000 0.28420  0.80920  0.68510  Biso   1.000  C
  C45      1.0000 0.19550  0.21570  0.57680  Biso   1.000  C
  C46      1.0000 0.19260  0.21410  0.63830  Biso   1.000  C
  C47      1.0000 0.19300  0.28660  0.76680  Biso   1.000  C
  C48      1.0000 0.19290  0.28420  0.82880  Biso   1.000  C
  H25      1.0000 0.07070  0.88830  0.51730  Biso   1.000  H
  H26      1.0000 0.30660  0.84730  0.60310  Biso   1.000  H
  H27      1.0000 0.30870  0.85080  0.70480  Biso   1.000  H
  H28      1.0000 0.15630  0.18960  0.55550  Biso   1.000  H
  H29      1.0000 0.15090  0.19000  0.65820  Biso   1.000  H
  H30      1.0000 0.15390  0.31420  0.74650  Biso   1.000  H
  H31      1.0000 0.15150  0.30740  0.84950  Biso   1.000  H
  H32      1.0000 0.93930  0.88820  0.53230  Biso   1.000  H
  N9       1.0000 0.62690  0.72910  0.04740  Biso   1.000  N
  N10      1.0000 0.37370  0.73570  0.00040  Biso   1.000  N
  C49      1.0000 0.56820  0.70270  0.03400  Biso   1.000  C
  C50      1.0000 0.50010  0.66500  0.01850  Biso   1.000  C
  C51      1.0000 0.43290  0.70640  0.00900  Biso   1.000  C
  C52      1.0000 0.50020  0.58090  0.00860  Biso   1.000  C
  C53      1.0000 0.43410  0.54220  0.98990  Biso   1.000  C
  C54      1.0000 0.43400  0.46370  0.98090  Biso   1.000  C
  C55      1.0000 0.30660  0.78320  0.87550  Biso   1.000  C
  C56      1.0000 0.30920  0.78420  0.81490  Biso   1.000  C
  C57      1.0000 0.71570  0.69550  0.92320  Biso   1.000  C
  C58      1.0000 0.71410  0.69260  0.86170  Biso   1.000  C
  C59      1.0000 0.78660  0.69300  0.73320  Biso   1.000  C
  C60      1.0000 0.78420  0.69290  0.67120  Biso   1.000  C
  H33      1.0000 0.38830  0.57070  0.98270  Biso   1.000  H
  H34      1.0000 0.34730  0.80660  0.89690  Biso   1.000  H
  H35      1.0000 0.35080  0.80870  0.79520  Biso   1.000  H
  H36      1.0000 0.68960  0.65630  0.94450  Biso   1.000  H
  H37      1.0000 0.69000  0.65090  0.84180  Biso   1.000  H
  H38      1.0000 0.81420  0.65390  0.75350  Biso   1.000  H
  H39      1.0000 0.80740  0.65150  0.65050  Biso   1.000  H
  H40      1.0000 0.38820  0.43930  0.96770  Biso   1.000  H
  N11      1.0000 0.87310  0.77090  0.04740  Biso   1.000  N
  N12      1.0000 0.12630  0.76430  0.00040  Biso   1.000  N
  C61      1.0000 0.93180  0.79730  0.03400  Biso   1.000  C
  C62      1.0000 0.99990  0.83500  0.01850  Biso   1.000  C
  C63      1.0000 0.06710  0.79360  0.00900  Biso   1.000  C
  C64      1.0000 0.99980  0.91910  0.00860  Biso   1.000  C
  C65      1.0000 0.06590  0.95780  0.98990  Biso   1.000  C
  C66      1.0000 0.06600  0.03630  0.98090  Biso   1.000  C
  C67      1.0000 0.19340  0.71680  0.87550  Biso   1.000  C
  C68      1.0000 0.19080  0.71580  0.81490  Biso   1.000  C
  C69      1.0000 0.78430  0.80450  0.92320  Biso   1.000  C
  C70      1.0000 0.78590  0.80740  0.86170  Biso   1.000  C
  C71      1.0000 0.71340  0.80700  0.73320  Biso   1.000  C
  C72      1.0000 0.71580  0.80710  0.67120  Biso   1.000  C
  H41      1.0000 0.11170  0.92930  0.98270  Biso   1.000  H
  H42      1.0000 0.15270  0.69340  0.89690  Biso   1.000  H
  H43      1.0000 0.14920  0.69130  0.79520  Biso   1.000  H
  H44      1.0000 0.81040  0.84370  0.94450  Biso   1.000  H
  H45      1.0000 0.81000  0.84910  0.84180  Biso   1.000  H
  H46      1.0000 0.68580  0.84610  0.75350  Biso   1.000  H
  H47      1.0000 0.69260  0.84850  0.65050  Biso   1.000  H
  H48      1.0000 0.11180  0.06070  0.96770  Biso   1.000  H
  N13      1.0000 0.72910  0.87310  0.04740  Biso   1.000  N
  N14      1.0000 0.73570  0.12630  0.00040  Biso   1.000  N
  C73      1.0000 0.70270  0.93180  0.03400  Biso   1.000  C
  C74      1.0000 0.66500  0.99990  0.01850  Biso   1.000  C
  C75      1.0000 0.70640  0.06710  0.00900  Biso   1.000  C
  C76      1.0000 0.58090  0.99980  0.00860  Biso   1.000  C
  C77      1.0000 0.54220  0.06590  0.98990  Biso   1.000  C
  C78      1.0000 0.46370  0.06600  0.98090  Biso   1.000  C
  C79      1.0000 0.78320  0.19340  0.87550  Biso   1.000  C
  C80      1.0000 0.78420  0.19080  0.81490  Biso   1.000  C
  C81      1.0000 0.69550  0.78430  0.92320  Biso   1.000  C
  C82      1.0000 0.69260  0.78590  0.86170  Biso   1.000  C
  C83      1.0000 0.69300  0.71340  0.73320  Biso   1.000  C
  C84      1.0000 0.69290  0.71580  0.67120  Biso   1.000  C
  H49      1.0000 0.57070  0.11170  0.98270  Biso   1.000  H
  H50      1.0000 0.80660  0.15270  0.89690  Biso   1.000  H
  H51      1.0000 0.80870  0.14920  0.79520  Biso   1.000  H
  H52      1.0000 0.65630  0.81040  0.94450  Biso   1.000  H
  H53      1.0000 0.65090  0.81000  0.84180  Biso   1.000  H
  H54      1.0000 0.65390  0.68580  0.75350  Biso   1.000  H
  H55      1.0000 0.65150  0.69260  0.65050  Biso   1.000  H
  H56      1.0000 0.43930  0.11180  0.96770  Biso   1.000  H
  N15      1.0000 0.77090  0.62690  0.04740  Biso   1.000  N
  N16      1.0000 0.76430  0.37370  0.00040  Biso   1.000  N
  C85      1.0000 0.79730  0.56820  0.03400  Biso   1.000  C
  C86      1.0000 0.83500  0.50010  0.01850  Biso   1.000  C
  C87      1.0000 0.79360  0.43290  0.00900  Biso   1.000  C
  C88      1.0000 0.91910  0.50020  0.00860  Biso   1.000  C
  C89      1.0000 0.95780  0.43410  0.98990  Biso   1.000  C
  C90      1.0000 0.03630  0.43400  0.98090  Biso   1.000  C
  C91      1.0000 0.71680  0.30660  0.87550  Biso   1.000  C
  C92      1.0000 0.71580  0.30920  0.81490  Biso   1.000  C
  C93      1.0000 0.80450  0.71570  0.92320  Biso   1.000  C
  C94      1.0000 0.80740  0.71410  0.86170  Biso   1.000  C
  C95      1.0000 0.80700  0.78660  0.73320  Biso   1.000  C
  C96      1.0000 0.80710  0.78420  0.67120  Biso   1.000  C
  H57      1.0000 0.92930  0.38830  0.98270  Biso   1.000  H
  H58      1.0000 0.69340  0.34730  0.89690  Biso   1.000  H
  H59      1.0000 0.69130  0.35080  0.79520  Biso   1.000  H
  H60      1.0000 0.84370  0.68960  0.94450  Biso   1.000  H
  H61      1.0000 0.84910  0.69000  0.84180  Biso   1.000  H
  H62      1.0000 0.84610  0.81420  0.75350  Biso   1.000  H
  H63      1.0000 0.84850  0.80740  0.65050  Biso   1.000  H
  H64      1.0000 0.06070  0.38820  0.96770  Biso   1.000  H
  N17      1.0000 0.62690  0.77090  0.54740  Biso   1.000  N
  N18      1.0000 0.37370  0.76430  0.50040  Biso   1.000  N
  C97      1.0000 0.56820  0.79730  0.53400  Biso   1.000  C
  C98      1.0000 0.50010  0.83500  0.51850  Biso   1.000  C
  C99      1.0000 0.43290  0.79360  0.50900  Biso   1.000  C
  C100     1.0000 0.50020  0.91910  0.50860  Biso   1.000  C
  C101     1.0000 0.43410  0.95780  0.48990  Biso   1.000  C
  C102     1.0000 0.43400  0.03630  0.48090  Biso   1.000  C
  C103     1.0000 0.30660  0.71680  0.37550  Biso   1.000  C
  C104     1.0000 0.30920  0.71580  0.31490  Biso   1.000  C
  C105     1.0000 0.71570  0.80450  0.42320  Biso   1.000  C
  C106     1.0000 0.71410  0.80740  0.36170  Biso   1.000  C
  C107     1.0000 0.78660  0.80700  0.23320  Biso   1.000  C
  C108     1.0000 0.78420  0.80710  0.17120  Biso   1.000  C
  H65      1.0000 0.38830  0.92930  0.48270  Biso   1.000  H
  H66      1.0000 0.34730  0.69340  0.39690  Biso   1.000  H
  H67      1.0000 0.35080  0.69130  0.29520  Biso   1.000  H
  H68      1.0000 0.68960  0.84370  0.44450  Biso   1.000  H
  H69      1.0000 0.69000  0.84910  0.34180  Biso   1.000  H
  H70      1.0000 0.81420  0.84610  0.25350  Biso   1.000  H
  H71      1.0000 0.80740  0.84850  0.15050  Biso   1.000  H
  H72      1.0000 0.38820  0.06070  0.46770  Biso   1.000  H
  N19      1.0000 0.87310  0.72910  0.54740  Biso   1.000  N
  N20      1.0000 0.12630  0.73570  0.50040  Biso   1.000  N
  C109     1.0000 0.93180  0.70270  0.53400  Biso   1.000  C
  C110     1.0000 0.99990  0.66500  0.51850  Biso   1.000  C
  C111     1.0000 0.06710  0.70640  0.50900  Biso   1.000  C
  C112     1.0000 0.99980  0.58090  0.50860  Biso   1.000  C
  C113     1.0000 0.06590  0.54220  0.48990  Biso   1.000  C
  C114     1.0000 0.06600  0.46370  0.48090  Biso   1.000  C
  C115     1.0000 0.19340  0.78320  0.37550  Biso   1.000  C
  C116     1.0000 0.19080  0.78420  0.31490  Biso   1.000  C
  C117     1.0000 0.78430  0.69550  0.42320  Biso   1.000  C
  C118     1.0000 0.78590  0.69260  0.36170  Biso   1.000  C
  C119     1.0000 0.71340  0.69300  0.23320  Biso   1.000  C
  C120     1.0000 0.71580  0.69290  0.17120  Biso   1.000  C
  H73      1.0000 0.11170  0.57070  0.48270  Biso   1.000  H
  H74      1.0000 0.15270  0.80660  0.39690  Biso   1.000  H
  H75      1.0000 0.14920  0.80870  0.29520  Biso   1.000  H
  H76      1.0000 0.81040  0.65630  0.44450  Biso   1.000  H
  H77      1.0000 0.81000  0.65090  0.34180  Biso   1.000  H
  H78      1.0000 0.68580  0.65390  0.25350  Biso   1.000  H
  H79      1.0000 0.69260  0.65150  0.15050  Biso   1.000  H
  H80      1.0000 0.11180  0.43930  0.46770  Biso   1.000  H
  N21      1.0000 0.72910  0.62690  0.54740  Biso   1.000  N
  N22      1.0000 0.73570  0.37370  0.50040  Biso   1.000  N
  C121     1.0000 0.70270  0.56820  0.53400  Biso   1.000  C
  C122     1.0000 0.66500  0.50010  0.51850  Biso   1.000  C
  C123     1.0000 0.70640  0.43290  0.50900  Biso   1.000  C
  C124     1.0000 0.58090  0.50020  0.50860  Biso   1.000  C
  C125     1.0000 0.54220  0.43410  0.48990  Biso   1.000  C
  C126     1.0000 0.46370  0.43400  0.48090  Biso   1.000  C
  C127     1.0000 0.78320  0.30660  0.37550  Biso   1.000  C
  C128     1.0000 0.78420  0.30920  0.31490  Biso   1.000  C
  C129     1.0000 0.69550  0.71570  0.42320  Biso   1.000  C
  C130     1.0000 0.69260  0.71410  0.36170  Biso   1.000  C
  C131     1.0000 0.69300  0.78660  0.23320  Biso   1.000  C
  C132     1.0000 0.69290  0.78420  0.17120  Biso   1.000  C
  H81      1.0000 0.57070  0.38830  0.48270  Biso   1.000  H
  H82      1.0000 0.80660  0.34730  0.39690  Biso   1.000  H
  H83      1.0000 0.80870  0.35080  0.29520  Biso   1.000  H
  H84      1.0000 0.65630  0.68960  0.44450  Biso   1.000  H
  H85      1.0000 0.65090  0.69000  0.34180  Biso   1.000  H
  H86      1.0000 0.65390  0.81420  0.25350  Biso   1.000  H
  H87      1.0000 0.65150  0.80740  0.15050  Biso   1.000  H
  H88      1.0000 0.43930  0.38820  0.46770  Biso   1.000  H
  N23      1.0000 0.77090  0.87310  0.54740  Biso   1.000  N
  N24      1.0000 0.76430  0.12630  0.50040  Biso   1.000  N
  C133     1.0000 0.79730  0.93180  0.53400  Biso   1.000  C
  C134     1.0000 0.83500  0.99990  0.51850  Biso   1.000  C
  C135     1.0000 0.79360  0.06710  0.50900  Biso   1.000  C
  C136     1.0000 0.91910  0.99980  0.50860  Biso   1.000  C
  C137     1.0000 0.95780  0.06590  0.48990  Biso   1.000  C
  C138     1.0000 0.03630  0.06600  0.48090  Biso   1.000  C
  C139     1.0000 0.71680  0.19340  0.37550  Biso   1.000  C
  C140     1.0000 0.71580  0.19080  0.31490  Biso   1.000  C
  C141     1.0000 0.80450  0.78430  0.42320  Biso   1.000  C
  C142     1.0000 0.80740  0.78590  0.36170  Biso   1.000  C
  C143     1.0000 0.80700  0.71340  0.23320  Biso   1.000  C
  C144     1.0000 0.80710  0.71580  0.17120  Biso   1.000  C
  H89      1.0000 0.92930  0.11170  0.48270  Biso   1.000  H
  H90      1.0000 0.69340  0.15270  0.39690  Biso   1.000  H
  H91      1.0000 0.69130  0.14920  0.29520  Biso   1.000  H
  H92      1.0000 0.84370  0.81040  0.44450  Biso   1.000  H
  H93      1.0000 0.84910  0.81000  0.34180  Biso   1.000  H
  H94      1.0000 0.84610  0.68580  0.25350  Biso   1.000  H
  H95      1.0000 0.84850  0.69260  0.15050  Biso   1.000  H
  H96      1.0000 0.06070  0.11180  0.46770  Biso   1.000  H
  N25      1.0000 0.37310  0.27090  0.95260  Biso   1.000  N
  N26      1.0000 0.62630  0.26430  0.99960  Biso   1.000  N
  C145     1.0000 0.43180  0.29730  0.96600  Biso   1.000  C
  C146     1.0000 0.49990  0.33500  0.98150  Biso   1.000  C
  C147     1.0000 0.56710  0.29360  0.99100  Biso   1.000  C
  C148     1.0000 0.49980  0.41910  0.99140  Biso   1.000  C
  C149     1.0000 0.56590  0.45780  0.01010  Biso   1.000  C
  C150     1.0000 0.56600  0.53630  0.01910  Biso   1.000  C
  C151     1.0000 0.69340  0.21680  0.12450  Biso   1.000  C
  C152     1.0000 0.69080  0.21580  0.18510  Biso   1.000  C
  C153     1.0000 0.28430  0.30450  0.07680  Biso   1.000  C
  C154     1.0000 0.28590  0.30740  0.13830  Biso   1.000  C
  C155     1.0000 0.21340  0.30700  0.26680  Biso   1.000  C
  C156     1.0000 0.21580  0.30710  0.32880  Biso   1.000  C
  H97      1.0000 0.61170  0.42930  0.01730  Biso   1.000  H
  H98      1.0000 0.65270  0.19340  0.10310  Biso   1.000  H
  H99      1.0000 0.64920  0.19130  0.20480  Biso   1.000  H
  H100     1.0000 0.31040  0.34370  0.05550  Biso   1.000  H
  H101     1.0000 0.31000  0.34910  0.15820  Biso   1.000  H
  H102     1.0000 0.18580  0.34610  0.24650  Biso   1.000  H
  H103     1.0000 0.19260  0.34850  0.34950  Biso   1.000  H
  H104     1.0000 0.61180  0.56070  0.03230  Biso   1.000  H
  N27      1.0000 0.12690  0.22910  0.95260  Biso   1.000  N
  N28      1.0000 0.87370  0.23570  0.99960  Biso   1.000  N
  C157     1.0000 0.06820  0.20270  0.96600  Biso   1.000  C
  C158     1.0000 0.00010  0.16500  0.98150  Biso   1.000  C
  C159     1.0000 0.93290  0.20640  0.99100  Biso   1.000  C
  C160     1.0000 0.00020  0.08090  0.99140  Biso   1.000  C
  C161     1.0000 0.93410  0.04220  0.01010  Biso   1.000  C
  C162     1.0000 0.93400  0.96370  0.01910  Biso   1.000  C
  C163     1.0000 0.80660  0.28320  0.12450  Biso   1.000  C
  C164     1.0000 0.80920  0.28420  0.18510  Biso   1.000  C
  C165     1.0000 0.21570  0.19550  0.07680  Biso   1.000  C
  C166     1.0000 0.21410  0.19260  0.13830  Biso   1.000  C
  C167     1.0000 0.28660  0.19300  0.26680  Biso   1.000  C
  C168     1.0000 0.28420  0.19290  0.32880  Biso   1.000  C
  H105     1.0000 0.88830  0.07070  0.01730  Biso   1.000  H
  H106     1.0000 0.84730  0.30660  0.10310  Biso   1.000  H
  H107     1.0000 0.85080  0.30870  0.20480  Biso   1.000  H
  H108     1.0000 0.18960  0.15630  0.05550  Biso   1.000  H
  H109     1.0000 0.19000  0.15090  0.15820  Biso   1.000  H
  H110     1.0000 0.31420  0.15390  0.24650  Biso   1.000  H
  H111     1.0000 0.30740  0.15150  0.34950  Biso   1.000  H
  H112     1.0000 0.88820  0.93930  0.03230  Biso   1.000  H
  N29      1.0000 0.27090  0.12690  0.95260  Biso   1.000  N
  N30      1.0000 0.26430  0.87370  0.99960  Biso   1.000  N
  C169     1.0000 0.29730  0.06820  0.96600  Biso   1.000  C
  C170     1.0000 0.33500  0.00010  0.98150  Biso   1.000  C
  C171     1.0000 0.29360  0.93290  0.99100  Biso   1.000  C
  C172     1.0000 0.41910  0.00020  0.99140  Biso   1.000  C
  C173     1.0000 0.45780  0.93410  0.01010  Biso   1.000  C
  C174     1.0000 0.53630  0.93400  0.01910  Biso   1.000  C
  C175     1.0000 0.21680  0.80660  0.12450  Biso   1.000  C
  C176     1.0000 0.21580  0.80920  0.18510  Biso   1.000  C
  C177     1.0000 0.30450  0.21570  0.07680  Biso   1.000  C
  C178     1.0000 0.30740  0.21410  0.13830  Biso   1.000  C
  C179     1.0000 0.30700  0.28660  0.26680  Biso   1.000  C
  C180     1.0000 0.30710  0.28420  0.32880  Biso   1.000  C
  H113     1.0000 0.42930  0.88830  0.01730  Biso   1.000  H
  H114     1.0000 0.19340  0.84730  0.10310  Biso   1.000  H
  H115     1.0000 0.19130  0.85080  0.20480  Biso   1.000  H
  H116     1.0000 0.34370  0.18960  0.05550  Biso   1.000  H
  H117     1.0000 0.34910  0.19000  0.15820  Biso   1.000  H
  H118     1.0000 0.34610  0.31420  0.24650  Biso   1.000  H
  H119     1.0000 0.34850  0.30740  0.34950  Biso   1.000  H
  H120     1.0000 0.56070  0.88820  0.03230  Biso   1.000  H
  N31      1.0000 0.22910  0.37310  0.95260  Biso   1.000  N
  N32      1.0000 0.23570  0.62630  0.99960  Biso   1.000  N
  C181     1.0000 0.20270  0.43180  0.96600  Biso   1.000  C
  C182     1.0000 0.16500  0.49990  0.98150  Biso   1.000  C
  C183     1.0000 0.20640  0.56710  0.99100  Biso   1.000  C
  C184     1.0000 0.08090  0.49980  0.99140  Biso   1.000  C
  C185     1.0000 0.04220  0.56590  0.01010  Biso   1.000  C
  C186     1.0000 0.96370  0.56600  0.01910  Biso   1.000  C
  C187     1.0000 0.28320  0.69340  0.12450  Biso   1.000  C
  C188     1.0000 0.28420  0.69080  0.18510  Biso   1.000  C
  C189     1.0000 0.19550  0.28430  0.07680  Biso   1.000  C
  C190     1.0000 0.19260  0.28590  0.13830  Biso   1.000  C
  C191     1.0000 0.19300  0.21340  0.26680  Biso   1.000  C
  C192     1.0000 0.19290  0.21580  0.32880  Biso   1.000  C
  H121     1.0000 0.07070  0.61170  0.01730  Biso   1.000  H
  H122     1.0000 0.30660  0.65270  0.10310  Biso   1.000  H
  H123     1.0000 0.30870  0.64920  0.20480  Biso   1.000  H
  H124     1.0000 0.15630  0.31040  0.05550  Biso   1.000  H
  H125     1.0000 0.15090  0.31000  0.15820  Biso   1.000  H
  H126     1.0000 0.15390  0.18580  0.24650  Biso   1.000  H
  H127     1.0000 0.15150  0.19260  0.34950  Biso   1.000  H
  H128     1.0000 0.93930  0.61180  0.03230  Biso   1.000  H
  Zn1      1.0000 0.25000  0.25000  0.45204  Biso   1.000  Zn
  N33      1.0000 0.25000  0.25000  0.54720  Biso   1.000  N
  N34      1.0000 0.25000  0.25000  0.85880  Biso   1.000  N
  C193     1.0000 0.25000  0.25000  0.67000  Biso   1.000  C
  C194     1.0000 0.25000  0.25000  0.73500  Biso   1.000  C
  Zn2      1.0000 0.75000  0.75000  0.04796  Biso   1.000  Zn
  N35      1.0000 0.75000  0.75000  0.95280  Biso   1.000  N
  N36      1.0000 0.75000  0.75000  0.64120  Biso   1.000  N
  C195     1.0000 0.75000  0.75000  0.83000  Biso   1.000  C
  C196     1.0000 0.75000  0.75000  0.76500  Biso   1.000  C
  Zn3      1.0000 0.75000  0.75000  0.54796  Biso   1.000  Zn
  N37      1.0000 0.75000  0.75000  0.45280  Biso   1.000  N
  N38      1.0000 0.75000  0.75000  0.14120  Biso   1.000  N
  C197     1.0000 0.75000  0.75000  0.33000  Biso   1.000  C
  C198     1.0000 0.75000  0.75000  0.26500  Biso   1.000  C
  Zn4      1.0000 0.25000  0.25000  0.95204  Biso   1.000  Zn
  N39      1.0000 0.25000  0.25000  0.04720  Biso   1.000  N
  N40      1.0000 0.25000  0.25000  0.35880  Biso   1.000  N
  C199     1.0000 0.25000  0.25000  0.17000  Biso   1.000  C
  C200     1.0000 0.25000  0.25000  0.23500  Biso   1.000  C
  Zn5      1.0000 0.75000  0.25000  0.50000  Biso   1.000  Zn
  Zn6      1.0000 0.25000  0.75000  0.50000  Biso   1.000  Zn
  Zn7      1.0000 0.25000  0.75000  0.00000  Biso   1.000  Zn
  Zn8      1.0000 0.75000  0.25000  0.00000  Biso   1.000  Zn
  N41      1.0000 0.75000  0.25000  0.59420  Biso   1.000  N
  C201     1.0000 0.75000  0.25000  0.71690  Biso   1.000  C
  N42      1.0000 0.25000  0.75000  0.59420  Biso   1.000  N
  C202     1.0000 0.25000  0.75000  0.71690  Biso   1.000  C
  N43      1.0000 0.25000  0.75000  0.90580  Biso   1.000  N
  C203     1.0000 0.25000  0.75000  0.78310  Biso   1.000  C
  N44      1.0000 0.75000  0.25000  0.90580  Biso   1.000  N
  C204     1.0000 0.75000  0.25000  0.78310  Biso   1.000  C
  N45      1.0000 0.25000  0.75000  0.40580  Biso   1.000  N
  C205     1.0000 0.25000  0.75000  0.28310  Biso   1.000  C
  N46      1.0000 0.75000  0.25000  0.40580  Biso   1.000  N
  C206     1.0000 0.75000  0.25000  0.28310  Biso   1.000  C
  N47      1.0000 0.75000  0.25000  0.09420  Biso   1.000  N
  C207     1.0000 0.75000  0.25000  0.21690  Biso   1.000  C
  N48      1.0000 0.25000  0.75000  0.09420  Biso   1.000  N
  C208     1.0000 0.25000  0.75000  0.21690  Biso   1.000  C
