data_ja102862j_si_005_clean
_audit_creation_date              2015-08-19
_audit_creation_method            'Materials Studio'
_symmetry_space_group_name_H-M    'P1'
_symmetry_Int_Tables_number       1
_symmetry_cell_setting            triclinic
loop_
_symmetry_equiv_pos_as_xyz
  x,y,z
_cell_length_a                    21.6266
_cell_length_b                    21.6266
_cell_length_c                    21.6266
_cell_angle_alpha                 60.0000
_cell_angle_beta                  60.0000
_cell_angle_gamma                 60.0000
loop_
_atom_site_label
_atom_site_type_symbol
_atom_site_fract_x
_atom_site_fract_y
_atom_site_fract_z
_atom_site_U_iso_or_equiv
_atom_site_adp_type
_atom_site_occupancy
Ni1    Ni    0.85849   0.04717   0.04717   0.01267  Uiso   1.00
Ni2    Ni    0.14151   0.95283   0.95283   0.01267  Uiso   1.00
Ni3    Ni    0.04717   0.04717   0.85849   0.01267  Uiso   1.00
Ni4    Ni    0.04717   0.85849   0.04717   0.01267  Uiso   1.00
Ni5    Ni    0.95283   0.14151   0.95283   0.01267  Uiso   1.00
Ni6    Ni    0.95283   0.95283   0.95283   0.01267  Uiso   1.00
Ni7    Ni    0.95283   0.95283   0.14151   0.01267  Uiso   1.00
Ni8    Ni    0.04717   0.04717   0.04717   0.01267  Uiso   1.00
H1     H     0.13071   0.97699   0.44615   0.01267  Uiso   1.00
H2     H     0.97699   0.13071   0.44615   0.01267  Uiso   1.00
H3     H     0.13071   0.44615   0.97699   0.01267  Uiso   1.00
H4     H     0.02301   0.55385   0.86929   0.01267  Uiso   1.00
H5     H     0.18880   0.06631   0.06631   0.01267  Uiso   1.00
H6     H     0.06631   0.67858   0.18880   0.01267  Uiso   1.00
H7     H     0.90500   0.09500   0.09500   0.01267  Uiso   1.00
H8     H     0.02301   0.86929   0.55385   0.01267  Uiso   1.00
H9     H     0.55385   0.86929   0.55385   0.01267  Uiso   1.00
H10    H     0.32142   0.93369   0.81120   0.01267  Uiso   1.00
H11    H     0.55385   0.86929   0.02301   0.01267  Uiso   1.00
H12    H     0.93369   0.93369   0.81120   0.01267  Uiso   1.00
H13    H     0.97699   0.44615   0.13071   0.01267  Uiso   1.00
H14    H     0.55385   0.02301   0.55385   0.01267  Uiso   1.00
H15    H     0.81120   0.93369   0.32142   0.01267  Uiso   1.00
H16    H     0.55385   0.02301   0.86929   0.01267  Uiso   1.00
H17    H     0.32142   0.81120   0.93369   0.01267  Uiso   1.00
H18    H     0.44615   0.97699   0.44615   0.01267  Uiso   1.00
H19    H     0.18880   0.67858   0.06631   0.01267  Uiso   1.00
H20    H     0.06631   0.06631   0.67858   0.01267  Uiso   1.00
H21    H     0.86929   0.02301   0.55385   0.01267  Uiso   1.00
H22    H     0.93369   0.81120   0.93369   0.01267  Uiso   1.00
H23    H     0.18880   0.06631   0.67858   0.01267  Uiso   1.00
H24    H     0.81120   0.32142   0.93369   0.01267  Uiso   1.00
H25    H     0.44615   0.44615   0.97699   0.01267  Uiso   1.00
H26    H     0.67858   0.06631   0.06631   0.01267  Uiso   1.00
H27    H     0.32142   0.93369   0.93369   0.01267  Uiso   1.00
H28    H     0.97699   0.44615   0.44615   0.01267  Uiso   1.00
H29    H     0.90500   0.90500   0.09500   0.01267  Uiso   1.00
H30    H     0.06631   0.18880   0.06631   0.01267  Uiso   1.00
H31    H     0.44615   0.13071   0.97699   0.01267  Uiso   1.00
H32    H     0.09500   0.90500   0.09500   0.01267  Uiso   1.00
H33    H     0.44615   0.13071   0.44615   0.01267  Uiso   1.00
H34    H     0.09500   0.90500   0.90500   0.01267  Uiso   1.00
H35    H     0.55385   0.55385   0.02301   0.01267  Uiso   1.00
H36    H     0.93369   0.32142   0.81120   0.01267  Uiso   1.00
H37    H     0.67858   0.06631   0.18880   0.01267  Uiso   1.00
H38    H     0.02301   0.55385   0.55385   0.01267  Uiso   1.00
H39    H     0.13071   0.44615   0.44615   0.01267  Uiso   1.00
H40    H     0.93369   0.93369   0.32142   0.01267  Uiso   1.00
H41    H     0.44615   0.44615   0.13071   0.01267  Uiso   1.00
H42    H     0.44615   0.97699   0.13071   0.01267  Uiso   1.00
H43    H     0.90500   0.09500   0.90500   0.01267  Uiso   1.00
H44    H     0.81120   0.93369   0.93369   0.01267  Uiso   1.00
H45    H     0.09500   0.09500   0.90500   0.01267  Uiso   1.00
H46    H     0.93369   0.81120   0.32142   0.01267  Uiso   1.00
H47    H     0.93369   0.32142   0.93369   0.01267  Uiso   1.00
H48    H     0.67858   0.18880   0.06631   0.01267  Uiso   1.00
H49    H     0.86929   0.55385   0.02301   0.01267  Uiso   1.00
H50    H     0.06631   0.18880   0.67858   0.01267  Uiso   1.00
H51    H     0.55385   0.55385   0.86929   0.01267  Uiso   1.00
H52    H     0.86929   0.55385   0.55385   0.01267  Uiso   1.00
H53    H     0.06631   0.06631   0.18880   0.01267  Uiso   1.00
H54    H     0.06631   0.67858   0.06631   0.01267  Uiso   1.00
C1     C     0.07765   0.46801   0.98633   0.01267  Uiso   1.00
C2     C     0.40909   0.64267   0.93718   0.01267  Uiso   1.00
C3     C     0.72069   0.00000  -0.00000   0.01267  Uiso   1.00
C4     C     0.07765   0.98633   0.46801   0.01267  Uiso   1.00
C5     C     0.64267   0.40909   0.01106   0.01267  Uiso   1.00
C6     C     0.93718   0.40909   0.64267   0.01267  Uiso   1.00
C7     C     0.96118   0.00683   0.46033   0.01267  Uiso   1.00
C8     C     0.93718   0.64267   0.01106   0.01267  Uiso   1.00
C9     C     0.00000   0.72069   0.00000   0.01267  Uiso   1.00
C10    C     0.46033   0.96118   0.57166   0.01267  Uiso   1.00
C11    C     0.96118   0.57166   0.46033   0.01267  Uiso   1.00
C12    C     0.72170   0.20476   0.03677   0.01267  Uiso   1.00
C13    C     0.01366   0.53199   0.92236   0.01267  Uiso   1.00
C14    C     0.92235   0.01367   0.53199   0.01267  Uiso   1.00
C15    C     0.96118   0.57166   0.00683   0.01267  Uiso   1.00
C16    C     0.01366   0.92236   0.53199   0.01267  Uiso   1.00
C17    C     0.27830   0.96323   0.79524   0.01267  Uiso   1.00
C18    C     0.46802   0.46801   0.07764   0.01267  Uiso   1.00
C19    C     0.20476   0.03677   0.03677   0.01267  Uiso   1.00
C20    C     0.20476   0.03677   0.72170   0.01267  Uiso   1.00
C21    C     0.00683   0.57166   0.46033   0.01267  Uiso   1.00
C22    C     0.35733   0.06282   0.98894   0.01267  Uiso   1.00
C23    C     0.57166   0.96118   0.00683   0.01267  Uiso   1.00
C24    C     0.92235   0.53199   0.01367   0.01267  Uiso   1.00
C25    C     0.46802   0.98633   0.46801   0.01267  Uiso   1.00
C26    C     0.72069   0.27931  -0.00000   0.01267  Uiso   1.00
C27    C     0.96118   0.46033   0.57166   0.01267  Uiso   1.00
C28    C     0.27931   0.00000   0.00000   0.01267  Uiso   1.00
C29    C     0.20476   0.72170   0.03677   0.01267  Uiso   1.00
C30    C     0.42834   0.03882   0.99317   0.01267  Uiso   1.00
C31    C     0.35733   0.98894   0.59091   0.01267  Uiso   1.00
C32    C     0.03677   0.20476   0.03677   0.01267  Uiso   1.00
C33    C     0.99317   0.53967   0.03882   0.01267  Uiso   1.00
C34    C     0.64267   0.93718   0.40909   0.01267  Uiso   1.00
C35    C     0.98894   0.06282   0.59091   0.01267  Uiso   1.00
C36    C     0.03677   0.72170   0.03677   0.01267  Uiso   1.00
C37    C     0.57166   0.46033   0.00683   0.01267  Uiso   1.00
C38    C     0.46802   0.07764   0.46801   0.01267  Uiso   1.00
C39    C     0.99317   0.03882   0.53967   0.01267  Uiso   1.00
C40    C     0.03882   0.53967   0.42834   0.01267  Uiso   1.00
C41    C     0.40909   0.93718   0.64267   0.01267  Uiso   1.00
C42    C     0.06282   0.59091   0.98894   0.01267  Uiso   1.00
C43    C     0.98894   0.35733   0.59091   0.01267  Uiso   1.00
C44    C     0.72069   0.00000   0.27931   0.01267  Uiso   1.00
C45    C     0.79524   0.96323   0.27830   0.01267  Uiso   1.00
C46    C     0.98634   0.46801   0.46801   0.01267  Uiso   1.00
C47    C     0.57166   0.96118   0.46033   0.01267  Uiso   1.00
C48    C     0.46033   0.00683   0.57166   0.01267  Uiso   1.00
C49    C     0.98894   0.59091   0.35733   0.01267  Uiso   1.00
C50    C     0.40909   0.01106   0.64267   0.01267  Uiso   1.00
C51    C     0.53198   0.53199   0.01367   0.01267  Uiso   1.00
C52    C     0.03677   0.03677   0.72170   0.01267  Uiso   1.00
C53    C     0.35733   0.59091   0.98894   0.01267  Uiso   1.00
C54    C     0.93718   0.01106   0.64267   0.01267  Uiso   1.00
C55    C     0.01106   0.64267   0.93718   0.01267  Uiso   1.00
C56    C     0.53198   0.01367   0.53199   0.01267  Uiso   1.00
C57    C     0.06282   0.35733   0.59091   0.01267  Uiso   1.00
C58    C     0.93718   0.01106   0.40909   0.01267  Uiso   1.00
C59    C     0.06282   0.59091   0.35733   0.01267  Uiso   1.00
C60    C     0.53198   0.92236   0.53199   0.01267  Uiso   1.00
C61    C     0.06282   0.98894   0.59091   0.01267  Uiso   1.00
C62    C     0.96323   0.27830   0.79524   0.01267  Uiso   1.00
C63    C     0.98634   0.07764   0.46801   0.01267  Uiso   1.00
C64    C     0.57166   0.00683   0.96118   0.01267  Uiso   1.00
C65    C     0.96323   0.27830   0.96323   0.01267  Uiso   1.00
C66    C     0.59091   0.06282   0.98894   0.01267  Uiso   1.00
C67    C     0.00683   0.46033   0.96118   0.01267  Uiso   1.00
C68    C     0.01106   0.93718   0.64267   0.01267  Uiso   1.00
C69    C     0.96323   0.79524   0.27830   0.01267  Uiso   1.00
C70    C     0.42834   0.99317   0.03882   0.01267  Uiso   1.00
C71    C     0.01106   0.40909   0.93718   0.01267  Uiso   1.00
C72    C     0.96118   0.00683   0.57166   0.01267  Uiso   1.00
C73    C     0.93718   0.40909   0.01106   0.01267  Uiso   1.00
C74    C     0.64267   0.40909   0.93718   0.01267  Uiso   1.00
C75    C     0.03882   0.99317   0.53967   0.01267  Uiso   1.00
C76    C     0.46033   0.57166   0.96118   0.01267  Uiso   1.00
C77    C     0.57166   0.00683   0.46033   0.01267  Uiso   1.00
C78    C     0.01366   0.53199   0.53199   0.01267  Uiso   1.00
C79    C     0.98894   0.35733   0.06282   0.01267  Uiso   1.00
C80    C     0.53967   0.03882   0.42834   0.01267  Uiso   1.00
C81    C     0.53967   0.03882   0.99317   0.01267  Uiso   1.00
C82    C     0.59091   0.98894   0.35733   0.01267  Uiso   1.00
C83    C     0.96323   0.79524   0.96323   0.01267  Uiso   1.00
C84    C     0.03677   0.72170   0.20476   0.01267  Uiso   1.00
C85    C     0.72170   0.03677   0.03677   0.01267  Uiso   1.00
C86    C     0.46033   0.96118   0.00683   0.01267  Uiso   1.00
C87    C     0.96323   0.96323   0.27830   0.01267  Uiso   1.00
C88    C     0.99317   0.03882   0.42834   0.01267  Uiso   1.00
C89    C     0.03677   0.20476   0.72170   0.01267  Uiso   1.00
C90    C     0.53967   0.99317   0.42834   0.01267  Uiso   1.00
C91    C     0.07765   0.46801   0.46801   0.01267  Uiso   1.00
C92    C     0.00000   0.27931   0.00000   0.01267  Uiso   1.00
C93    C     0.98894   0.06282   0.35733   0.01267  Uiso   1.00
C94    C     0.53967   0.42834   0.99317   0.01267  Uiso   1.00
C95    C     0.99317   0.42834   0.53967   0.01267  Uiso   1.00
C96    C     0.03882   0.53967   0.99317   0.01267  Uiso   1.00
C97    C     0.42834   0.53967   0.03882   0.01267  Uiso   1.00
C98    C     0.06282   0.98894   0.35733   0.01267  Uiso   1.00
C99    C     0.53198   0.01367   0.92236   0.01267  Uiso   1.00
C100   C     0.46802   0.46801   0.98633   0.01267  Uiso   1.00
C101   C     0.27931   0.00000   0.72069   0.01267  Uiso   1.00
C102   C     0.00000   0.27931   0.72069   0.01267  Uiso   1.00
C103   C     0.46802   0.98633   0.07764   0.01267  Uiso   1.00
C104   C     0.64267   0.01106   0.93718   0.01267  Uiso   1.00
C105   C     0.99317   0.53967   0.42834   0.01267  Uiso   1.00
C106   C     0.03882   0.99317   0.42834   0.01267  Uiso   1.00
C107   C     0.42834   0.03882   0.53967   0.01267  Uiso   1.00
C108   C     0.98634   0.46801   0.07764   0.01267  Uiso   1.00
C109   C     0.00000   0.72069   0.27931   0.01267  Uiso   1.00
C110   C     0.92235   0.53199   0.53199   0.01267  Uiso   1.00
C111   C     0.42834   0.99317   0.53967   0.01267  Uiso   1.00
C112   C     0.00000   0.00000   0.27931   0.01267  Uiso   1.00
C113   C     0.27931   0.72069   0.00000   0.01267  Uiso   1.00
C114   C     0.64267   0.01106   0.40909   0.01267  Uiso   1.00
C115   C     0.06282   0.35733   0.98894   0.01267  Uiso   1.00
C116   C     0.96323   0.96323   0.79524   0.01267  Uiso   1.00
C117   C     0.99317   0.42834   0.03882   0.01267  Uiso   1.00
C118   C     0.96118   0.46033   0.00683   0.01267  Uiso   1.00
C119   C     0.03677   0.03677   0.20476   0.01267  Uiso   1.00
C120   C     0.79524   0.27830   0.96323   0.01267  Uiso   1.00
C121   C     0.01106   0.93718   0.40909   0.01267  Uiso   1.00
C122   C     0.46033   0.00683   0.96118   0.01267  Uiso   1.00
C123   C     0.59091   0.98894   0.06282   0.01267  Uiso   1.00
C124   C     0.72170   0.03677   0.20476   0.01267  Uiso   1.00
C125   C     0.53198   0.92236   0.01367   0.01267  Uiso   1.00
C126   C     0.64267   0.93718   0.01106   0.01267  Uiso   1.00
C127   C     0.35733   0.59091   0.06282   0.01267  Uiso   1.00
C128   C     0.53198   0.53199   0.92236   0.01267  Uiso   1.00
C129   C     0.42834   0.53967   0.99317   0.01267  Uiso   1.00
C130   C     0.35733   0.98894   0.06282   0.01267  Uiso   1.00
C131   C     0.00683   0.57166   0.96118   0.01267  Uiso   1.00
C132   C     0.59091   0.35733   0.98894   0.01267  Uiso   1.00
C133   C     0.01106   0.40909   0.64267   0.01267  Uiso   1.00
C134   C     0.79524   0.96323   0.96323   0.01267  Uiso   1.00
C135   C     0.57166   0.46033   0.96118   0.01267  Uiso   1.00
C136   C     0.40909   0.93718   0.01106   0.01267  Uiso   1.00
C137   C     0.00000   0.00000   0.72069   0.01267  Uiso   1.00
C138   C     0.01106   0.64267   0.40909   0.01267  Uiso   1.00
C139   C     0.59091   0.35733   0.06282   0.01267  Uiso   1.00
C140   C     0.27830   0.79524   0.96323   0.01267  Uiso   1.00
C141   C     0.53967   0.42834   0.03882   0.01267  Uiso   1.00
C142   C     0.03882   0.42834   0.99317   0.01267  Uiso   1.00
C143   C     0.53967   0.99317   0.03882   0.01267  Uiso   1.00
C144   C     0.27830   0.96323   0.96323   0.01267  Uiso   1.00
C145   C     0.59091   0.06282   0.35733   0.01267  Uiso   1.00
C146   C     0.40909   0.01106   0.93718   0.01267  Uiso   1.00
C147   C     0.98894   0.59091   0.06282   0.01267  Uiso   1.00
C148   C     0.46033   0.57166   0.00683   0.01267  Uiso   1.00
C149   C     0.00683   0.96118   0.57166   0.01267  Uiso   1.00
C150   C     0.40909   0.64267   0.01106   0.01267  Uiso   1.00
C151   C     0.03882   0.42834   0.53967   0.01267  Uiso   1.00
C152   C     0.00683   0.96118   0.46033   0.01267  Uiso   1.00
C153   C     0.00683   0.46033   0.57166   0.01267  Uiso   1.00
C154   C     0.93718   0.64267   0.40909   0.01267  Uiso   1.00
C155   C     0.35733   0.06282   0.59091   0.01267  Uiso   1.00
C156   C     0.46802   0.07764   0.98633   0.01267  Uiso   1.00
N1     N     0.97727   0.20313   0.84232   0.01267  Uiso   1.00
N2     N     0.15769   0.02272   0.02272   0.01267  Uiso   1.00
N3     N     0.02273   0.15768   0.79687   0.01267  Uiso   1.00
N4     N     0.65457   0.34543  -0.00000   0.01267  Uiso   1.00
N5     N     0.20312   0.97728   0.84232   0.01267  Uiso   1.00
N6     N     0.00000   0.65457   0.34543   0.01267  Uiso   1.00
N7     N     0.84231   0.97728   0.97728   0.01267  Uiso   1.00
N8     N     0.97727   0.97728   0.84232   0.01267  Uiso   1.00
N9     N     0.97727   0.84232   0.20313   0.01267  Uiso   1.00
N10    N     0.20312   0.97728   0.97728   0.01267  Uiso   1.00
N11    N     0.97727   0.20313   0.97728   0.01267  Uiso   1.00
N12    N     0.00000   0.34543   0.65457   0.01267  Uiso   1.00
N13    N     0.97727   0.84232   0.97728   0.01267  Uiso   1.00
N14    N     0.00000   0.00000   0.65457   0.01267  Uiso   1.00
N15    N     0.79688   0.02272   0.02272   0.01267  Uiso   1.00
N16    N     0.02273   0.79687   0.02272   0.01267  Uiso   1.00
N17    N     0.65457   0.00000  -0.00000   0.01267  Uiso   1.00
N18    N     0.34543   0.65457   0.00000   0.01267  Uiso   1.00
N19    N     0.20312   0.84232   0.97728   0.01267  Uiso   1.00
N20    N     0.34543   0.00000  -0.00000   0.01267  Uiso   1.00
N21    N     0.84231   0.97728   0.20313   0.01267  Uiso   1.00
N22    N     0.15769   0.02272   0.79687   0.01267  Uiso   1.00
N23    N     0.02273   0.79687   0.15768   0.01267  Uiso   1.00
N24    N     0.34543   0.00000   0.65457   0.01267  Uiso   1.00
N25    N     0.97727   0.97728   0.20313   0.01267  Uiso   1.00
N26    N     0.02273   0.15768   0.02272   0.01267  Uiso   1.00
N27    N     0.00000   0.65457   0.00000   0.01267  Uiso   1.00
N28    N     0.84231   0.20313   0.97728   0.01267  Uiso   1.00
N29    N     0.02273   0.02272   0.15768   0.01267  Uiso   1.00
N30    N     0.79688   0.15768   0.02272   0.01267  Uiso   1.00
N31    N     0.00000   0.34543   0.00000   0.01267  Uiso   1.00
N32    N     0.79688   0.02272   0.15768   0.01267  Uiso   1.00
N33    N     0.00000   0.00000   0.34543   0.01267  Uiso   1.00
N34    N     0.02273   0.02272   0.79687   0.01267  Uiso   1.00
N35    N     0.65457   0.00000   0.34543   0.01267  Uiso   1.00
N36    N     0.15769   0.79687   0.02272   0.01267  Uiso   1.00
O1     O     0.12604   0.58187   0.31428   0.01267  Uiso   1.00
O2     O     0.93930   0.93930   0.06070   0.01267  Uiso   1.00
O3     O     0.87396   0.41813   0.68572   0.01267  Uiso   1.00
O4     O     0.58187   0.12604   0.31428   0.01267  Uiso   1.00
O5     O     0.41813   0.02219   0.68572   0.01267  Uiso   1.00
O6     O     0.68572   0.87396   0.41813   0.01267  Uiso   1.00
O7     O     0.68572   0.87396   0.02219   0.01267  Uiso   1.00
O8     O     0.12604   0.58187   0.97781   0.01267  Uiso   1.00
O9     O     0.41813   0.87396   0.68572   0.01267  Uiso   1.00
O10    O     0.97781   0.12604   0.31428   0.01267  Uiso   1.00
O11    O     0.58187   0.97781   0.12604   0.01267  Uiso   1.00
O12    O     0.87396   0.41813   0.02219   0.01267  Uiso   1.00
O13    O     0.12604   0.97781   0.31428   0.01267  Uiso   1.00
O14    O     0.41813   0.02219   0.87396   0.01267  Uiso   1.00
O15    O     0.68572   0.41813   0.87396   0.01267  Uiso   1.00
O16    O     0.06070   0.06070   0.93930   0.01267  Uiso   1.00
O17    O     0.31428   0.58187   0.97781   0.01267  Uiso   1.00
O18    O     0.58187   0.31428   0.97781   0.01267  Uiso   1.00
O19    O     0.31428   0.97781   0.12604   0.01267  Uiso   1.00
O20    O     0.06070   0.93930   0.93930   0.01267  Uiso   1.00
O21    O     0.87396   0.68572   0.41813   0.01267  Uiso   1.00
O22    O     0.97781   0.58187   0.31428   0.01267  Uiso   1.00
O23    O     0.97781   0.31428   0.58187   0.01267  Uiso   1.00
O24    O     0.41813   0.68572   0.87396   0.01267  Uiso   1.00
O25    O     0.68572   0.41813   0.02219   0.01267  Uiso   1.00
O26    O     0.87396   0.68572   0.02219   0.01267  Uiso   1.00
O27    O     0.31428   0.58187   0.12604   0.01267  Uiso   1.00
O28    O     0.58187   0.31428   0.12604   0.01267  Uiso   1.00
O29    O     0.12604   0.97781   0.58187   0.01267  Uiso   1.00
O30    O     0.12604   0.31428   0.97781   0.01267  Uiso   1.00
O31    O     0.02219   0.41813   0.87396   0.01267  Uiso   1.00
O32    O     0.58187   0.97781   0.31428   0.01267  Uiso   1.00
O33    O     0.12604   0.31428   0.58187   0.01267  Uiso   1.00
O34    O     0.02219   0.68572   0.41813   0.01267  Uiso   1.00
O35    O     0.93930   0.06070   0.93930   0.01267  Uiso   1.00
O36    O     0.87396   0.02219   0.68572   0.01267  Uiso   1.00
O37    O     0.97781   0.12604   0.58187   0.01267  Uiso   1.00
O38    O     0.02219   0.87396   0.68572   0.01267  Uiso   1.00
O39    O     0.68572   0.02219   0.87396   0.01267  Uiso   1.00
O40    O     0.41813   0.68572   0.02219   0.01267  Uiso   1.00
O41    O     0.31428   0.12604   0.97781   0.01267  Uiso   1.00
O42    O     0.97781   0.58187   0.12604   0.01267  Uiso   1.00
O43    O     0.06070   0.93930   0.06070   0.01267  Uiso   1.00
O44    O     0.31428   0.12604   0.58187   0.01267  Uiso   1.00
O45    O     0.58187   0.12604   0.97781   0.01267  Uiso   1.00
O46    O     0.97781   0.31428   0.12604   0.01267  Uiso   1.00
O47    O     0.93930   0.06070   0.06070   0.01267  Uiso   1.00
O48    O     0.87396   0.02219   0.41813   0.01267  Uiso   1.00
O49    O     0.31428   0.97781   0.58187   0.01267  Uiso   1.00
O50    O     0.68572   0.02219   0.41813   0.01267  Uiso   1.00
O51    O     0.02219   0.68572   0.87396   0.01267  Uiso   1.00
O52    O     0.41813   0.87396   0.02219   0.01267  Uiso   1.00
O53    O     0.02219   0.41813   0.68572   0.01267  Uiso   1.00
O54    O     0.02219   0.87396   0.41813   0.01267  Uiso   1.00
