data_ja101440z_si_001_clean
_audit_creation_date              2015-08-19
_audit_creation_method            'Materials Studio'
_symmetry_space_group_name_H-M    'P1'
_symmetry_Int_Tables_number       1
_symmetry_cell_setting            triclinic
loop_
_symmetry_equiv_pos_as_xyz
  x,y,z
_cell_length_a                    10.9733
_cell_length_b                    10.9733
_cell_length_c                    13.5640
_cell_angle_alpha                 90.0000
_cell_angle_beta                  90.0000
_cell_angle_gamma                 106.2660
loop_
_atom_site_label
_atom_site_type_symbol
_atom_site_fract_x
_atom_site_fract_y
_atom_site_fract_z
_atom_site_U_iso_or_equiv
_atom_site_adp_type
_atom_site_occupancy
Ca1    Ca    0.67476   0.32524   0.75000   0.01267  Uiso   1.00
Ca2    Ca    0.32524   0.67476   0.25000   0.01267  Uiso   1.00
Zn1    Zn    0.80210   0.59270   0.92918   0.01267  Uiso   1.00
Zn2    Zn    0.40730   0.19790   0.57082   0.01267  Uiso   1.00
Zn3    Zn    0.19790   0.40730   0.42918   0.01267  Uiso   1.00
Zn4    Zn    0.59270   0.80210   0.07082   0.01267  Uiso   1.00
H1     H     0.31730   0.10590   0.25980   0.01267  Uiso   1.00
H2     H     0.43800   0.86680   0.53450   0.01267  Uiso   1.00
H3     H     0.47320   0.44440   0.12940   0.01267  Uiso   1.00
H4     H     0.13320   0.56200   0.96550   0.01267  Uiso   1.00
H5     H     0.52680   0.55560   0.62940   0.01267  Uiso   1.00
H6     H     0.55560   0.52680   0.37060   0.01267  Uiso   1.00
H7     H     0.10590   0.31730   0.74020   0.01267  Uiso   1.00
H8     H     0.56200   0.13320   0.03450   0.01267  Uiso   1.00
H9     H     0.89410   0.68270   0.24020   0.01267  Uiso   1.00
H10    H     0.86680   0.43800   0.46550   0.01267  Uiso   1.00
H11    H     0.68270   0.89410   0.75980   0.01267  Uiso   1.00
H12    H     0.44440   0.47320   0.87060   0.01267  Uiso   1.00
C1     C     0.03730   0.55990   0.33830   0.01267  Uiso   1.00
C2     C     0.51830   0.17150   0.07800   0.01267  Uiso   1.00
C3     C     0.53094   0.30006   0.07050   0.01267  Uiso   1.00
C4     C     0.61931   0.37429   0.99330   0.01267  Uiso   1.00
C5     C     0.62850   0.84530   0.71300   0.01267  Uiso   1.00
C6     C     0.38069   0.62571   0.49330   0.01267  Uiso   1.00
C7     C     0.96270   0.44010   0.83830   0.01267  Uiso   1.00
C8     C     0.55990   0.03730   0.66170   0.01267  Uiso   1.00
C9     C     0.17150   0.51830   0.92200   0.01267  Uiso   1.00
C10    C     0.15470   0.37150   0.78700   0.01267  Uiso   1.00
C11    C     0.65164   0.68676   0.22710   0.01267  Uiso   1.00
C12    C     0.31324   0.34836   0.27290   0.01267  Uiso   1.00
C13    C     0.69994   0.46906   0.42950   0.01267  Uiso   1.00
C14    C     0.38430   0.28510   0.20490   0.01267  Uiso   1.00
C15    C     0.46422   0.35778   0.13420   0.01267  Uiso   1.00
C16    C     0.62571   0.38069   0.50670   0.01267  Uiso   1.00
C17    C     0.55870   0.90090   0.64980   0.01267  Uiso   1.00
C18    C     0.30006   0.53094   0.92950   0.01267  Uiso   1.00
C19    C     0.82850   0.48170   0.42200   0.01267  Uiso   1.00
C20    C     0.34836   0.31324   0.72710   0.01267  Uiso   1.00
C21    C     0.64222   0.53578   0.36580   0.01267  Uiso   1.00
C22    C     0.44130   0.09910   0.14980   0.01267  Uiso   1.00
C23    C     0.48170   0.82850   0.57800   0.01267  Uiso   1.00
C24    C     0.09910   0.44130   0.85020   0.01267  Uiso   1.00
C25    C     0.37150   0.15470   0.21300   0.01267  Uiso   1.00
C26    C     0.44010   0.96270   0.16170   0.01267  Uiso   1.00
C27    C     0.71490   0.61570   0.29510   0.01267  Uiso   1.00
C28    C     0.61570   0.71490   0.70490   0.01267  Uiso   1.00
C29    C     0.35778   0.46422   0.86580   0.01267  Uiso   1.00
C30    C     0.53578   0.64222   0.63420   0.01267  Uiso   1.00
C31    C     0.90090   0.55870   0.35020   0.01267  Uiso   1.00
C32    C     0.46906   0.69994   0.57050   0.01267  Uiso   1.00
C33    C     0.37429   0.61931   0.00670   0.01267  Uiso   1.00
C34    C     0.84530   0.62850   0.28700   0.01267  Uiso   1.00
C35    C     0.68676   0.65164   0.77290   0.01267  Uiso   1.00
C36    C     0.28510   0.38430   0.79510   0.01267  Uiso   1.00
O1     O     0.46047   0.31599   0.73966   0.01267  Uiso   1.00
O2     O     0.36585   0.89273   0.21997   0.01267  Uiso   1.00
O3     O     0.49188   0.66660   0.98912   0.01267  Uiso   1.00
O4     O     0.31792   0.64330   0.08062   0.01267  Uiso   1.00
O5     O     0.50812   0.33340   0.48912   0.01267  Uiso   1.00
O6     O     0.68208   0.35670   0.58062   0.01267  Uiso   1.00
O7     O     0.25185   0.28415   0.34460   0.01267  Uiso   1.00
O8     O     0.33340   0.50812   0.51088   0.01267  Uiso   1.00
O9     O     0.31599   0.46047   0.26034   0.01267  Uiso   1.00
O10    O     0.71585   0.74815   0.15540   0.01267  Uiso   1.00
O11    O     0.66660   0.49188   0.01088   0.01267  Uiso   1.00
O12    O     0.64330   0.31792   0.91938   0.01267  Uiso   1.00
O13    O     0.28415   0.25185   0.65540   0.01267  Uiso   1.00
O14    O     0.35670   0.68208   0.41938   0.01267  Uiso   1.00
O15    O     0.08133   0.50851   0.40125   0.01267  Uiso   1.00
O16    O     0.05866   0.46020   0.38363   0.01267  Uiso   1.00
O17    O     0.50851   0.08133   0.59875   0.01267  Uiso   1.00
O18    O     0.53953   0.68401   0.23966   0.01267  Uiso   1.00
O19    O     0.74815   0.71585   0.84460   0.01267  Uiso   1.00
O20    O     0.49149   0.91867   0.09875   0.01267  Uiso   1.00
O21    O     0.10727   0.63415   0.28003   0.01267  Uiso   1.00
O22    O     0.89273   0.36585   0.78003   0.01267  Uiso   1.00
O23    O     0.91867   0.49149   0.90125   0.01267  Uiso   1.00
O24    O     0.46020   0.05866   0.61637   0.01267  Uiso   1.00
O25    O     0.94134   0.53980   0.88363   0.01267  Uiso   1.00
O26    O     0.53980   0.94134   0.11637   0.01267  Uiso   1.00
O27    O     0.68401   0.53953   0.76034   0.01267  Uiso   1.00
O28    O     0.63415   0.10727   0.71997   0.01267  Uiso   1.00
