data_image0
_cell_length_a       16.5843
_cell_length_b       16.599
_cell_length_c       22.2252
_cell_angle_alpha    90
_cell_angle_beta     90
_cell_angle_gamma    90

_symmetry_space_group_name_H-M    "P 1"
_symmetry_int_tables_number       1

loop_
  _symmetry_equiv_pos_as_xyz
  'x, y, z'

loop_
  _atom_site_label
  _atom_site_occupancy
  _atom_site_fract_x
  _atom_site_fract_y
  _atom_site_fract_z
  _atom_site_thermal_displace_type
  _atom_site_B_iso_or_equiv
  _atom_site_type_symbol
  O1       1.0000 0.08511  0.58394  0.45117  Biso   1.000  O
  C1       1.0000 0.20110  0.70200  0.44630  Biso   1.000  C
  H1       1.0000 0.18110  0.68070  0.40950  Biso   1.000  H
  C2       1.0000 0.25900  0.76170  0.44430  Biso   1.000  C
  H2       1.0000 0.27780  0.78290  0.40720  Biso   1.000  H
  N1       1.0000 0.05930  0.44030  0.06390  Biso   1.000  N
  C3       1.0000 0.04710  0.55190  0.31240  Biso   1.000  C
  H3       1.0000 0.08010  0.59050  0.33210  Biso   1.000  H
  C4       1.0000 0.04750  0.54920  0.25330  Biso   1.000  C
  H4       1.0000 0.08330  0.58400  0.23230  Biso   1.000  H
  C5       1.0000 0.03510  0.44380  0.12530  Biso   1.000  C
  C6       1.0000 0.04750  0.36130  0.15470  Biso   1.000  C
  H5       1.0000 0.03630  0.34560  0.19490  Biso   1.000  H
  C7       1.0000 0.08030  0.31310  0.10670  Biso   1.000  C
  H6       1.0000 0.08930  0.25670  0.10860  Biso   1.000  H
  C8       1.0000 0.09870  0.36670  0.05190  Biso   1.000  C
  O2       1.0000 0.91489  0.41606  0.45117  Biso   1.000  O
  C9       1.0000 0.79890  0.29800  0.44630  Biso   1.000  C
  H7       1.0000 0.81890  0.31930  0.40950  Biso   1.000  H
  C10      1.0000 0.74100  0.23830  0.44430  Biso   1.000  C
  H8       1.0000 0.72220  0.21710  0.40720  Biso   1.000  H
  N2       1.0000 0.94070  0.55970  0.06390  Biso   1.000  N
  C11      1.0000 0.95290  0.44810  0.31240  Biso   1.000  C
  H9       1.0000 0.91990  0.40950  0.33210  Biso   1.000  H
  C12      1.0000 0.95250  0.45080  0.25330  Biso   1.000  C
  H10      1.0000 0.91670  0.41600  0.23230  Biso   1.000  H
  C13      1.0000 0.96490  0.55620  0.12530  Biso   1.000  C
  C14      1.0000 0.95250  0.63870  0.15470  Biso   1.000  C
  H11      1.0000 0.96370  0.65440  0.19490  Biso   1.000  H
  C15      1.0000 0.91970  0.68690  0.10670  Biso   1.000  C
  H12      1.0000 0.91070  0.74330  0.10860  Biso   1.000  H
  C16      1.0000 0.90130  0.63330  0.05190  Biso   1.000  C
  O3       1.0000 0.91489  0.58394  0.54883  Biso   1.000  O
  C17      1.0000 0.79890  0.70200  0.55370  Biso   1.000  C
  H13      1.0000 0.81890  0.68070  0.59050  Biso   1.000  H
  C18      1.0000 0.74100  0.76170  0.55570  Biso   1.000  C
  H14      1.0000 0.72220  0.78290  0.59280  Biso   1.000  H
  N3       1.0000 0.94070  0.44030  0.93610  Biso   1.000  N
  C19      1.0000 0.95290  0.55190  0.68760  Biso   1.000  C
  H15      1.0000 0.91990  0.59050  0.66790  Biso   1.000  H
  C20      1.0000 0.95250  0.54920  0.74670  Biso   1.000  C
  H16      1.0000 0.91670  0.58400  0.76770  Biso   1.000  H
  C21      1.0000 0.96490  0.44380  0.87470  Biso   1.000  C
  C22      1.0000 0.95250  0.36130  0.84530  Biso   1.000  C
  H17      1.0000 0.96370  0.34560  0.80510  Biso   1.000  H
  C23      1.0000 0.91970  0.31310  0.89330  Biso   1.000  C
  H18      1.0000 0.91070  0.25670  0.89140  Biso   1.000  H
  C24      1.0000 0.90130  0.36670  0.94810  Biso   1.000  C
  O4       1.0000 0.08511  0.41606  0.54883  Biso   1.000  O
  C25      1.0000 0.20110  0.29800  0.55370  Biso   1.000  C
  H19      1.0000 0.18110  0.31930  0.59050  Biso   1.000  H
  C26      1.0000 0.25900  0.23830  0.55570  Biso   1.000  C
  H20      1.0000 0.27780  0.21710  0.59280  Biso   1.000  H
  N4       1.0000 0.05930  0.55970  0.93610  Biso   1.000  N
  C27      1.0000 0.04710  0.44810  0.68760  Biso   1.000  C
  H21      1.0000 0.08010  0.40950  0.66790  Biso   1.000  H
  C28      1.0000 0.04750  0.45080  0.74670  Biso   1.000  C
  H22      1.0000 0.08330  0.41600  0.76770  Biso   1.000  H
  C29      1.0000 0.03510  0.55620  0.87470  Biso   1.000  C
  C30      1.0000 0.04750  0.63870  0.84530  Biso   1.000  C
  H23      1.0000 0.03630  0.65440  0.80510  Biso   1.000  H
  C31      1.0000 0.08030  0.68690  0.89330  Biso   1.000  C
  H24      1.0000 0.08930  0.74330  0.89140  Biso   1.000  H
  C32      1.0000 0.09870  0.63330  0.94810  Biso   1.000  C
  O5       1.0000 0.91489  0.41606  0.54883  Biso   1.000  O
  C33      1.0000 0.79890  0.29800  0.55370  Biso   1.000  C
  H25      1.0000 0.81890  0.31930  0.59050  Biso   1.000  H
  C34      1.0000 0.74100  0.23830  0.55570  Biso   1.000  C
  H26      1.0000 0.72220  0.21710  0.59280  Biso   1.000  H
  N5       1.0000 0.94070  0.55970  0.93610  Biso   1.000  N
  C35      1.0000 0.95290  0.44810  0.68760  Biso   1.000  C
  H27      1.0000 0.91990  0.40950  0.66790  Biso   1.000  H
  C36      1.0000 0.95250  0.45080  0.74670  Biso   1.000  C
  H28      1.0000 0.91670  0.41600  0.76770  Biso   1.000  H
  C37      1.0000 0.96490  0.55620  0.87470  Biso   1.000  C
  C38      1.0000 0.95250  0.63870  0.84530  Biso   1.000  C
  H29      1.0000 0.96370  0.65440  0.80510  Biso   1.000  H
  C39      1.0000 0.91970  0.68690  0.89330  Biso   1.000  C
  H30      1.0000 0.91070  0.74330  0.89140  Biso   1.000  H
  C40      1.0000 0.90130  0.63330  0.94810  Biso   1.000  C
  O6       1.0000 0.08511  0.58394  0.54883  Biso   1.000  O
  C41      1.0000 0.20110  0.70200  0.55370  Biso   1.000  C
  H31      1.0000 0.18110  0.68070  0.59050  Biso   1.000  H
  C42      1.0000 0.25900  0.76170  0.55570  Biso   1.000  C
  H32      1.0000 0.27780  0.78290  0.59280  Biso   1.000  H
  N6       1.0000 0.05930  0.44030  0.93610  Biso   1.000  N
  C43      1.0000 0.04710  0.55190  0.68760  Biso   1.000  C
  H33      1.0000 0.08010  0.59050  0.66790  Biso   1.000  H
  C44      1.0000 0.04750  0.54920  0.74670  Biso   1.000  C
  H34      1.0000 0.08330  0.58400  0.76770  Biso   1.000  H
  C45      1.0000 0.03510  0.44380  0.87470  Biso   1.000  C
  C46      1.0000 0.04750  0.36130  0.84530  Biso   1.000  C
  H35      1.0000 0.03630  0.34560  0.80510  Biso   1.000  H
  C47      1.0000 0.08030  0.31310  0.89330  Biso   1.000  C
  H36      1.0000 0.08930  0.25670  0.89140  Biso   1.000  H
  C48      1.0000 0.09870  0.36670  0.94810  Biso   1.000  C
  O7       1.0000 0.08511  0.41606  0.45117  Biso   1.000  O
  C49      1.0000 0.20110  0.29800  0.44630  Biso   1.000  C
  H37      1.0000 0.18110  0.31930  0.40950  Biso   1.000  H
  C50      1.0000 0.25900  0.23830  0.44430  Biso   1.000  C
  H38      1.0000 0.27780  0.21710  0.40720  Biso   1.000  H
  N7       1.0000 0.05930  0.55970  0.06390  Biso   1.000  N
  C51      1.0000 0.04710  0.44810  0.31240  Biso   1.000  C
  H39      1.0000 0.08010  0.40950  0.33210  Biso   1.000  H
  C52      1.0000 0.04750  0.45080  0.25330  Biso   1.000  C
  H40      1.0000 0.08330  0.41600  0.23230  Biso   1.000  H
  C53      1.0000 0.03510  0.55620  0.12530  Biso   1.000  C
  C54      1.0000 0.04750  0.63870  0.15470  Biso   1.000  C
  H41      1.0000 0.03630  0.65440  0.19490  Biso   1.000  H
  C55      1.0000 0.08030  0.68690  0.10670  Biso   1.000  C
  H42      1.0000 0.08930  0.74330  0.10860  Biso   1.000  H
  C56      1.0000 0.09870  0.63330  0.05190  Biso   1.000  C
  O8       1.0000 0.91489  0.58394  0.45117  Biso   1.000  O
  C57      1.0000 0.79890  0.70200  0.44630  Biso   1.000  C
  H43      1.0000 0.81890  0.68070  0.40950  Biso   1.000  H
  C58      1.0000 0.74100  0.76170  0.44430  Biso   1.000  C
  H44      1.0000 0.72220  0.78290  0.40720  Biso   1.000  H
  N8       1.0000 0.94070  0.44030  0.06390  Biso   1.000  N
  C59      1.0000 0.95290  0.55190  0.31240  Biso   1.000  C
  H45      1.0000 0.91990  0.59050  0.33210  Biso   1.000  H
  C60      1.0000 0.95250  0.54920  0.25330  Biso   1.000  C
  H46      1.0000 0.91670  0.58400  0.23230  Biso   1.000  H
  C61      1.0000 0.96490  0.44380  0.12530  Biso   1.000  C
  C62      1.0000 0.95250  0.36130  0.15470  Biso   1.000  C
  H47      1.0000 0.96370  0.34560  0.19490  Biso   1.000  H
  C63      1.0000 0.91970  0.31310  0.10670  Biso   1.000  C
  H48      1.0000 0.91070  0.25670  0.10860  Biso   1.000  H
  C64      1.0000 0.90130  0.36670  0.05190  Biso   1.000  C
  Zn1      1.0000 0.00000  0.50000  0.43483  Biso   1.000  Zn
  N9       1.0000 0.00000  0.50000  0.34750  Biso   1.000  N
  C65      1.0000 0.00000  0.50000  0.22100  Biso   1.000  C
  C66      1.0000 0.00000  0.50000  0.15660  Biso   1.000  C
  Zn2      1.0000 0.00000  0.50000  0.56517  Biso   1.000  Zn
  N10      1.0000 0.00000  0.50000  0.65250  Biso   1.000  N
  C67      1.0000 0.00000  0.50000  0.77900  Biso   1.000  C
  C68      1.0000 0.00000  0.50000  0.84340  Biso   1.000  C
  Al1      1.0000 0.50000  0.00000  0.50000  Biso   1.000  Al
  C69      1.0000 0.12800  0.35600  0.00000  Biso   1.000  C
  C70      1.0000 0.87200  0.64400  0.00000  Biso   1.000  C
  C71      1.0000 0.87200  0.35600  0.00000  Biso   1.000  C
  C72      1.0000 0.12800  0.64400  0.00000  Biso   1.000  C
  N11      1.0000 0.50000  0.88060  0.50000  Biso   1.000  N
  N12      1.0000 0.50000  0.11940  0.50000  Biso   1.000  N
  N13      1.0000 0.38030  0.00000  0.50000  Biso   1.000  N
  N14      1.0000 0.61970  0.00000  0.50000  Biso   1.000  N
  C73      1.0000 0.10880  0.60760  0.50000  Biso   1.000  C
  C74      1.0000 0.17090  0.67190  0.50000  Biso   1.000  C
  C75      1.0000 0.28900  0.78970  0.50000  Biso   1.000  C
  C76      1.0000 0.35420  0.85450  0.50000  Biso   1.000  C
  C77      1.0000 0.32880  0.93350  0.50000  Biso   1.000  C
  C78      1.0000 0.24720  0.95790  0.50000  Biso   1.000  C
  H49      1.0000 0.20120  0.92380  0.50000  Biso   1.000  H
  C79      1.0000 0.43410  0.82900  0.50000  Biso   1.000  C
  C80      1.0000 0.45650  0.74680  0.50000  Biso   1.000  C
  H50      1.0000 0.42170  0.70130  0.50000  Biso   1.000  H
  C81      1.0000 0.89120  0.39240  0.50000  Biso   1.000  C
  C82      1.0000 0.82910  0.32810  0.50000  Biso   1.000  C
  C83      1.0000 0.71100  0.21030  0.50000  Biso   1.000  C
  C84      1.0000 0.64580  0.14550  0.50000  Biso   1.000  C
  C85      1.0000 0.67120  0.06650  0.50000  Biso   1.000  C
  C86      1.0000 0.75280  0.04210  0.50000  Biso   1.000  C
  H51      1.0000 0.79880  0.07620  0.50000  Biso   1.000  H
  C87      1.0000 0.56590  0.17100  0.50000  Biso   1.000  C
  C88      1.0000 0.54350  0.25320  0.50000  Biso   1.000  C
  H52      1.0000 0.57830  0.29870  0.50000  Biso   1.000  H
  C89      1.0000 0.89120  0.60760  0.50000  Biso   1.000  C
  C90      1.0000 0.82910  0.67190  0.50000  Biso   1.000  C
  C91      1.0000 0.71100  0.78970  0.50000  Biso   1.000  C
  C92      1.0000 0.64580  0.85450  0.50000  Biso   1.000  C
  C93      1.0000 0.67120  0.93350  0.50000  Biso   1.000  C
  C94      1.0000 0.75280  0.95790  0.50000  Biso   1.000  C
  H53      1.0000 0.79880  0.92380  0.50000  Biso   1.000  H
  C95      1.0000 0.56590  0.82900  0.50000  Biso   1.000  C
  C96      1.0000 0.54350  0.74680  0.50000  Biso   1.000  C
  H54      1.0000 0.57830  0.70130  0.50000  Biso   1.000  H
  C97      1.0000 0.10880  0.39240  0.50000  Biso   1.000  C
  C98      1.0000 0.17090  0.32810  0.50000  Biso   1.000  C
  C99      1.0000 0.28900  0.21030  0.50000  Biso   1.000  C
  C100     1.0000 0.35420  0.14550  0.50000  Biso   1.000  C
  C101     1.0000 0.32880  0.06650  0.50000  Biso   1.000  C
  C102     1.0000 0.24720  0.04210  0.50000  Biso   1.000  C
  H55      1.0000 0.20120  0.07620  0.50000  Biso   1.000  H
  C103     1.0000 0.43410  0.17100  0.50000  Biso   1.000  C
  C104     1.0000 0.45650  0.25320  0.50000  Biso   1.000  C
  H56      1.0000 0.42170  0.29870  0.50000  Biso   1.000  H
  Zn3      1.0000 0.00000  0.50000  0.00000  Biso   1.000  Zn
