data_image0
_cell_length_a       16.6179
_cell_length_b       16.6179
_cell_length_c       22.266
_cell_angle_alpha    90
_cell_angle_beta     90
_cell_angle_gamma    90

_symmetry_space_group_name_H-M    "P 1"
_symmetry_int_tables_number       1

loop_
  _symmetry_equiv_pos_as_xyz
  'x, y, z'

loop_
  _atom_site_label
  _atom_site_occupancy
  _atom_site_fract_x
  _atom_site_fract_y
  _atom_site_fract_z
  _atom_site_thermal_displace_type
  _atom_site_B_iso_or_equiv
  _atom_site_type_symbol
  C1       1.0000 0.97070  0.93810  0.68660  Biso   1.000  C
  H1       1.0000 0.94610  0.89350  0.66710  Biso   1.000  H
  C2       1.0000 0.97350  0.93480  0.74860  Biso   1.000  C
  H2       1.0000 0.95680  0.88650  0.76770  Biso   1.000  H
  C3       1.0000 0.98300  0.93070  0.88310  Biso   1.000  C
  C4       1.0000 0.04600  0.06000  0.87790  Biso   1.000  C
  C5       1.0000 0.94600  0.85630  0.86630  Biso   1.000  C
  H3       1.0000 0.89910  0.86720  0.84070  Biso   1.000  H
  H4       1.0000 0.92860  0.82750  0.90240  Biso   1.000  H
  H5       1.0000 0.98470  0.82320  0.84410  Biso   1.000  H
  C6       1.0000 0.08200  0.13300  0.85500  Biso   1.000  C
  H6       1.0000 0.10030  0.12350  0.81370  Biso   1.000  H
  H7       1.0000 0.12740  0.14810  0.88020  Biso   1.000  H
  H8       1.0000 0.04160  0.17590  0.85520  Biso   1.000  H
  C7       1.0000 0.02930  0.06190  0.68660  Biso   1.000  C
  H9       1.0000 0.05390  0.10650  0.66710  Biso   1.000  H
  C8       1.0000 0.02650  0.06520  0.74860  Biso   1.000  C
  H10      1.0000 0.04320  0.11350  0.76770  Biso   1.000  H
  C9       1.0000 0.01700  0.06930  0.88310  Biso   1.000  C
  C10      1.0000 0.95400  0.94000  0.87790  Biso   1.000  C
  C11      1.0000 0.05400  0.14370  0.86630  Biso   1.000  C
  H11      1.0000 0.10090  0.13280  0.84070  Biso   1.000  H
  H12      1.0000 0.07140  0.17250  0.90240  Biso   1.000  H
  H13      1.0000 0.01530  0.17680  0.84410  Biso   1.000  H
  C12      1.0000 0.91800  0.86700  0.85500  Biso   1.000  C
  H14      1.0000 0.89970  0.87650  0.81370  Biso   1.000  H
  H15      1.0000 0.87260  0.85190  0.88020  Biso   1.000  H
  H16      1.0000 0.95840  0.82410  0.85520  Biso   1.000  H
  C13      1.0000 0.06190  0.97070  0.68660  Biso   1.000  C
  H17      1.0000 0.10650  0.94610  0.66710  Biso   1.000  H
  C14      1.0000 0.06520  0.97350  0.74860  Biso   1.000  C
  H18      1.0000 0.11350  0.95680  0.76770  Biso   1.000  H
  C15      1.0000 0.06930  0.98300  0.88310  Biso   1.000  C
  C16      1.0000 0.94000  0.04600  0.87790  Biso   1.000  C
  C17      1.0000 0.14370  0.94600  0.86630  Biso   1.000  C
  H19      1.0000 0.13280  0.89910  0.84070  Biso   1.000  H
  H20      1.0000 0.17250  0.92860  0.90240  Biso   1.000  H
  H21      1.0000 0.17680  0.98470  0.84410  Biso   1.000  H
  C18      1.0000 0.86700  0.08200  0.85500  Biso   1.000  C
  H22      1.0000 0.87650  0.10030  0.81370  Biso   1.000  H
  H23      1.0000 0.85190  0.12740  0.88020  Biso   1.000  H
  H24      1.0000 0.82410  0.04160  0.85520  Biso   1.000  H
  C19      1.0000 0.93810  0.02930  0.68660  Biso   1.000  C
  H25      1.0000 0.89350  0.05390  0.66710  Biso   1.000  H
  C20      1.0000 0.93480  0.02650  0.74860  Biso   1.000  C
  H26      1.0000 0.88650  0.04320  0.76770  Biso   1.000  H
  C21      1.0000 0.93070  0.01700  0.88310  Biso   1.000  C
  C22      1.0000 0.06000  0.95400  0.87790  Biso   1.000  C
  C23      1.0000 0.85630  0.05400  0.86630  Biso   1.000  C
  H27      1.0000 0.86720  0.10090  0.84070  Biso   1.000  H
  H28      1.0000 0.82750  0.07140  0.90240  Biso   1.000  H
  H29      1.0000 0.82320  0.01530  0.84410  Biso   1.000  H
  C24      1.0000 0.13300  0.91800  0.85500  Biso   1.000  C
  H30      1.0000 0.12350  0.89970  0.81370  Biso   1.000  H
  H31      1.0000 0.14810  0.87260  0.88020  Biso   1.000  H
  H32      1.0000 0.17590  0.95840  0.85520  Biso   1.000  H
  C25      1.0000 0.02930  0.93810  0.31340  Biso   1.000  C
  H33      1.0000 0.05390  0.89350  0.33290  Biso   1.000  H
  C26      1.0000 0.02650  0.93480  0.25140  Biso   1.000  C
  H34      1.0000 0.04320  0.88650  0.23230  Biso   1.000  H
  C27      1.0000 0.01700  0.93070  0.11690  Biso   1.000  C
  C28      1.0000 0.95400  0.06000  0.12210  Biso   1.000  C
  C29      1.0000 0.05400  0.85630  0.13370  Biso   1.000  C
  H35      1.0000 0.10090  0.86720  0.15930  Biso   1.000  H
  H36      1.0000 0.07140  0.82750  0.09760  Biso   1.000  H
  H37      1.0000 0.01530  0.82320  0.15590  Biso   1.000  H
  C30      1.0000 0.91800  0.13300  0.14500  Biso   1.000  C
  H38      1.0000 0.89970  0.12350  0.18630  Biso   1.000  H
  H39      1.0000 0.87260  0.14810  0.11980  Biso   1.000  H
  H40      1.0000 0.95840  0.17590  0.14480  Biso   1.000  H
  C31      1.0000 0.97070  0.06190  0.31340  Biso   1.000  C
  H41      1.0000 0.94610  0.10650  0.33290  Biso   1.000  H
  C32      1.0000 0.97350  0.06520  0.25140  Biso   1.000  C
  H42      1.0000 0.95680  0.11350  0.23230  Biso   1.000  H
  C33      1.0000 0.98300  0.06930  0.11690  Biso   1.000  C
  C34      1.0000 0.04600  0.94000  0.12210  Biso   1.000  C
  C35      1.0000 0.94600  0.14370  0.13370  Biso   1.000  C
  H43      1.0000 0.89910  0.13280  0.15930  Biso   1.000  H
  H44      1.0000 0.92860  0.17250  0.09760  Biso   1.000  H
  H45      1.0000 0.98470  0.17680  0.15590  Biso   1.000  H
  C36      1.0000 0.08200  0.86700  0.14500  Biso   1.000  C
  H46      1.0000 0.10030  0.87650  0.18630  Biso   1.000  H
  H47      1.0000 0.12740  0.85190  0.11980  Biso   1.000  H
  H48      1.0000 0.04160  0.82410  0.14480  Biso   1.000  H
  C37      1.0000 0.93810  0.97070  0.31340  Biso   1.000  C
  H49      1.0000 0.89350  0.94610  0.33290  Biso   1.000  H
  C38      1.0000 0.93480  0.97350  0.25140  Biso   1.000  C
  H50      1.0000 0.88650  0.95680  0.23230  Biso   1.000  H
  C39      1.0000 0.93070  0.98300  0.11690  Biso   1.000  C
  C40      1.0000 0.06000  0.04600  0.12210  Biso   1.000  C
  C41      1.0000 0.85630  0.94600  0.13370  Biso   1.000  C
  H51      1.0000 0.86720  0.89910  0.15930  Biso   1.000  H
  H52      1.0000 0.82750  0.92860  0.09760  Biso   1.000  H
  H53      1.0000 0.82320  0.98470  0.15590  Biso   1.000  H
  C42      1.0000 0.13300  0.08200  0.14500  Biso   1.000  C
  H54      1.0000 0.12350  0.10030  0.18630  Biso   1.000  H
  H55      1.0000 0.14810  0.12740  0.11980  Biso   1.000  H
  H56      1.0000 0.17590  0.04160  0.14480  Biso   1.000  H
  C43      1.0000 0.06190  0.02930  0.31340  Biso   1.000  C
  H57      1.0000 0.10650  0.05390  0.33290  Biso   1.000  H
  C44      1.0000 0.06520  0.02650  0.25140  Biso   1.000  C
  H58      1.0000 0.11350  0.04320  0.23230  Biso   1.000  H
  C45      1.0000 0.06930  0.01700  0.11690  Biso   1.000  C
  C46      1.0000 0.94000  0.95400  0.12210  Biso   1.000  C
  C47      1.0000 0.14370  0.05400  0.13370  Biso   1.000  C
  H59      1.0000 0.13280  0.10090  0.15930  Biso   1.000  H
  H60      1.0000 0.17250  0.07140  0.09760  Biso   1.000  H
  H61      1.0000 0.17680  0.01530  0.15590  Biso   1.000  H
  C48      1.0000 0.86700  0.91800  0.14500  Biso   1.000  C
  H62      1.0000 0.87650  0.89970  0.18630  Biso   1.000  H
  H63      1.0000 0.85190  0.87260  0.11980  Biso   1.000  H
  H64      1.0000 0.82410  0.95840  0.14480  Biso   1.000  H
  C49      1.0000 0.02930  0.06190  0.31340  Biso   1.000  C
  H65      1.0000 0.05390  0.10650  0.33290  Biso   1.000  H
  C50      1.0000 0.02650  0.06520  0.25140  Biso   1.000  C
  H66      1.0000 0.04320  0.11350  0.23230  Biso   1.000  H
  C51      1.0000 0.01700  0.06930  0.11690  Biso   1.000  C
  C52      1.0000 0.95400  0.94000  0.12210  Biso   1.000  C
  C53      1.0000 0.05400  0.14370  0.13370  Biso   1.000  C
  H67      1.0000 0.10090  0.13280  0.15930  Biso   1.000  H
  H68      1.0000 0.07140  0.17250  0.09760  Biso   1.000  H
  H69      1.0000 0.01530  0.17680  0.15590  Biso   1.000  H
  C54      1.0000 0.91800  0.86700  0.14500  Biso   1.000  C
  H70      1.0000 0.89970  0.87650  0.18630  Biso   1.000  H
  H71      1.0000 0.87260  0.85190  0.11980  Biso   1.000  H
  H72      1.0000 0.95840  0.82410  0.14480  Biso   1.000  H
  C55      1.0000 0.97070  0.93810  0.31340  Biso   1.000  C
  H73      1.0000 0.94610  0.89350  0.33290  Biso   1.000  H
  C56      1.0000 0.97350  0.93480  0.25140  Biso   1.000  C
  H74      1.0000 0.95680  0.88650  0.23230  Biso   1.000  H
  C57      1.0000 0.98300  0.93070  0.11690  Biso   1.000  C
  C58      1.0000 0.04600  0.06000  0.12210  Biso   1.000  C
  C59      1.0000 0.94600  0.85630  0.13370  Biso   1.000  C
  H75      1.0000 0.89910  0.86720  0.15930  Biso   1.000  H
  H76      1.0000 0.92860  0.82750  0.09760  Biso   1.000  H
  H77      1.0000 0.98470  0.82320  0.15590  Biso   1.000  H
  C60      1.0000 0.08200  0.13300  0.14500  Biso   1.000  C
  H78      1.0000 0.10030  0.12350  0.18630  Biso   1.000  H
  H79      1.0000 0.12740  0.14810  0.11980  Biso   1.000  H
  H80      1.0000 0.04160  0.17590  0.14480  Biso   1.000  H
  C61      1.0000 0.93810  0.02930  0.31340  Biso   1.000  C
  H81      1.0000 0.89350  0.05390  0.33290  Biso   1.000  H
  C62      1.0000 0.93480  0.02650  0.25140  Biso   1.000  C
  H82      1.0000 0.88650  0.04320  0.23230  Biso   1.000  H
  C63      1.0000 0.93070  0.01700  0.11690  Biso   1.000  C
  C64      1.0000 0.06000  0.95400  0.12210  Biso   1.000  C
  C65      1.0000 0.85630  0.05400  0.13370  Biso   1.000  C
  H83      1.0000 0.86720  0.10090  0.15930  Biso   1.000  H
  H84      1.0000 0.82750  0.07140  0.09760  Biso   1.000  H
  H85      1.0000 0.82320  0.01530  0.15590  Biso   1.000  H
  C66      1.0000 0.13300  0.91800  0.14500  Biso   1.000  C
  H86      1.0000 0.12350  0.89970  0.18630  Biso   1.000  H
  H87      1.0000 0.14810  0.87260  0.11980  Biso   1.000  H
  H88      1.0000 0.17590  0.95840  0.14480  Biso   1.000  H
  C67      1.0000 0.06190  0.97070  0.31340  Biso   1.000  C
  H89      1.0000 0.10650  0.94610  0.33290  Biso   1.000  H
  C68      1.0000 0.06520  0.97350  0.25140  Biso   1.000  C
  H90      1.0000 0.11350  0.95680  0.23230  Biso   1.000  H
  C69      1.0000 0.06930  0.98300  0.11690  Biso   1.000  C
  C70      1.0000 0.94000  0.04600  0.12210  Biso   1.000  C
  C71      1.0000 0.14370  0.94600  0.13370  Biso   1.000  C
  H91      1.0000 0.13280  0.89910  0.15930  Biso   1.000  H
  H92      1.0000 0.17250  0.92860  0.09760  Biso   1.000  H
  H93      1.0000 0.17680  0.98470  0.15590  Biso   1.000  H
  C72      1.0000 0.86700  0.08200  0.14500  Biso   1.000  C
  H94      1.0000 0.87650  0.10030  0.18630  Biso   1.000  H
  H95      1.0000 0.85190  0.12740  0.11980  Biso   1.000  H
  H96      1.0000 0.82410  0.04160  0.14480  Biso   1.000  H
  C73      1.0000 0.97070  0.06190  0.68660  Biso   1.000  C
  H97      1.0000 0.94610  0.10650  0.66710  Biso   1.000  H
  C74      1.0000 0.97350  0.06520  0.74860  Biso   1.000  C
  H98      1.0000 0.95680  0.11350  0.76770  Biso   1.000  H
  C75      1.0000 0.98300  0.06930  0.88310  Biso   1.000  C
  C76      1.0000 0.04600  0.94000  0.87790  Biso   1.000  C
  C77      1.0000 0.94600  0.14370  0.86630  Biso   1.000  C
  H99      1.0000 0.89910  0.13280  0.84070  Biso   1.000  H
  H100     1.0000 0.92860  0.17250  0.90240  Biso   1.000  H
  H101     1.0000 0.98470  0.17680  0.84410  Biso   1.000  H
  C78      1.0000 0.08200  0.86700  0.85500  Biso   1.000  C
  H102     1.0000 0.10030  0.87650  0.81370  Biso   1.000  H
  H103     1.0000 0.12740  0.85190  0.88020  Biso   1.000  H
  H104     1.0000 0.04160  0.82410  0.85520  Biso   1.000  H
  C79      1.0000 0.02930  0.93810  0.68660  Biso   1.000  C
  H105     1.0000 0.05390  0.89350  0.66710  Biso   1.000  H
  C80      1.0000 0.02650  0.93480  0.74860  Biso   1.000  C
  H106     1.0000 0.04320  0.88650  0.76770  Biso   1.000  H
  C81      1.0000 0.01700  0.93070  0.88310  Biso   1.000  C
  C82      1.0000 0.95400  0.06000  0.87790  Biso   1.000  C
  C83      1.0000 0.05400  0.85630  0.86630  Biso   1.000  C
  H107     1.0000 0.10090  0.86720  0.84070  Biso   1.000  H
  H108     1.0000 0.07140  0.82750  0.90240  Biso   1.000  H
  H109     1.0000 0.01530  0.82320  0.84410  Biso   1.000  H
  C84      1.0000 0.91800  0.13300  0.85500  Biso   1.000  C
  H110     1.0000 0.89970  0.12350  0.81370  Biso   1.000  H
  H111     1.0000 0.87260  0.14810  0.88020  Biso   1.000  H
  H112     1.0000 0.95840  0.17590  0.85520  Biso   1.000  H
  C85      1.0000 0.06190  0.02930  0.68660  Biso   1.000  C
  H113     1.0000 0.10650  0.05390  0.66710  Biso   1.000  H
  C86      1.0000 0.06520  0.02650  0.74860  Biso   1.000  C
  H114     1.0000 0.11350  0.04320  0.76770  Biso   1.000  H
  C87      1.0000 0.06930  0.01700  0.88310  Biso   1.000  C
  C88      1.0000 0.94000  0.95400  0.87790  Biso   1.000  C
  C89      1.0000 0.14370  0.05400  0.86630  Biso   1.000  C
  H115     1.0000 0.13280  0.10090  0.84070  Biso   1.000  H
  H116     1.0000 0.17250  0.07140  0.90240  Biso   1.000  H
  H117     1.0000 0.17680  0.01530  0.84410  Biso   1.000  H
  C90      1.0000 0.86700  0.91800  0.85500  Biso   1.000  C
  H118     1.0000 0.87650  0.89970  0.81370  Biso   1.000  H
  H119     1.0000 0.85190  0.87260  0.88020  Biso   1.000  H
  H120     1.0000 0.82410  0.95840  0.85520  Biso   1.000  H
  C91      1.0000 0.93810  0.97070  0.68660  Biso   1.000  C
  H121     1.0000 0.89350  0.94610  0.66710  Biso   1.000  H
  C92      1.0000 0.93480  0.97350  0.74860  Biso   1.000  C
  H122     1.0000 0.88650  0.95680  0.76770  Biso   1.000  H
  C93      1.0000 0.93070  0.98300  0.88310  Biso   1.000  C
  C94      1.0000 0.06000  0.04600  0.87790  Biso   1.000  C
  C95      1.0000 0.85630  0.94600  0.86630  Biso   1.000  C
  H123     1.0000 0.86720  0.89910  0.84070  Biso   1.000  H
  H124     1.0000 0.82750  0.92860  0.90240  Biso   1.000  H
  H125     1.0000 0.82320  0.98470  0.84410  Biso   1.000  H
  C96      1.0000 0.13300  0.08200  0.85500  Biso   1.000  C
  H126     1.0000 0.12350  0.10030  0.81370  Biso   1.000  H
  H127     1.0000 0.14810  0.12740  0.88020  Biso   1.000  H
  H128     1.0000 0.17590  0.04160  0.85520  Biso   1.000  H
  Zn1      1.0000 0.50000  0.50000  0.50000  Biso   1.000  Zn
  Zn2      1.0000 0.00000  0.00000  0.56564  Biso   1.000  Zn
  N1       1.0000 0.00000  0.00000  0.64820  Biso   1.000  N
  C97      1.0000 0.00000  0.00000  0.78580  Biso   1.000  C
  C98      1.0000 0.00000  0.00000  0.84210  Biso   1.000  C
  Zn3      1.0000 0.00000  0.00000  0.43436  Biso   1.000  Zn
  N2       1.0000 0.00000  0.00000  0.35180  Biso   1.000  N
  C99      1.0000 0.00000  0.00000  0.21420  Biso   1.000  C
  C100     1.0000 0.00000  0.00000  0.15790  Biso   1.000  C
  O1       1.0000 0.91578  0.91578  0.55240  Biso   1.000  O
  C101     1.0000 0.79937  0.79937  0.55310  Biso   1.000  C
  H129     1.0000 0.81930  0.81930  0.59030  Biso   1.000  H
  C102     1.0000 0.73870  0.73870  0.55080  Biso   1.000  C
  H130     1.0000 0.71800  0.71800  0.58750  Biso   1.000  H
  C103     1.0000 0.03870  0.03870  0.94260  Biso   1.000  C
  O2       1.0000 0.08422  0.08422  0.55240  Biso   1.000  O
  C104     1.0000 0.20063  0.20063  0.55310  Biso   1.000  C
  H131     1.0000 0.18070  0.18070  0.59030  Biso   1.000  H
  C105     1.0000 0.26130  0.26130  0.55080  Biso   1.000  C
  H132     1.0000 0.28200  0.28200  0.58750  Biso   1.000  H
  C106     1.0000 0.96130  0.96130  0.94260  Biso   1.000  C
  O3       1.0000 0.08422  0.91578  0.55240  Biso   1.000  O
  C107     1.0000 0.20063  0.79937  0.55310  Biso   1.000  C
  H133     1.0000 0.18070  0.81930  0.59030  Biso   1.000  H
  C108     1.0000 0.26130  0.73870  0.55080  Biso   1.000  C
  H134     1.0000 0.28200  0.71800  0.58750  Biso   1.000  H
  C109     1.0000 0.96130  0.03870  0.94260  Biso   1.000  C
  O4       1.0000 0.91578  0.08422  0.55240  Biso   1.000  O
  C110     1.0000 0.79937  0.20063  0.55310  Biso   1.000  C
  H135     1.0000 0.81930  0.18070  0.59030  Biso   1.000  H
  C111     1.0000 0.73870  0.26130  0.55080  Biso   1.000  C
  H136     1.0000 0.71800  0.28200  0.58750  Biso   1.000  H
  C112     1.0000 0.03870  0.96130  0.94260  Biso   1.000  C
  O5       1.0000 0.08422  0.91578  0.44760  Biso   1.000  O
  C113     1.0000 0.20063  0.79937  0.44690  Biso   1.000  C
  H137     1.0000 0.18070  0.81930  0.40970  Biso   1.000  H
  C114     1.0000 0.26130  0.73870  0.44920  Biso   1.000  C
  H138     1.0000 0.28200  0.71800  0.41250  Biso   1.000  H
  C115     1.0000 0.96130  0.03870  0.05740  Biso   1.000  C
  O6       1.0000 0.91578  0.08422  0.44760  Biso   1.000  O
  C116     1.0000 0.79937  0.20063  0.44690  Biso   1.000  C
  H139     1.0000 0.81930  0.18070  0.40970  Biso   1.000  H
  C117     1.0000 0.73870  0.26130  0.44920  Biso   1.000  C
  H140     1.0000 0.71800  0.28200  0.41250  Biso   1.000  H
  C118     1.0000 0.03870  0.96130  0.05740  Biso   1.000  C
  O7       1.0000 0.91578  0.91578  0.44760  Biso   1.000  O
  C119     1.0000 0.79937  0.79937  0.44690  Biso   1.000  C
  H141     1.0000 0.81930  0.81930  0.40970  Biso   1.000  H
  C120     1.0000 0.73870  0.73870  0.44920  Biso   1.000  C
  H142     1.0000 0.71800  0.71800  0.41250  Biso   1.000  H
  C121     1.0000 0.03870  0.03870  0.05740  Biso   1.000  C
  O8       1.0000 0.08422  0.08422  0.44760  Biso   1.000  O
  C122     1.0000 0.20063  0.20063  0.44690  Biso   1.000  C
  H143     1.0000 0.18070  0.18070  0.40970  Biso   1.000  H
  C123     1.0000 0.26130  0.26130  0.44920  Biso   1.000  C
  H144     1.0000 0.28200  0.28200  0.41250  Biso   1.000  H
  C124     1.0000 0.96130  0.96130  0.05740  Biso   1.000  C
  N3       1.0000 0.62090  0.50000  0.50000  Biso   1.000  N
  N4       1.0000 0.37910  0.50000  0.50000  Biso   1.000  N
  N5       1.0000 0.50000  0.62090  0.50000  Biso   1.000  N
  N6       1.0000 0.50000  0.37910  0.50000  Biso   1.000  N
  C125     1.0000 0.89420  0.89420  0.50000  Biso   1.000  C
  C126     1.0000 0.82720  0.82720  0.50000  Biso   1.000  C
  C127     1.0000 0.71020  0.71020  0.50000  Biso   1.000  C
  C128     1.0000 0.64590  0.64590  0.50000  Biso   1.000  C
  C129     1.0000 0.10580  0.10580  0.50000  Biso   1.000  C
  C130     1.0000 0.17280  0.17280  0.50000  Biso   1.000  C
  C131     1.0000 0.28980  0.28980  0.50000  Biso   1.000  C
  C132     1.0000 0.35410  0.35410  0.50000  Biso   1.000  C
  C133     1.0000 0.10580  0.89420  0.50000  Biso   1.000  C
  C134     1.0000 0.17280  0.82720  0.50000  Biso   1.000  C
  C135     1.0000 0.28980  0.71020  0.50000  Biso   1.000  C
  C136     1.0000 0.35410  0.64590  0.50000  Biso   1.000  C
  C137     1.0000 0.89420  0.10580  0.50000  Biso   1.000  C
  C138     1.0000 0.82720  0.17280  0.50000  Biso   1.000  C
  C139     1.0000 0.71020  0.28980  0.50000  Biso   1.000  C
  C140     1.0000 0.64590  0.35410  0.50000  Biso   1.000  C
  C141     1.0000 0.67150  0.56640  0.50000  Biso   1.000  C
  C142     1.0000 0.75500  0.54110  0.50000  Biso   1.000  C
  H145     1.0000 0.80090  0.57520  0.50000  Biso   1.000  H
  C143     1.0000 0.32850  0.43360  0.50000  Biso   1.000  C
  C144     1.0000 0.24500  0.45890  0.50000  Biso   1.000  C
  H146     1.0000 0.19910  0.42480  0.50000  Biso   1.000  H
  C145     1.0000 0.43360  0.67150  0.50000  Biso   1.000  C
  C146     1.0000 0.45890  0.75500  0.50000  Biso   1.000  C
  H147     1.0000 0.42480  0.80090  0.50000  Biso   1.000  H
  C147     1.0000 0.56640  0.32850  0.50000  Biso   1.000  C
  C148     1.0000 0.54110  0.24500  0.50000  Biso   1.000  C
  H148     1.0000 0.57520  0.19910  0.50000  Biso   1.000  H
  C149     1.0000 0.32850  0.56640  0.50000  Biso   1.000  C
  C150     1.0000 0.24500  0.54110  0.50000  Biso   1.000  C
  H149     1.0000 0.19910  0.57520  0.50000  Biso   1.000  H
  C151     1.0000 0.67150  0.43360  0.50000  Biso   1.000  C
  C152     1.0000 0.75500  0.45890  0.50000  Biso   1.000  C
  H150     1.0000 0.80090  0.42480  0.50000  Biso   1.000  H
  C153     1.0000 0.56640  0.67150  0.50000  Biso   1.000  C
  C154     1.0000 0.54110  0.75500  0.50000  Biso   1.000  C
  H151     1.0000 0.57520  0.80090  0.50000  Biso   1.000  H
  C155     1.0000 0.43360  0.32850  0.50000  Biso   1.000  C
  C156     1.0000 0.45890  0.24500  0.50000  Biso   1.000  C
  H152     1.0000 0.42480  0.19910  0.50000  Biso   1.000  H
  N7       1.0000 0.00000  0.95700  0.94600  Biso   1.000  N
  N8       1.0000 0.00000  0.04300  0.94600  Biso   1.000  N
  N9       1.0000 0.04300  0.00000  0.94600  Biso   1.000  N
  N10      1.0000 0.95700  0.00000  0.94600  Biso   1.000  N
  N11      1.0000 0.00000  0.95700  0.05400  Biso   1.000  N
  N12      1.0000 0.00000  0.04300  0.05400  Biso   1.000  N
  N13      1.0000 0.95700  0.00000  0.05400  Biso   1.000  N
  N14      1.0000 0.04300  0.00000  0.05400  Biso   1.000  N
  C157     1.0000 0.07600  0.07600  0.00000  Biso   1.000  C
  C158     1.0000 0.18100  0.18100  0.00000  Biso   1.000  C
  C159     1.0000 0.92400  0.92400  0.00000  Biso   1.000  C
  C160     1.0000 0.81900  0.81900  0.00000  Biso   1.000  C
  C161     1.0000 0.92400  0.07600  0.00000  Biso   1.000  C
  C162     1.0000 0.81900  0.18100  0.00000  Biso   1.000  C
  C163     1.0000 0.07600  0.92400  0.00000  Biso   1.000  C
  C164     1.0000 0.18100  0.81900  0.00000  Biso   1.000  C
  B1       1.0000 0.97900  0.90500  0.00000  Biso   1.000  B
  F1       1.0000 0.01900  0.83100  0.00000  Biso   1.000  F
  F2       1.0000 0.91200  0.85400  0.00000  Biso   1.000  F
  C165     1.0000 0.09600  0.17000  0.00000  Biso   1.000  C
  H153     1.0000 0.21510  0.13500  0.00000  Biso   1.000  H
  C166     1.0000 0.21300  0.25900  0.00000  Biso   1.000  C
  H154     1.0000 0.26960  0.26650  0.00000  Biso   1.000  H
  C167     1.0000 0.16200  0.32700  0.00000  Biso   1.000  C
  H155     1.0000 0.18370  0.37930  0.00000  Biso   1.000  H
  C168     1.0000 0.07800  0.31600  0.00000  Biso   1.000  C
  H156     1.0000 0.04310  0.36130  0.00000  Biso   1.000  H
  C169     1.0000 0.04500  0.23800  0.00000  Biso   1.000  C
  H157     1.0000 0.98850  0.23040  0.00000  Biso   1.000  H
  B2       1.0000 0.02100  0.09500  0.00000  Biso   1.000  B
  F3       1.0000 0.98100  0.16900  0.00000  Biso   1.000  F
  F4       1.0000 0.08800  0.14600  0.00000  Biso   1.000  F
  C170     1.0000 0.90400  0.83000  0.00000  Biso   1.000  C
  H158     1.0000 0.78490  0.86500  0.00000  Biso   1.000  H
  C171     1.0000 0.78700  0.74100  0.00000  Biso   1.000  C
  H159     1.0000 0.73040  0.73350  0.00000  Biso   1.000  H
  C172     1.0000 0.83800  0.67300  0.00000  Biso   1.000  C
  H160     1.0000 0.81630  0.62070  0.00000  Biso   1.000  H
  C173     1.0000 0.92200  0.68400  0.00000  Biso   1.000  C
  H161     1.0000 0.95690  0.63870  0.00000  Biso   1.000  H
  C174     1.0000 0.95500  0.76200  0.00000  Biso   1.000  C
  H162     1.0000 0.01150  0.76960  0.00000  Biso   1.000  H
  B3       1.0000 0.09500  0.97900  0.00000  Biso   1.000  B
  F5       1.0000 0.16900  0.01900  0.00000  Biso   1.000  F
  F6       1.0000 0.14600  0.91200  0.00000  Biso   1.000  F
  C175     1.0000 0.83000  0.09600  0.00000  Biso   1.000  C
  H163     1.0000 0.86500  0.21510  0.00000  Biso   1.000  H
  C176     1.0000 0.74100  0.21300  0.00000  Biso   1.000  C
  H164     1.0000 0.73350  0.26960  0.00000  Biso   1.000  H
  C177     1.0000 0.67300  0.16200  0.00000  Biso   1.000  C
  H165     1.0000 0.62070  0.18370  0.00000  Biso   1.000  H
  C178     1.0000 0.68400  0.07800  0.00000  Biso   1.000  C
  H166     1.0000 0.63870  0.04310  0.00000  Biso   1.000  H
  C179     1.0000 0.76200  0.04500  0.00000  Biso   1.000  C
  H167     1.0000 0.76960  0.98850  0.00000  Biso   1.000  H
  B4       1.0000 0.90500  0.02100  0.00000  Biso   1.000  B
  F7       1.0000 0.83100  0.98100  0.00000  Biso   1.000  F
  F8       1.0000 0.85400  0.08800  0.00000  Biso   1.000  F
  C180     1.0000 0.17000  0.90400  0.00000  Biso   1.000  C
  H168     1.0000 0.13500  0.78490  0.00000  Biso   1.000  H
  C181     1.0000 0.25900  0.78700  0.00000  Biso   1.000  C
  H169     1.0000 0.26650  0.73040  0.00000  Biso   1.000  H
  C182     1.0000 0.32700  0.83800  0.00000  Biso   1.000  C
  H170     1.0000 0.37930  0.81630  0.00000  Biso   1.000  H
  C183     1.0000 0.31600  0.92200  0.00000  Biso   1.000  C
  H171     1.0000 0.36130  0.95690  0.00000  Biso   1.000  H
  C184     1.0000 0.23800  0.95500  0.00000  Biso   1.000  C
  H172     1.0000 0.23040  0.01150  0.00000  Biso   1.000  H
  B5       1.0000 0.02100  0.90500  0.00000  Biso   1.000  B
  F9       1.0000 0.98100  0.83100  0.00000  Biso   1.000  F
  F10      1.0000 0.08800  0.85400  0.00000  Biso   1.000  F
  C185     1.0000 0.90400  0.17000  0.00000  Biso   1.000  C
  H173     1.0000 0.78490  0.13500  0.00000  Biso   1.000  H
  C186     1.0000 0.78700  0.25900  0.00000  Biso   1.000  C
  H174     1.0000 0.73040  0.26650  0.00000  Biso   1.000  H
  C187     1.0000 0.83800  0.32700  0.00000  Biso   1.000  C
  H175     1.0000 0.81630  0.37930  0.00000  Biso   1.000  H
  C188     1.0000 0.92200  0.31600  0.00000  Biso   1.000  C
  H176     1.0000 0.95690  0.36130  0.00000  Biso   1.000  H
  C189     1.0000 0.95500  0.23800  0.00000  Biso   1.000  C
  H177     1.0000 0.01150  0.23040  0.00000  Biso   1.000  H
  B6       1.0000 0.97900  0.09500  0.00000  Biso   1.000  B
  F11      1.0000 0.01900  0.16900  0.00000  Biso   1.000  F
  F12      1.0000 0.91200  0.14600  0.00000  Biso   1.000  F
  C190     1.0000 0.09600  0.83000  0.00000  Biso   1.000  C
  H178     1.0000 0.21510  0.86500  0.00000  Biso   1.000  H
  C191     1.0000 0.21300  0.74100  0.00000  Biso   1.000  C
  H179     1.0000 0.26960  0.73350  0.00000  Biso   1.000  H
  C192     1.0000 0.16200  0.67300  0.00000  Biso   1.000  C
  H180     1.0000 0.18370  0.62070  0.00000  Biso   1.000  H
  C193     1.0000 0.07800  0.68400  0.00000  Biso   1.000  C
  H181     1.0000 0.04310  0.63870  0.00000  Biso   1.000  H
  C194     1.0000 0.04500  0.76200  0.00000  Biso   1.000  C
  H182     1.0000 0.98850  0.76960  0.00000  Biso   1.000  H
  B7       1.0000 0.90500  0.97900  0.00000  Biso   1.000  B
  F13      1.0000 0.83100  0.01900  0.00000  Biso   1.000  F
  F14      1.0000 0.85400  0.91200  0.00000  Biso   1.000  F
  C195     1.0000 0.17000  0.09600  0.00000  Biso   1.000  C
  H183     1.0000 0.13500  0.21510  0.00000  Biso   1.000  H
  C196     1.0000 0.25900  0.21300  0.00000  Biso   1.000  C
  H184     1.0000 0.26650  0.26960  0.00000  Biso   1.000  H
  C197     1.0000 0.32700  0.16200  0.00000  Biso   1.000  C
  H185     1.0000 0.37930  0.18370  0.00000  Biso   1.000  H
  C198     1.0000 0.31600  0.07800  0.00000  Biso   1.000  C
  H186     1.0000 0.36130  0.04310  0.00000  Biso   1.000  H
  C199     1.0000 0.23800  0.04500  0.00000  Biso   1.000  C
  H187     1.0000 0.23040  0.98850  0.00000  Biso   1.000  H
  B8       1.0000 0.09500  0.02100  0.00000  Biso   1.000  B
  F15      1.0000 0.16900  0.98100  0.00000  Biso   1.000  F
  F16      1.0000 0.14600  0.08800  0.00000  Biso   1.000  F
  C200     1.0000 0.83000  0.90400  0.00000  Biso   1.000  C
  H188     1.0000 0.86500  0.78490  0.00000  Biso   1.000  H
  C201     1.0000 0.74100  0.78700  0.00000  Biso   1.000  C
  H189     1.0000 0.73350  0.73040  0.00000  Biso   1.000  H
  C202     1.0000 0.67300  0.83800  0.00000  Biso   1.000  C
  H190     1.0000 0.62070  0.81630  0.00000  Biso   1.000  H
  C203     1.0000 0.68400  0.92200  0.00000  Biso   1.000  C
  H191     1.0000 0.63870  0.95690  0.00000  Biso   1.000  H
  C204     1.0000 0.76200  0.95500  0.00000  Biso   1.000  C
  H192     1.0000 0.76960  0.01150  0.00000  Biso   1.000  H
