data_image0
_cell_length_a       24.9778
_cell_length_b       24.9778
_cell_length_c       24.9778
_cell_angle_alpha    60
_cell_angle_beta     60
_cell_angle_gamma    60

_symmetry_space_group_name_H-M    "P 1"
_symmetry_int_tables_number       1

loop_
  _symmetry_equiv_pos_as_xyz
  'x, y, z'

loop_
  _atom_site_label
  _atom_site_occupancy
  _atom_site_fract_x
  _atom_site_fract_y
  _atom_site_fract_z
  _atom_site_thermal_displace_type
  _atom_site_B_iso_or_equiv
  _atom_site_type_symbol
  Zr1      1.0000 0.88373  0.52235  0.52235  Biso   1.000  Zr
  Zr2      1.0000 0.97765  0.47765  0.92843  Biso   1.000  Zr
  Zr3      1.0000 0.02235  0.07157  0.38373  Biso   1.000  Zr
  Zr4      1.0000 0.42843  0.47765  0.61627  Biso   1.000  Zr
  Zr5      1.0000 0.42843  0.61627  0.47765  Biso   1.000  Zr
  Zr6      1.0000 0.42843  0.47765  0.47765  Biso   1.000  Zr
  Zr7      1.0000 0.02235  0.38373  0.07157  Biso   1.000  Zr
  Zr8      1.0000 0.97765  0.47765  0.61627  Biso   1.000  Zr
  Zr9      1.0000 0.88373  0.52235  0.07157  Biso   1.000  Zr
  Zr10     1.0000 0.57157  0.38373  0.52235  Biso   1.000  Zr
  Zr11     1.0000 0.97765  0.61627  0.92843  Biso   1.000  Zr
  Zr12     1.0000 0.88373  0.07157  0.52235  Biso   1.000  Zr
  Zr13     1.0000 0.97765  0.61627  0.47765  Biso   1.000  Zr
  Zr14     1.0000 0.02235  0.52235  0.07157  Biso   1.000  Zr
  Zr15     1.0000 0.02235  0.52235  0.38373  Biso   1.000  Zr
  Zr16     1.0000 0.57157  0.52235  0.38373  Biso   1.000  Zr
  Zr17     1.0000 0.97765  0.92843  0.61627  Biso   1.000  Zr
  Zr18     1.0000 0.11627  0.47765  0.47765  Biso   1.000  Zr
  Zr19     1.0000 0.11627  0.92843  0.47765  Biso   1.000  Zr
  Zr20     1.0000 0.11627  0.47765  0.92843  Biso   1.000  Zr
  Zr21     1.0000 0.57157  0.52235  0.52235  Biso   1.000  Zr
  Zr22     1.0000 0.02235  0.07157  0.52235  Biso   1.000  Zr
  Zr23     1.0000 0.02235  0.38373  0.52235  Biso   1.000  Zr
  Zr24     1.0000 0.97765  0.92843  0.47765  Biso   1.000  Zr
  H1       1.0000 0.07540  0.74100  0.44260  Biso   1.000  H
  H2       1.0000 0.92460  0.25900  0.25900  Biso   1.000  H
  H3       1.0000 0.75900  0.25900  0.55740  Biso   1.000  H
  H4       1.0000 0.92460  0.55740  0.25900  Biso   1.000  H
  H5       1.0000 0.94260  0.57540  0.74100  Biso   1.000  H
  H6       1.0000 0.05740  0.25900  0.25900  Biso   1.000  H
  H7       1.0000 0.07540  0.44260  0.74100  Biso   1.000  H
  H8       1.0000 0.94260  0.74100  0.74100  Biso   1.000  H
  H9       1.0000 0.92460  0.25900  0.55740  Biso   1.000  H
  H10      1.0000 0.07540  0.74100  0.74100  Biso   1.000  H
  H11      1.0000 0.24100  0.44260  0.74100  Biso   1.000  H
  H12      1.0000 0.24100  0.44260  0.57540  Biso   1.000  H
  H13      1.0000 0.24100  0.74100  0.44260  Biso   1.000  H
  H14      1.0000 0.24100  0.74100  0.57540  Biso   1.000  H
  H15      1.0000 0.05740  0.25900  0.42460  Biso   1.000  H
  H16      1.0000 0.94260  0.74100  0.57540  Biso   1.000  H
  H17      1.0000 0.75900  0.55740  0.42460  Biso   1.000  H
  H18      1.0000 0.24100  0.57540  0.44260  Biso   1.000  H
  H19      1.0000 0.05740  0.42460  0.25900  Biso   1.000  H
  H20      1.0000 0.24100  0.57540  0.74100  Biso   1.000  H
  H21      1.0000 0.75900  0.42460  0.25900  Biso   1.000  H
  H22      1.0000 0.75900  0.25900  0.42460  Biso   1.000  H
  H23      1.0000 0.75900  0.42460  0.55740  Biso   1.000  H
  H24      1.0000 0.75900  0.55740  0.25900  Biso   1.000  H
  C1       1.0000 0.94210  0.65372  0.65372  Biso   1.000  C
  C2       1.0000 0.15372  0.75046  0.44210  Biso   1.000  C
  C3       1.0000 0.21812  0.62126  0.71812  Biso   1.000  C
  C4       1.0000 0.21812  0.71812  0.44250  Biso   1.000  C
  C5       1.0000 0.84628  0.24954  0.55790  Biso   1.000  C
  C6       1.0000 0.68276  0.55280  0.38222  Biso   1.000  C
  C7       1.0000 0.94250  0.71812  0.71812  Biso   1.000  C
  C8       1.0000 0.31724  0.44720  0.61778  Biso   1.000  C
  C9       1.0000 0.05750  0.28188  0.37874  Biso   1.000  C
  C10      1.0000 0.78188  0.37874  0.28188  Biso   1.000  C
  C11      1.0000 0.84628  0.24954  0.34628  Biso   1.000  C
  C12      1.0000 0.11778  0.44720  0.61778  Biso   1.000  C
  C13      1.0000 0.87874  0.28188  0.55750  Biso   1.000  C
  C14      1.0000 0.88222  0.55280  0.18276  Biso   1.000  C
  C15      1.0000 0.84628  0.34628  0.55790  Biso   1.000  C
  C16      1.0000 0.11778  0.81724  0.61778  Biso   1.000  C
  C17      1.0000 0.21812  0.44250  0.62126  Biso   1.000  C
  C18      1.0000 0.25046  0.65372  0.65372  Biso   1.000  C
  C19      1.0000 0.94250  0.71812  0.62126  Biso   1.000  C
  C20      1.0000 0.05280  0.38222  0.38222  Biso   1.000  C
  C21      1.0000 0.15372  0.65372  0.44210  Biso   1.000  C
  C22      1.0000 0.15372  0.44210  0.65372  Biso   1.000  C
  C23      1.0000 0.05750  0.37874  0.28188  Biso   1.000  C
  C24      1.0000 0.31724  0.61778  0.44720  Biso   1.000  C
  C25      1.0000 0.78188  0.37874  0.55750  Biso   1.000  C
  C26      1.0000 0.05280  0.18276  0.38222  Biso   1.000  C
  C27      1.0000 0.84628  0.34628  0.24954  Biso   1.000  C
  C28      1.0000 0.78188  0.55750  0.28188  Biso   1.000  C
  C29      1.0000 0.21812  0.71812  0.62126  Biso   1.000  C
  C30      1.0000 0.15372  0.75046  0.65372  Biso   1.000  C
  C31      1.0000 0.78188  0.55750  0.37874  Biso   1.000  C
  C32      1.0000 0.11778  0.61778  0.81724  Biso   1.000  C
  C33      1.0000 0.05790  0.34628  0.24954  Biso   1.000  C
  C34      1.0000 0.74954  0.34628  0.34628  Biso   1.000  C
  C35      1.0000 0.11778  0.61778  0.44720  Biso   1.000  C
  C36      1.0000 0.78188  0.28188  0.37874  Biso   1.000  C
  C37      1.0000 0.94210  0.65372  0.75046  Biso   1.000  C
  C38      1.0000 0.21812  0.62126  0.44250  Biso   1.000  C
  C39      1.0000 0.11778  0.81724  0.44720  Biso   1.000  C
  C40      1.0000 0.88222  0.38222  0.18276  Biso   1.000  C
  C41      1.0000 0.88222  0.18276  0.55280  Biso   1.000  C
  C42      1.0000 0.88222  0.38222  0.55280  Biso   1.000  C
  C43      1.0000 0.15372  0.65372  0.75046  Biso   1.000  C
  C44      1.0000 0.05280  0.38222  0.18276  Biso   1.000  C
  C45      1.0000 0.84628  0.55790  0.24954  Biso   1.000  C
  C46      1.0000 0.94720  0.61778  0.61778  Biso   1.000  C
  C47      1.0000 0.21812  0.44250  0.71812  Biso   1.000  C
  C48      1.0000 0.84628  0.55790  0.34628  Biso   1.000  C
  C49      1.0000 0.94250  0.62126  0.71812  Biso   1.000  C
  C50      1.0000 0.15372  0.44210  0.75046  Biso   1.000  C
  C51      1.0000 0.94720  0.81724  0.61778  Biso   1.000  C
  C52      1.0000 0.74954  0.55790  0.34628  Biso   1.000  C
  C53      1.0000 0.94210  0.75046  0.65372  Biso   1.000  C
  C54      1.0000 0.12126  0.44250  0.71812  Biso   1.000  C
  C55      1.0000 0.11778  0.44720  0.81724  Biso   1.000  C
  C56      1.0000 0.05790  0.24954  0.34628  Biso   1.000  C
  C57      1.0000 0.25046  0.65372  0.44210  Biso   1.000  C
  C58      1.0000 0.25046  0.44210  0.65372  Biso   1.000  C
  C59      1.0000 0.78188  0.28188  0.55750  Biso   1.000  C
  C60      1.0000 0.05790  0.34628  0.34628  Biso   1.000  C
  C61      1.0000 0.12126  0.71812  0.44250  Biso   1.000  C
  C62      1.0000 0.05750  0.28188  0.28188  Biso   1.000  C
  C63      1.0000 0.68276  0.38222  0.38222  Biso   1.000  C
  C64      1.0000 0.68276  0.38222  0.55280  Biso   1.000  C
  C65      1.0000 0.94720  0.61778  0.81724  Biso   1.000  C
  C66      1.0000 0.31724  0.61778  0.61778  Biso   1.000  C
  C67      1.0000 0.12126  0.71812  0.71812  Biso   1.000  C
  C68      1.0000 0.88222  0.18276  0.38222  Biso   1.000  C
  C69      1.0000 0.87874  0.28188  0.28188  Biso   1.000  C
  C70      1.0000 0.88222  0.55280  0.38222  Biso   1.000  C
  C71      1.0000 0.87874  0.55750  0.28188  Biso   1.000  C
  C72      1.0000 0.74954  0.34628  0.55790  Biso   1.000  C
  S1       1.0000 0.18980  0.31020  0.00000  Biso   1.000  S
  S2       1.0000 0.55070  0.25710  0.59610  Biso   1.000  S
  S3       1.0000 0.81020  0.68980  0.50000  Biso   1.000  S
  S4       1.0000 0.81020  0.50000  0.68980  Biso   1.000  S
  S5       1.0000 0.09610  0.05070  0.25710  Biso   1.000  S
  S6       1.0000 0.90390  0.94930  0.74290  Biso   1.000  S
  S7       1.0000 0.90390  0.74290  0.40390  Biso   1.000  S
  S8       1.0000 0.75710  0.05070  0.59610  Biso   1.000  S
  S9       1.0000 0.24290  0.94930  0.40390  Biso   1.000  S
  S10      1.0000 0.50000  0.68980  0.31020  Biso   1.000  S
  S11      1.0000 0.00000  0.00000  0.31020  Biso   1.000  S
  S12      1.0000 0.90390  0.40390  0.74290  Biso   1.000  S
  S13      1.0000 0.50000  0.50000  0.31020  Biso   1.000  S
  S14      1.0000 0.81020  0.00000  0.50000  Biso   1.000  S
  S15      1.0000 0.90390  0.94930  0.40390  Biso   1.000  S
  S16      1.0000 0.18980  0.50000  0.31020  Biso   1.000  S
  S17      1.0000 0.81020  0.00000  0.68980  Biso   1.000  S
  S18      1.0000 0.81020  0.68980  0.00000  Biso   1.000  S
  S19      1.0000 0.00000  0.31020  0.00000  Biso   1.000  S
  S20      1.0000 0.18980  0.50000  0.00000  Biso   1.000  S
  S21      1.0000 0.50000  0.31020  0.68980  Biso   1.000  S
  S22      1.0000 0.44930  0.74290  0.40390  Biso   1.000  S
  S23      1.0000 0.00000  0.68980  0.31020  Biso   1.000  S
  S24      1.0000 0.18980  0.00000  0.31020  Biso   1.000  S
  S25      1.0000 0.18980  0.00000  0.50000  Biso   1.000  S
  S26      1.0000 0.75710  0.59610  0.05070  Biso   1.000  S
  S27      1.0000 0.50000  0.31020  0.50000  Biso   1.000  S
  S28      1.0000 0.44930  0.40390  0.74290  Biso   1.000  S
  S29      1.0000 0.55070  0.59610  0.59610  Biso   1.000  S
  S30      1.0000 0.90390  0.40390  0.94930  Biso   1.000  S
  S31      1.0000 0.24290  0.40390  0.94930  Biso   1.000  S
  S32      1.0000 0.75710  0.59610  0.59610  Biso   1.000  S
  S33      1.0000 0.18980  0.31020  0.50000  Biso   1.000  S
  S34      1.0000 0.09610  0.25710  0.59610  Biso   1.000  S
  S35      1.0000 0.50000  0.50000  0.68980  Biso   1.000  S
  S36      1.0000 0.00000  0.00000  0.68980  Biso   1.000  S
  S37      1.0000 0.09610  0.59610  0.25710  Biso   1.000  S
  S38      1.0000 0.50000  0.68980  0.50000  Biso   1.000  S
  S39      1.0000 0.09610  0.59610  0.05070  Biso   1.000  S
  S40      1.0000 0.44930  0.40390  0.40390  Biso   1.000  S
  S41      1.0000 0.09610  0.25710  0.05070  Biso   1.000  S
  S42      1.0000 0.81020  0.50000  0.00000  Biso   1.000  S
  S43      1.0000 0.24290  0.40390  0.40390  Biso   1.000  S
  S44      1.0000 0.55070  0.59610  0.25710  Biso   1.000  S
  S45      1.0000 0.09610  0.05070  0.59610  Biso   1.000  S
  S46      1.0000 0.00000  0.31020  0.68980  Biso   1.000  S
  S47      1.0000 0.90390  0.74290  0.94930  Biso   1.000  S
  S48      1.0000 0.00000  0.68980  0.00000  Biso   1.000  S
  O1       1.0000 0.89540  0.32200  0.71020  Biso   1.000  O
  O2       1.0000 0.21020  0.39540  0.07240  Biso   1.000  O
  O3       1.0000 0.78980  0.60460  0.67800  Biso   1.000  O
  O4       1.0000 0.87900  0.94420  0.69680  Biso   1.000  O
  O5       1.0000 0.82200  0.39540  0.71020  Biso   1.000  O
  O6       1.0000 0.06570  0.56570  0.40490  Biso   1.000  O
  O7       1.0000 0.05160  0.97100  0.42580  Biso   1.000  O
  O8       1.0000 0.10460  0.28980  0.92760  Biso   1.000  O
  O9       1.0000 0.42760  0.28980  0.67800  Biso   1.000  O
  O10      1.0000 0.41110  0.80830  0.39030  Biso   1.000  O
  O11      1.0000 0.76320  0.63160  0.63160  Biso   1.000  O
  O12      1.0000 0.11780  0.29960  0.06720  Biso   1.000  O
  O13      1.0000 0.79960  0.61780  0.06720  Biso   1.000  O
  O14      1.0000 0.88220  0.70040  0.48460  Biso   1.000  O
  O15      1.0000 0.78980  0.67800  0.92760  Biso   1.000  O
  O16      1.0000 0.23680  0.36840  0.02640  Biso   1.000  O
  O17      1.0000 0.79960  0.06720  0.51540  Biso   1.000  O
  O18      1.0000 0.10460  0.67800  0.92760  Biso   1.000  O
  O19      1.0000 0.05861  0.84293  0.44975  Biso   1.000  O
  O20      1.0000 0.90490  0.96370  0.56570  Biso   1.000  O
  O21      1.0000 0.01540  0.06720  0.29960  Biso   1.000  O
  O22      1.0000 0.65707  0.55025  0.35129  Biso   1.000  O
  O23      1.0000 0.38810  0.53730  0.53730  Biso   1.000  O
  O24      1.0000 0.53630  0.59510  0.43430  Biso   1.000  O
  O25      1.0000 0.47100  0.55160  0.42580  Biso   1.000  O
  O26      1.0000 0.47100  0.42580  0.55160  Biso   1.000  O
  O27      1.0000 0.53630  0.43430  0.43430  Biso   1.000  O
  O28      1.0000 0.55580  0.30320  0.52000  Biso   1.000  O
  O29      1.0000 0.94139  0.35129  0.15707  Biso   1.000  O
  O30      1.0000 0.53630  0.43430  0.59510  Biso   1.000  O
  O31      1.0000 0.87900  0.94420  0.48000  Biso   1.000  O
  O32      1.0000 0.10970  0.08890  0.19170  Biso   1.000  O
  O33      1.0000 0.42760  0.67800  0.60460  Biso   1.000  O
  O34      1.0000 0.86840  0.02640  0.36840  Biso   1.000  O
  O35      1.0000 0.79960  0.06720  0.61780  Biso   1.000  O
  O36      1.0000 0.94975  0.55861  0.64871  Biso   1.000  O
  O37      1.0000 0.79960  0.51540  0.61780  Biso   1.000  O
  O38      1.0000 0.01540  0.29960  0.61780  Biso   1.000  O
  O39      1.0000 0.86840  0.36840  0.73680  Biso   1.000  O
  O40      1.0000 0.47360  0.63160  0.26320  Biso   1.000  O
  O41      1.0000 0.93430  0.03630  0.43430  Biso   1.000  O
  O42      1.0000 0.90490  0.56570  0.96370  Biso   1.000  O
  O43      1.0000 0.05025  0.35129  0.44139  Biso   1.000  O
  O44      1.0000 0.58890  0.60970  0.60970  Biso   1.000  O
  O45      1.0000 0.10970  0.19170  0.60970  Biso   1.000  O
  O46      1.0000 0.12100  0.30320  0.05580  Biso   1.000  O
  O47      1.0000 0.65707  0.44139  0.35129  Biso   1.000  O
  O48      1.0000 0.89030  0.80830  0.91110  Biso   1.000  O
  O49      1.0000 0.10970  0.60970  0.19170  Biso   1.000  O
  O50      1.0000 0.02820  0.91540  0.52820  Biso   1.000  O
  O51      1.0000 0.98000  0.94420  0.69680  Biso   1.000  O
  O52      1.0000 0.42760  0.28980  0.60460  Biso   1.000  O
  O53      1.0000 0.89030  0.91110  0.39030  Biso   1.000  O
  O54      1.0000 0.20040  0.93280  0.38220  Biso   1.000  O
  O55      1.0000 0.44420  0.48000  0.69680  Biso   1.000  O
  O56      1.0000 0.30830  0.39030  0.91110  Biso   1.000  O
  O57      1.0000 0.57240  0.71020  0.39540  Biso   1.000  O
  O58      1.0000 0.13160  0.97360  0.26320  Biso   1.000  O
  O59      1.0000 0.43280  0.38220  0.70040  Biso   1.000  O
  O60      1.0000 0.88220  0.48460  0.70040  Biso   1.000  O
  O61      1.0000 0.23680  0.02640  0.36840  Biso   1.000  O
  O62      1.0000 0.94840  0.44840  0.02900  Biso   1.000  O
  O63      1.0000 0.05025  0.35129  0.15707  Biso   1.000  O
  O64      1.0000 0.03730  0.53730  0.88810  Biso   1.000  O
  O65      1.0000 0.96270  0.46270  0.11190  Biso   1.000  O
  O66      1.0000 0.93430  0.59510  0.03630  Biso   1.000  O
  O67      1.0000 0.87900  0.48000  0.69680  Biso   1.000  O
  O68      1.0000 0.13160  0.26320  0.63160  Biso   1.000  O
  O69      1.0000 0.76320  0.63160  0.97360  Biso   1.000  O
  O70      1.0000 0.80320  0.52000  0.05580  Biso   1.000  O
  O71      1.0000 0.98460  0.93280  0.38220  Biso   1.000  O
  O72      1.0000 0.94139  0.15707  0.55025  Biso   1.000  O
  O73      1.0000 0.46370  0.56570  0.40490  Biso   1.000  O
  O74      1.0000 0.11780  0.29960  0.51540  Biso   1.000  O
  O75      1.0000 0.10460  0.92760  0.67800  Biso   1.000  O
  O76      1.0000 0.89030  0.39030  0.91110  Biso   1.000  O
  O77      1.0000 0.21020  0.07240  0.39540  Biso   1.000  O
  O78      1.0000 0.93430  0.43430  0.59510  Biso   1.000  O
  O79      1.0000 0.96270  0.46270  0.46270  Biso   1.000  O
  O80      1.0000 0.20040  0.48460  0.93280  Biso   1.000  O
  O81      1.0000 0.94139  0.55025  0.35129  Biso   1.000  O
  O82      1.0000 0.05160  0.42580  0.55160  Biso   1.000  O
  O83      1.0000 0.06570  0.96370  0.40490  Biso   1.000  O
  O84      1.0000 0.92580  0.97100  0.55160  Biso   1.000  O
  O85      1.0000 0.88220  0.48460  0.93280  Biso   1.000  O
  O86      1.0000 0.55580  0.30320  0.62100  Biso   1.000  O
  O87      1.0000 0.93430  0.43430  0.03630  Biso   1.000  O
  O88      1.0000 0.65707  0.35129  0.44139  Biso   1.000  O
  O89      1.0000 0.19680  0.94420  0.48000  Biso   1.000  O
  O90      1.0000 0.12100  0.30320  0.52000  Biso   1.000  O
  O91      1.0000 0.43280  0.70040  0.38220  Biso   1.000  O
  O92      1.0000 0.20040  0.38220  0.93280  Biso   1.000  O
  O93      1.0000 0.34293  0.55861  0.64871  Biso   1.000  O
  O94      1.0000 0.94975  0.64871  0.84293  Biso   1.000  O
  O95      1.0000 0.89540  0.71020  0.32200  Biso   1.000  O
  O96      1.0000 0.34293  0.64871  0.44975  Biso   1.000  O
  O97      1.0000 0.80320  0.62100  0.52000  Biso   1.000  O
  O98      1.0000 0.88220  0.93280  0.70040  Biso   1.000  O
  O99      1.0000 0.17800  0.92760  0.60460  Biso   1.000  O
  O100     1.0000 0.41540  0.52820  0.52820  Biso   1.000  O
  O101     1.0000 0.89030  0.80830  0.39030  Biso   1.000  O
  O102     1.0000 0.57240  0.32200  0.39540  Biso   1.000  O
  O103     1.0000 0.10460  0.92760  0.28980  Biso   1.000  O
  O104     1.0000 0.82200  0.39540  0.07240  Biso   1.000  O
  O105     1.0000 0.57240  0.32200  0.71020  Biso   1.000  O
  O106     1.0000 0.89030  0.91110  0.80830  Biso   1.000  O
  O107     1.0000 0.13160  0.63160  0.97360  Biso   1.000  O
  O108     1.0000 0.07420  0.44840  0.02900  Biso   1.000  O
  O109     1.0000 0.86840  0.02640  0.73680  Biso   1.000  O
  O110     1.0000 0.44420  0.37900  0.69680  Biso   1.000  O
  O111     1.0000 0.98460  0.38220  0.93280  Biso   1.000  O
  O112     1.0000 0.05861  0.44975  0.84293  Biso   1.000  O
  O113     1.0000 0.55580  0.62100  0.30320  Biso   1.000  O
  O114     1.0000 0.94840  0.57420  0.44840  Biso   1.000  O
  O115     1.0000 0.44420  0.37900  0.48000  Biso   1.000  O
  O116     1.0000 0.87900  0.69680  0.94420  Biso   1.000  O
  O117     1.0000 0.05160  0.55160  0.97100  Biso   1.000  O
  O118     1.0000 0.14871  0.84293  0.44975  Biso   1.000  O
  O119     1.0000 0.58890  0.60970  0.19170  Biso   1.000  O
  O120     1.0000 0.52640  0.36840  0.36840  Biso   1.000  O
  O121     1.0000 0.58890  0.19170  0.60970  Biso   1.000  O
  O122     1.0000 0.85129  0.44139  0.15707  Biso   1.000  O
  O123     1.0000 0.23680  0.36840  0.36840  Biso   1.000  O
  O124     1.0000 0.19680  0.48000  0.94420  Biso   1.000  O
  O125     1.0000 0.30830  0.39030  0.39030  Biso   1.000  O
  O126     1.0000 0.56720  0.51540  0.29960  Biso   1.000  O
  O127     1.0000 0.98460  0.93280  0.70040  Biso   1.000  O
  O128     1.0000 0.02000  0.62100  0.30320  Biso   1.000  O
  O129     1.0000 0.58460  0.47180  0.47180  Biso   1.000  O
  O130     1.0000 0.82200  0.71020  0.07240  Biso   1.000  O
  O131     1.0000 0.52640  0.36840  0.73680  Biso   1.000  O
  O132     1.0000 0.13160  0.97360  0.63160  Biso   1.000  O
  O133     1.0000 0.07420  0.02900  0.44840  Biso   1.000  O
  O134     1.0000 0.97180  0.08460  0.47180  Biso   1.000  O
  O135     1.0000 0.94840  0.57420  0.02900  Biso   1.000  O
  O136     1.0000 0.80320  0.05580  0.52000  Biso   1.000  O
  O137     1.0000 0.82200  0.07240  0.71020  Biso   1.000  O
  O138     1.0000 0.94840  0.02900  0.44840  Biso   1.000  O
  O139     1.0000 0.06570  0.96370  0.56570  Biso   1.000  O
  O140     1.0000 0.05025  0.44139  0.15707  Biso   1.000  O
  O141     1.0000 0.89540  0.07240  0.71020  Biso   1.000  O
  O142     1.0000 0.98000  0.94420  0.37900  Biso   1.000  O
  O143     1.0000 0.11780  0.51540  0.06720  Biso   1.000  O
  O144     1.0000 0.44420  0.48000  0.37900  Biso   1.000  O
  O145     1.0000 0.94975  0.84293  0.55861  Biso   1.000  O
  O146     1.0000 0.98460  0.70040  0.38220  Biso   1.000  O
  O147     1.0000 0.01540  0.29960  0.06720  Biso   1.000  O
  O148     1.0000 0.06570  0.40490  0.56570  Biso   1.000  O
  O149     1.0000 0.14871  0.55861  0.84293  Biso   1.000  O
  O150     1.0000 0.78980  0.60460  0.92760  Biso   1.000  O
  O151     1.0000 0.19680  0.37900  0.48000  Biso   1.000  O
  O152     1.0000 0.34293  0.44975  0.55861  Biso   1.000  O
  O153     1.0000 0.10460  0.28980  0.67800  Biso   1.000  O
  O154     1.0000 0.55580  0.52000  0.30320  Biso   1.000  O
  O155     1.0000 0.44420  0.69680  0.37900  Biso   1.000  O
  O156     1.0000 0.80320  0.62100  0.05580  Biso   1.000  O
  O157     1.0000 0.98000  0.69680  0.37900  Biso   1.000  O
  O158     1.0000 0.05025  0.15707  0.35129  Biso   1.000  O
  O159     1.0000 0.21020  0.07240  0.32200  Biso   1.000  O
  O160     1.0000 0.01540  0.06720  0.61780  Biso   1.000  O
  O161     1.0000 0.94139  0.55025  0.15707  Biso   1.000  O
  O162     1.0000 0.05861  0.84293  0.64871  Biso   1.000  O
  O163     1.0000 0.17800  0.60460  0.28980  Biso   1.000  O
  O164     1.0000 0.05025  0.15707  0.44139  Biso   1.000  O
  O165     1.0000 0.10460  0.67800  0.28980  Biso   1.000  O
  O166     1.0000 0.17800  0.28980  0.92760  Biso   1.000  O
  O167     1.0000 0.19680  0.94420  0.37900  Biso   1.000  O
  O168     1.0000 0.65707  0.44139  0.55025  Biso   1.000  O
  O169     1.0000 0.86840  0.73680  0.36840  Biso   1.000  O
  O170     1.0000 0.97180  0.47180  0.08460  Biso   1.000  O
  O171     1.0000 0.79960  0.51540  0.06720  Biso   1.000  O
  O172     1.0000 0.07420  0.44840  0.44840  Biso   1.000  O
  O173     1.0000 0.97180  0.47180  0.47180  Biso   1.000  O
  O174     1.0000 0.89540  0.71020  0.07240  Biso   1.000  O
  O175     1.0000 0.93430  0.59510  0.43430  Biso   1.000  O
  O176     1.0000 0.12100  0.05580  0.30320  Biso   1.000  O
  O177     1.0000 0.94975  0.64871  0.55861  Biso   1.000  O
  O178     1.0000 0.03730  0.53730  0.53730  Biso   1.000  O
  O179     1.0000 0.56720  0.61780  0.51540  Biso   1.000  O
  O180     1.0000 0.42760  0.60460  0.28980  Biso   1.000  O
  O181     1.0000 0.11780  0.51540  0.29960  Biso   1.000  O
  O182     1.0000 0.78980  0.67800  0.60460  Biso   1.000  O
  O183     1.0000 0.02000  0.05580  0.62100  Biso   1.000  O
  O184     1.0000 0.41110  0.39030  0.39030  Biso   1.000  O
  O185     1.0000 0.05861  0.64871  0.44975  Biso   1.000  O
  O186     1.0000 0.47360  0.26320  0.63160  Biso   1.000  O
  O187     1.0000 0.02000  0.62100  0.05580  Biso   1.000  O
  O188     1.0000 0.98460  0.38220  0.70040  Biso   1.000  O
  O189     1.0000 0.82200  0.71020  0.39540  Biso   1.000  O
  O190     1.0000 0.69170  0.60970  0.08890  Biso   1.000  O
  O191     1.0000 0.94975  0.55861  0.84293  Biso   1.000  O
  O192     1.0000 0.94139  0.15707  0.35129  Biso   1.000  O
  O193     1.0000 0.85129  0.15707  0.44139  Biso   1.000  O
  O194     1.0000 0.06570  0.56570  0.96370  Biso   1.000  O
  O195     1.0000 0.94975  0.84293  0.64871  Biso   1.000  O
  O196     1.0000 0.05025  0.44139  0.35129  Biso   1.000  O
  O197     1.0000 0.85129  0.15707  0.55025  Biso   1.000  O
  O198     1.0000 0.11780  0.06720  0.29960  Biso   1.000  O
  O199     1.0000 0.80320  0.52000  0.62100  Biso   1.000  O
  O200     1.0000 0.02000  0.30320  0.05580  Biso   1.000  O
  O201     1.0000 0.42760  0.67800  0.28980  Biso   1.000  O
  O202     1.0000 0.11780  0.06720  0.51540  Biso   1.000  O
  O203     1.0000 0.02820  0.52820  0.52820  Biso   1.000  O
  O204     1.0000 0.20040  0.48460  0.38220  Biso   1.000  O
  O205     1.0000 0.17800  0.60460  0.92760  Biso   1.000  O
  O206     1.0000 0.06570  0.40490  0.96370  Biso   1.000  O
  O207     1.0000 0.87900  0.48000  0.94420  Biso   1.000  O
  O208     1.0000 0.94840  0.02900  0.57420  Biso   1.000  O
  O209     1.0000 0.20040  0.93280  0.48460  Biso   1.000  O
  O210     1.0000 0.57240  0.39540  0.71020  Biso   1.000  O
  O211     1.0000 0.43280  0.48460  0.38220  Biso   1.000  O
  O212     1.0000 0.13160  0.63160  0.26320  Biso   1.000  O
  O213     1.0000 0.21020  0.32200  0.39540  Biso   1.000  O
  O214     1.0000 0.69170  0.08890  0.60970  Biso   1.000  O
  O215     1.0000 0.52640  0.73680  0.36840  Biso   1.000  O
  O216     1.0000 0.30830  0.91110  0.39030  Biso   1.000  O
  O217     1.0000 0.09510  0.03630  0.43430  Biso   1.000  O
  O218     1.0000 0.14871  0.55861  0.44975  Biso   1.000  O
  O219     1.0000 0.19680  0.48000  0.37900  Biso   1.000  O
  O220     1.0000 0.01540  0.61780  0.06720  Biso   1.000  O
  O221     1.0000 0.80320  0.05580  0.62100  Biso   1.000  O
  O222     1.0000 0.98000  0.69680  0.94420  Biso   1.000  O
  O223     1.0000 0.12100  0.52000  0.30320  Biso   1.000  O
  O224     1.0000 0.88220  0.70040  0.93280  Biso   1.000  O
  O225     1.0000 0.17800  0.92760  0.28980  Biso   1.000  O
  O226     1.0000 0.57240  0.39540  0.32200  Biso   1.000  O
  O227     1.0000 0.85129  0.55025  0.15707  Biso   1.000  O
  O228     1.0000 0.85129  0.44139  0.55025  Biso   1.000  O
  O229     1.0000 0.98000  0.37900  0.94420  Biso   1.000  O
  O230     1.0000 0.79960  0.61780  0.51540  Biso   1.000  O
  O231     1.0000 0.56720  0.61780  0.29960  Biso   1.000  O
  O232     1.0000 0.43280  0.70040  0.48460  Biso   1.000  O
  O233     1.0000 0.09510  0.43430  0.43430  Biso   1.000  O
  O234     1.0000 0.34293  0.64871  0.55861  Biso   1.000  O
  O235     1.0000 0.34293  0.55861  0.44975  Biso   1.000  O
  O236     1.0000 0.76320  0.97360  0.63160  Biso   1.000  O
  O237     1.0000 0.65707  0.35129  0.55025  Biso   1.000  O
  O238     1.0000 0.34293  0.44975  0.64871  Biso   1.000  O
  O239     1.0000 0.69170  0.60970  0.60970  Biso   1.000  O
  O240     1.0000 0.10970  0.08890  0.60970  Biso   1.000  O
  O241     1.0000 0.21020  0.32200  0.07240  Biso   1.000  O
  O242     1.0000 0.87900  0.69680  0.48000  Biso   1.000  O
  O243     1.0000 0.56720  0.29960  0.51540  Biso   1.000  O
  O244     1.0000 0.02000  0.30320  0.62100  Biso   1.000  O
  O245     1.0000 0.85129  0.55025  0.44139  Biso   1.000  O
  O246     1.0000 0.19680  0.37900  0.94420  Biso   1.000  O
  O247     1.0000 0.41110  0.39030  0.80830  Biso   1.000  O
  O248     1.0000 0.98000  0.37900  0.69680  Biso   1.000  O
  O249     1.0000 0.89540  0.07240  0.32200  Biso   1.000  O
  O250     1.0000 0.44420  0.69680  0.48000  Biso   1.000  O
  O251     1.0000 0.10970  0.60970  0.08890  Biso   1.000  O
  O252     1.0000 0.56720  0.51540  0.61780  Biso   1.000  O
  O253     1.0000 0.46370  0.40490  0.56570  Biso   1.000  O
  O254     1.0000 0.96270  0.11190  0.46270  Biso   1.000  O
  O255     1.0000 0.89030  0.39030  0.80830  Biso   1.000  O
  O256     1.0000 0.43280  0.38220  0.48460  Biso   1.000  O
  O257     1.0000 0.93430  0.03630  0.59510  Biso   1.000  O
  O258     1.0000 0.02820  0.52820  0.91540  Biso   1.000  O
  O259     1.0000 0.02000  0.05580  0.30320  Biso   1.000  O
  O260     1.0000 0.86840  0.36840  0.02640  Biso   1.000  O
  O261     1.0000 0.57240  0.71020  0.32200  Biso   1.000  O
  O262     1.0000 0.01540  0.61780  0.29960  Biso   1.000  O
  O263     1.0000 0.98460  0.70040  0.93280  Biso   1.000  O
  O264     1.0000 0.05861  0.44975  0.64871  Biso   1.000  O
  O265     1.0000 0.21020  0.39540  0.32200  Biso   1.000  O
  O266     1.0000 0.14871  0.84293  0.55861  Biso   1.000  O
  O267     1.0000 0.52900  0.44840  0.44840  Biso   1.000  O
  O268     1.0000 0.47100  0.55160  0.55160  Biso   1.000  O
  O269     1.0000 0.78980  0.92760  0.67800  Biso   1.000  O
  O270     1.0000 0.05861  0.64871  0.84293  Biso   1.000  O
  O271     1.0000 0.12100  0.05580  0.52000  Biso   1.000  O
  O272     1.0000 0.92580  0.55160  0.97100  Biso   1.000  O
  O273     1.0000 0.17800  0.28980  0.60460  Biso   1.000  O
  O274     1.0000 0.94139  0.35129  0.55025  Biso   1.000  O
  O275     1.0000 0.05160  0.55160  0.42580  Biso   1.000  O
  O276     1.0000 0.14871  0.44975  0.84293  Biso   1.000  O
  O277     1.0000 0.56720  0.29960  0.61780  Biso   1.000  O
  O278     1.0000 0.89540  0.32200  0.07240  Biso   1.000  O
  O279     1.0000 0.55580  0.52000  0.62100  Biso   1.000  O
  O280     1.0000 0.92580  0.55160  0.55160  Biso   1.000  O
  O281     1.0000 0.61190  0.46270  0.46270  Biso   1.000  O
  O282     1.0000 0.94840  0.44840  0.57420  Biso   1.000  O
  O283     1.0000 0.55580  0.62100  0.52000  Biso   1.000  O
  O284     1.0000 0.52900  0.57420  0.44840  Biso   1.000  O
  O285     1.0000 0.82200  0.07240  0.39540  Biso   1.000  O
  O286     1.0000 0.46370  0.56570  0.56570  Biso   1.000  O
  O287     1.0000 0.13160  0.26320  0.97360  Biso   1.000  O
  O288     1.0000 0.47360  0.63160  0.63160  Biso   1.000  O
  O289     1.0000 0.88220  0.93280  0.48460  Biso   1.000  O
  O290     1.0000 0.05160  0.42580  0.97100  Biso   1.000  O
  O291     1.0000 0.78980  0.92760  0.60460  Biso   1.000  O
  O292     1.0000 0.14871  0.44975  0.55861  Biso   1.000  O
  O293     1.0000 0.42760  0.60460  0.67800  Biso   1.000  O
  O294     1.0000 0.52900  0.44840  0.57420  Biso   1.000  O
  O295     1.0000 0.10970  0.19170  0.08890  Biso   1.000  O
  O296     1.0000 0.20040  0.38220  0.48460  Biso   1.000  O
  O297     1.0000 0.86840  0.73680  0.02640  Biso   1.000  O
  O298     1.0000 0.09510  0.43430  0.03630  Biso   1.000  O
  O299     1.0000 0.03730  0.88810  0.53730  Biso   1.000  O
  O300     1.0000 0.12100  0.52000  0.05580  Biso   1.000  O
  O301     1.0000 0.05160  0.97100  0.55160  Biso   1.000  O
  O302     1.0000 0.90490  0.56570  0.56570  Biso   1.000  O
  O303     1.0000 0.43280  0.48460  0.70040  Biso   1.000  O
  O304     1.0000 0.65707  0.55025  0.44139  Biso   1.000  O
