data_image0
_cell_length_a       17.809
_cell_length_b       17.812
_cell_length_c       17.831
_cell_angle_alpha    90.031
_cell_angle_beta     89.999
_cell_angle_gamma    90.182

_symmetry_space_group_name_H-M    "P 1"
_symmetry_int_tables_number       1

loop_
  _symmetry_equiv_pos_as_xyz
  'x, y, z'

loop_
  _atom_site_label
  _atom_site_occupancy
  _atom_site_fract_x
  _atom_site_fract_y
  _atom_site_fract_z
  _atom_site_thermal_displace_type
  _atom_site_B_iso_or_equiv
  _atom_site_type_symbol
  Zr1      1.0000 0.48933  0.86237  0.01100  Biso   1.000  Zr
  Zr2      1.0000 0.01060  0.86228  0.48896  Biso   1.000  Zr
  Zr3      1.0000 0.51067  0.13763  0.98900  Biso   1.000  Zr
  Zr4      1.0000 0.48907  0.51056  0.63770  Biso   1.000  Zr
  Zr5      1.0000 0.51050  0.36226  0.51123  Biso   1.000  Zr
  Zr6      1.0000 0.86232  0.98882  0.51041  Biso   1.000  Zr
  Zr7      1.0000 0.98902  0.48953  0.13765  Biso   1.000  Zr
  Zr8      1.0000 0.13761  0.48889  0.01054  Biso   1.000  Zr
  Zr9      1.0000 0.01098  0.51047  0.86235  Biso   1.000  Zr
  Zr10     1.0000 0.63767  0.98908  0.98952  Biso   1.000  Zr
  Zr11     1.0000 0.98940  0.13772  0.51104  Biso   1.000  Zr
  Zr12     1.0000 0.63777  0.51099  0.51040  Biso   1.000  Zr
  Zr13     1.0000 0.13768  0.01118  0.48959  Biso   1.000  Zr
  Zr14     1.0000 0.51093  0.48944  0.36230  Biso   1.000  Zr
  Zr15     1.0000 0.98939  0.36220  0.98894  Biso   1.000  Zr
  Zr16     1.0000 0.36223  0.48901  0.48960  Biso   1.000  Zr
  Zr17     1.0000 0.01095  0.98952  0.63764  Biso   1.000  Zr
  Zr18     1.0000 0.01061  0.63780  0.01106  Biso   1.000  Zr
  Zr19     1.0000 0.86239  0.51111  0.98946  Biso   1.000  Zr
  Zr20     1.0000 0.48950  0.63774  0.48877  Biso   1.000  Zr
  Zr21     1.0000 0.48893  0.98954  0.86231  Biso   1.000  Zr
  Zr22     1.0000 0.36233  0.01092  0.01048  Biso   1.000  Zr
  Zr23     1.0000 0.51107  0.01046  0.13769  Biso   1.000  Zr
  Zr24     1.0000 0.98905  0.01048  0.36236  Biso   1.000  Zr
  H1       1.0000 0.30660  0.01480  0.30390  Biso   1.000  H
  H2       1.0000 0.80590  0.19570  0.99250  Biso   1.000  H
  H3       1.0000 0.69500  0.99870  0.30720  Biso   1.000  H
  H4       1.0000 0.80530  0.00350  0.19140  Biso   1.000  H
  H5       1.0000 0.50120  0.80600  0.30430  Biso   1.000  H
  H6       1.0000 0.69460  0.19300  0.52140  Biso   1.000  H
  H7       1.0000 0.30540  0.80700  0.47860  Biso   1.000  H
  H8       1.0000 0.30500  0.00130  0.69280  Biso   1.000  H
  H9       1.0000 0.51650  0.30400  0.19420  Biso   1.000  H
  H10      1.0000 0.69380  0.30450  0.97710  Biso   1.000  H
  H11      1.0000 0.69260  0.69640  0.99870  Biso   1.000  H
  H12      1.0000 0.99930  0.30920  0.69410  Biso   1.000  H
  H13      1.0000 0.19350  0.01190  0.19740  Biso   1.000  H
  H14      1.0000 0.99940  0.80670  0.19520  Biso   1.000  H
  H15      1.0000 0.00060  0.19330  0.80480  Biso   1.000  H
  H16      1.0000 0.01070  0.69630  0.69160  Biso   1.000  H
  H17      1.0000 0.19200  0.19240  0.00210  Biso   1.000  H
  H18      1.0000 0.19470  0.99650  0.80860  Biso   1.000  H
  H19      1.0000 0.80800  0.80760  0.99790  Biso   1.000  H
  H20      1.0000 0.49620  0.69160  0.19540  Biso   1.000  H
  H21      1.0000 0.30640  0.49780  0.80840  Biso   1.000  H
  H22      1.0000 0.80450  0.30550  0.51200  Biso   1.000  H
  H23      1.0000 0.00070  0.69080  0.30590  Biso   1.000  H
  H24      1.0000 0.80730  0.69510  0.50160  Biso   1.000  H
  H25      1.0000 0.69160  0.51830  0.80420  Biso   1.000  H
  H26      1.0000 0.02120  0.80380  0.80810  Biso   1.000  H
  H27      1.0000 0.69410  0.80330  0.50310  Biso   1.000  H
  H28      1.0000 0.48730  0.80430  0.69380  Biso   1.000  H
  H29      1.0000 0.80650  0.98810  0.80260  Biso   1.000  H
  H30      1.0000 0.80500  0.52010  0.69540  Biso   1.000  H
  H31      1.0000 0.19270  0.30490  0.49840  Biso   1.000  H
  H32      1.0000 0.50380  0.30840  0.80460  Biso   1.000  H
  H33      1.0000 0.97880  0.19620  0.19190  Biso   1.000  H
  H34      1.0000 0.19340  0.50030  0.69100  Biso   1.000  H
  H35      1.0000 0.19410  0.80430  0.00750  Biso   1.000  H
  H36      1.0000 0.30740  0.30360  0.00130  Biso   1.000  H
  H37      1.0000 0.48350  0.69600  0.80580  Biso   1.000  H
  H38      1.0000 0.30620  0.69550  0.02290  Biso   1.000  H
  H39      1.0000 0.51270  0.19570  0.30620  Biso   1.000  H
  H40      1.0000 0.80660  0.49970  0.30900  Biso   1.000  H
  H41      1.0000 0.98930  0.30370  0.30840  Biso   1.000  H
  H42      1.0000 0.19500  0.47990  0.30460  Biso   1.000  H
  H43      1.0000 0.30590  0.19670  0.49690  Biso   1.000  H
  H44      1.0000 0.19550  0.69450  0.48800  Biso   1.000  H
  H45      1.0000 0.69360  0.50220  0.19160  Biso   1.000  H
  H46      1.0000 0.69340  0.98520  0.69610  Biso   1.000  H
  H47      1.0000 0.49880  0.19400  0.69570  Biso   1.000  H
  H48      1.0000 0.30840  0.48170  0.19580  Biso   1.000  H
  C1       1.0000 0.24500  0.71400  0.48500  Biso   1.000  C
  C2       1.0000 0.21300  0.01500  0.24670  Biso   1.000  C
  C3       1.0000 0.75700  0.50100  0.28970  Biso   1.000  C
  C4       1.0000 0.69200  0.50300  0.34010  Biso   1.000  C
  C5       1.0000 0.48000  0.81000  0.84100  Biso   1.000  C
  C6       1.0000 0.49600  0.15960  0.80800  Biso   1.000  C
  C7       1.0000 0.78700  0.98500  0.75330  Biso   1.000  C
  C8       1.0000 0.50400  0.66170  0.30920  Biso   1.000  C
  C9       1.0000 0.33970  0.30900  0.50600  Biso   1.000  C
  C10      1.0000 0.84000  0.80900  0.49800  Biso   1.000  C
  C11      1.0000 0.80920  0.50400  0.15980  Biso   1.000  C
  C12      1.0000 0.28800  0.48200  0.24500  Biso   1.000  C
  C13      1.0000 0.28600  0.24600  0.50000  Biso   1.000  C
  C14      1.0000 0.25670  0.49700  0.78910  Biso   1.000  C
  C15      1.0000 0.00300  0.15800  0.69100  Biso   1.000  C
  C16      1.0000 0.31130  0.83700  0.02100  Biso   1.000  C
  C17      1.0000 0.74460  0.99800  0.28760  Biso   1.000  C
  C18      1.0000 0.68790  0.33900  0.51700  Biso   1.000  C
  C19      1.0000 0.99700  0.84200  0.30900  Biso   1.000  C
  C20      1.0000 0.34000  0.48400  0.31000  Biso   1.000  C
  C21      1.0000 0.66030  0.69100  0.49400  Biso   1.000  C
  C22      1.0000 0.15890  0.31000  0.99800  Biso   1.000  C
  C23      1.0000 0.98200  0.18970  0.33900  Biso   1.000  C
  C24      1.0000 0.50000  0.71180  0.24450  Biso   1.000  C
  C25      1.0000 0.01800  0.81030  0.66100  Biso   1.000  C
  C26      1.0000 0.48200  0.68870  0.66100  Biso   1.000  C
  C27      1.0000 0.49800  0.21310  0.74550  Biso   1.000  C
  C28      1.0000 0.71200  0.51800  0.75500  Biso   1.000  C
  C29      1.0000 0.78820  0.75800  0.00000  Biso   1.000  C
  C30      1.0000 0.50400  0.84040  0.19200  Biso   1.000  C
  C31      1.0000 0.78600  0.51900  0.74500  Biso   1.000  C
  C32      1.0000 0.74440  0.21200  0.51900  Biso   1.000  C
  C33      1.0000 0.16000  0.02000  0.31080  Biso   1.000  C
  C34      1.0000 0.21240  0.25540  0.49990  Biso   1.000  C
  C35      1.0000 0.34000  0.19000  0.99500  Biso   1.000  C
  C36      1.0000 0.00200  0.29000  0.74400  Biso   1.000  C
  C37      1.0000 0.75570  0.00000  0.21080  Biso   1.000  C
  C38      1.0000 0.71190  0.74600  0.00100  Biso   1.000  C
  C39      1.0000 0.24430  0.00000  0.78920  Biso   1.000  C
  C40      1.0000 0.81200  0.99600  0.34200  Biso   1.000  C
  C41      1.0000 0.65900  0.98200  0.81070  Biso   1.000  C
  C42      1.0000 0.28700  0.01600  0.25450  Biso   1.000  C
  C43      1.0000 0.15800  0.48200  0.19030  Biso   1.000  C
  C44      1.0000 0.75700  0.21500  0.98600  Biso   1.000  C
  C45      1.0000 0.48500  0.75500  0.71400  Biso   1.000  C
  C46      1.0000 0.31210  0.66100  0.48300  Biso   1.000  C
  C47      1.0000 0.49600  0.33830  0.69080  Biso   1.000  C
  C48      1.0000 0.31000  0.00300  0.84160  Biso   1.000  C
  C49      1.0000 0.50000  0.28820  0.75550  Biso   1.000  C
  C50      1.0000 0.98500  0.25500  0.28800  Biso   1.000  C
  C51      1.0000 0.52000  0.19000  0.15900  Biso   1.000  C
  C52      1.0000 0.84200  0.51800  0.80970  Biso   1.000  C
  C53      1.0000 0.18850  0.65930  0.01500  Biso   1.000  C
  C54      1.0000 0.01500  0.74500  0.71200  Biso   1.000  C
  C55      1.0000 0.84000  0.98000  0.68920  Biso   1.000  C
  C56      1.0000 0.25540  0.00200  0.71240  Biso   1.000  C
  C57      1.0000 0.81040  0.15800  0.52000  Biso   1.000  C
  C58      1.0000 0.18960  0.84200  0.48000  Biso   1.000  C
  C59      1.0000 0.69000  0.99700  0.15840  Biso   1.000  C
  C60      1.0000 0.34100  0.01800  0.18930  Biso   1.000  C
  C61      1.0000 0.50200  0.78690  0.25450  Biso   1.000  C
  C62      1.0000 0.99800  0.78800  0.24500  Biso   1.000  C
  C63      1.0000 0.01700  0.68900  0.83880  Biso   1.000  C
  C64      1.0000 0.30800  0.49700  0.65990  Biso   1.000  C
  C65      1.0000 0.51500  0.24500  0.28600  Biso   1.000  C
  C66      1.0000 0.00200  0.21200  0.75500  Biso   1.000  C
  C67      1.0000 0.19080  0.49600  0.84020  Biso   1.000  C
  C68      1.0000 0.74330  0.50300  0.21090  Biso   1.000  C
  C69      1.0000 0.78760  0.74460  0.50010  Biso   1.000  C
  C70      1.0000 0.66000  0.81000  0.00500  Biso   1.000  C
  C71      1.0000 0.99500  0.65900  0.19200  Biso   1.000  C
  C72      1.0000 0.21400  0.48100  0.25500  Biso   1.000  C
  C73      1.0000 0.24300  0.49900  0.71030  Biso   1.000  C
  C74      1.0000 0.25560  0.78800  0.48100  Biso   1.000  C
  C75      1.0000 0.16000  0.19100  0.50200  Biso   1.000  C
  C76      1.0000 0.51700  0.25400  0.21400  Biso   1.000  C
  C77      1.0000 0.98300  0.31100  0.16120  Biso   1.000  C
  C78      1.0000 0.51800  0.31130  0.33900  Biso   1.000  C
  C79      1.0000 0.18800  0.00400  0.65800  Biso   1.000  C
  C80      1.0000 0.71400  0.75400  0.50000  Biso   1.000  C
  C81      1.0000 0.81150  0.34070  0.98500  Biso   1.000  C
  C82      1.0000 0.98200  0.24500  0.21200  Biso   1.000  C
  C83      1.0000 0.25600  0.71400  0.01800  Biso   1.000  C
  C84      1.0000 0.84110  0.69000  0.00200  Biso   1.000  C
  C85      1.0000 0.01800  0.75500  0.78800  Biso   1.000  C
  C86      1.0000 0.74400  0.28600  0.98200  Biso   1.000  C
  C87      1.0000 0.68870  0.16300  0.97900  Biso   1.000  C
  C88      1.0000 0.71300  0.98400  0.74550  Biso   1.000  C
  C89      1.0000 0.00500  0.34100  0.80800  Biso   1.000  C
  C90      1.0000 0.48300  0.74600  0.78600  Biso   1.000  C
  C91      1.0000 0.75500  0.28600  0.51500  Biso   1.000  C
  C92      1.0000 0.24300  0.78500  0.01400  Biso   1.000  C
  C93      1.0000 0.28810  0.25400  0.99900  Biso   1.000  C
  C94      1.0000 0.21180  0.24200  0.00000  Biso   1.000  C
  C95      1.0000 0.66000  0.51600  0.69000  Biso   1.000  C
  C96      1.0000 0.99800  0.71000  0.25600  Biso   1.000  C
  O1       1.0000 0.42110  0.56680  0.40870  Biso   1.000  O
  O2       1.0000 0.00850  0.68880  0.12470  Biso   1.000  O
  O3       1.0000 0.37730  0.69230  0.48000  Biso   1.000  O
  O4       1.0000 0.94940  0.56850  0.93980  Biso   1.000  O
  O5       1.0000 0.45080  0.43360  0.43990  Biso   1.000  O
  O6       1.0000 0.59120  0.98170  0.78950  Biso   1.000  O
  O7       1.0000 0.93460  0.05940  0.45010  Biso   1.000  O
  O8       1.0000 0.48170  0.71140  0.59180  Biso   1.000  O
  O9       1.0000 0.28890  0.90980  0.01810  Biso   1.000  O
  O10      1.0000 0.93100  0.59000  0.92300  Biso   1.000  O
  O11      1.0000 0.12560  0.80830  0.48040  Biso   1.000  O
  O12      1.0000 0.09090  0.01910  0.28950  Biso   1.000  O
  O13      1.0000 0.19020  0.12340  0.49000  Biso   1.000  O
  O14      1.0000 0.06900  0.41000  0.07700  Biso   1.000  O
  O15      1.0000 0.56600  0.59000  0.57960  Biso   1.000  O
  O16      1.0000 0.87440  0.19170  0.51960  Biso   1.000  O
  O17      1.0000 0.06540  0.94060  0.54990  Biso   1.000  O
  O18      1.0000 0.00720  0.09050  0.70880  Biso   1.000  O
  O19      1.0000 0.09050  0.21080  0.50840  Biso   1.000  O
  O20      1.0000 0.99150  0.31120  0.87530  Biso   1.000  O
  O21      1.0000 0.56690  0.05860  0.04880  Biso   1.000  O
  O22      1.0000 0.51830  0.28860  0.40820  Biso   1.000  O
  O23      1.0000 0.59020  0.79120  0.00790  Biso   1.000  O
  O24      1.0000 0.44960  0.06670  0.06070  Biso   1.000  O
  O25      1.0000 0.50970  0.30890  0.62400  Biso   1.000  O
  O26      1.0000 0.92000  0.58100  0.08200  Biso   1.000  O
  O27      1.0000 0.09050  0.92180  0.56560  Biso   1.000  O
  O28      1.0000 0.41080  0.57760  0.56510  Biso   1.000  O
  O29      1.0000 0.49090  0.40970  0.70890  Biso   1.000  O
  O30      1.0000 0.69120  0.52050  0.62230  Biso   1.000  O
  O31      1.0000 0.54920  0.56640  0.56010  Biso   1.000  O
  O32      1.0000 0.90950  0.07820  0.43440  Biso   1.000  O
  O33      1.0000 0.57890  0.43320  0.59130  Biso   1.000  O
  O34      1.0000 0.90980  0.70930  0.00850  Biso   1.000  O
  O35      1.0000 0.07840  0.93420  0.41160  Biso   1.000  O
  O36      1.0000 0.09020  0.29070  0.99150  Biso   1.000  O
  O37      1.0000 0.08990  0.48110  0.21010  Biso   1.000  O
  O38      1.0000 0.29040  0.59100  0.48010  Biso   1.000  O
  O39      1.0000 0.69000  0.87570  0.99170  Biso   1.000  O
  O40      1.0000 0.92160  0.06580  0.58840  Biso   1.000  O
  O41      1.0000 0.94140  0.45390  0.93270  Biso   1.000  O
  O42      1.0000 0.70960  0.40900  0.51990  Biso   1.000  O
  O43      1.0000 0.97950  0.37630  0.19260  Biso   1.000  O
  O44      1.0000 0.56100  0.93800  0.06000  Biso   1.000  O
  O45      1.0000 0.57830  0.06800  0.91000  Biso   1.000  O
  O46      1.0000 0.62310  0.00780  0.18910  Biso   1.000  O
  O47      1.0000 0.49030  0.69110  0.37600  Biso   1.000  O
  O48      1.0000 0.43310  0.94140  0.95120  Biso   1.000  O
  O49      1.0000 0.97940  0.28930  0.09120  Biso   1.000  O
  O50      1.0000 0.91010  0.51890  0.78990  Biso   1.000  O
  O51      1.0000 0.79110  0.50820  0.08840  Biso   1.000  O
  O52      1.0000 0.47980  0.62320  0.69020  Biso   1.000  O
  O53      1.0000 0.42170  0.93200  0.09000  Biso   1.000  O
  O54      1.0000 0.81110  0.62400  0.99170  Biso   1.000  O
  O55      1.0000 0.52020  0.37680  0.30980  Biso   1.000  O
  O56      1.0000 0.98070  0.12290  0.30860  Biso   1.000  O
  O57      1.0000 0.90910  0.98090  0.71050  Biso   1.000  O
  O58      1.0000 0.92000  0.92100  0.41800  Biso   1.000  O
  O59      1.0000 0.62270  0.30770  0.52000  Biso   1.000  O
  O60      1.0000 0.06100  0.43900  0.94000  Biso   1.000  O
  O61      1.0000 0.94040  0.04920  0.56570  Biso   1.000  O
  O62      1.0000 0.90960  0.42180  0.06550  Biso   1.000  O
  O63      1.0000 0.58920  0.42240  0.43490  Biso   1.000  O
  O64      1.0000 0.44060  0.54930  0.43340  Biso   1.000  O
  O65      1.0000 0.20970  0.90820  0.48120  Biso   1.000  O
  O66      1.0000 0.43310  0.09100  0.07800  Biso   1.000  O
  O67      1.0000 0.55940  0.45070  0.56660  Biso   1.000  O
  O68      1.0000 0.93510  0.90800  0.57710  Biso   1.000  O
  O69      1.0000 0.59100  0.07790  0.06580  Biso   1.000  O
  O70      1.0000 0.19150  0.02130  0.37650  Biso   1.000  O
  O71      1.0000 0.30880  0.47950  0.37770  Biso   1.000  O
  O72      1.0000 0.31090  0.37610  0.49360  Biso   1.000  O
  O73      1.0000 0.44300  0.94950  0.06620  Biso   1.000  O
  O74      1.0000 0.70970  0.99270  0.09180  Biso   1.000  O
  O75      1.0000 0.37690  0.50870  0.68970  Biso   1.000  O
  O76      1.0000 0.09040  0.57820  0.93450  Biso   1.000  O
  O77      1.0000 0.94760  0.93300  0.55870  Biso   1.000  O
  O78      1.0000 0.58000  0.92100  0.08100  Biso   1.000  O
  O79      1.0000 0.98340  0.21090  0.40870  Biso   1.000  O
  O80      1.0000 0.40960  0.29060  0.50910  Biso   1.000  O
  O81      1.0000 0.93380  0.43980  0.04980  Biso   1.000  O
  O82      1.0000 0.44000  0.44100  0.55900  Biso   1.000  O
  O83      1.0000 0.59040  0.70940  0.49090  Biso   1.000  O
  O84      1.0000 0.07850  0.56590  0.08910  Biso   1.000  O
  O85      1.0000 0.92150  0.43410  0.91090  Biso   1.000  O
  O86      1.0000 0.49030  0.08970  0.79090  Biso   1.000  O
  O87      1.0000 0.40970  0.48120  0.28880  Biso   1.000  O
  O88      1.0000 0.49230  0.81020  0.12430  Biso   1.000  O
  O89      1.0000 0.56000  0.55900  0.44100  Biso   1.000  O
  O90      1.0000 0.99280  0.90950  0.29120  Biso   1.000  O
  O91      1.0000 0.55040  0.93330  0.93930  Biso   1.000  O
  O92      1.0000 0.20890  0.49180  0.91160  Biso   1.000  O
  O93      1.0000 0.40900  0.92210  0.93420  Biso   1.000  O
  O94      1.0000 0.62410  0.19160  0.97920  Biso   1.000  O
  O95      1.0000 0.99100  0.58870  0.20970  Biso   1.000  O
  O96      1.0000 0.59030  0.51880  0.71120  Biso   1.000  O
  O97      1.0000 0.06000  0.06100  0.55800  Biso   1.000  O
  O98      1.0000 0.29150  0.49270  0.58910  Biso   1.000  O
  O99      1.0000 0.00900  0.41130  0.79030  Biso   1.000  O
  O100     1.0000 0.40880  0.01830  0.21050  Biso   1.000  O
  O101     1.0000 0.55700  0.05050  0.93380  Biso   1.000  O
  O102     1.0000 0.79030  0.09180  0.51880  Biso   1.000  O
  O103     1.0000 0.00690  0.81020  0.37600  Biso   1.000  O
  O104     1.0000 0.30860  0.01920  0.12470  Biso   1.000  O
  O105     1.0000 0.43640  0.55890  0.54720  Biso   1.000  O
  O106     1.0000 0.37590  0.80840  0.02080  Biso   1.000  O
  O107     1.0000 0.48100  0.78980  0.90780  Biso   1.000  O
  O108     1.0000 0.50910  0.59030  0.29110  Biso   1.000  O
  O109     1.0000 0.94000  0.93900  0.44200  Biso   1.000  O
  O110     1.0000 0.31000  0.12430  0.00830  Biso   1.000  O
  O111     1.0000 0.80730  0.51990  0.87580  Biso   1.000  O
  O112     1.0000 0.19270  0.48010  0.12420  Biso   1.000  O
  O113     1.0000 0.02060  0.71070  0.90880  Biso   1.000  O
  O114     1.0000 0.80850  0.97870  0.62350  Biso   1.000  O
  O115     1.0000 0.58300  0.57900  0.42000  Biso   1.000  O
  O116     1.0000 0.51900  0.21020  0.09220  Biso   1.000  O
  O117     1.0000 0.90950  0.78920  0.49160  Biso   1.000  O
  O118     1.0000 0.06620  0.56020  0.95020  Biso   1.000  O
  O119     1.0000 0.62310  0.49130  0.31030  Biso   1.000  O
  O120     1.0000 0.40980  0.20880  0.99210  Biso   1.000  O
  O121     1.0000 0.80980  0.87660  0.51000  Biso   1.000  O
  O122     1.0000 0.52100  0.12170  0.19300  Biso   1.000  O
  O123     1.0000 0.50970  0.91030  0.20910  Biso   1.000  O
  O124     1.0000 0.71110  0.09020  0.98190  Biso   1.000  O
  O125     1.0000 0.87710  0.00860  0.31030  Biso   1.000  O
  O126     1.0000 0.87800  0.49280  0.19000  Biso   1.000  O
  O127     1.0000 0.56690  0.90900  0.92200  Biso   1.000  O
  O128     1.0000 0.08000  0.41900  0.91800  Biso   1.000  O
  O129     1.0000 0.01930  0.87710  0.69140  Biso   1.000  O
  O130     1.0000 0.50770  0.18980  0.87570  Biso   1.000  O
  O131     1.0000 0.56360  0.44110  0.45280  Biso   1.000  O
  O132     1.0000 0.01660  0.78910  0.59130  Biso   1.000  O
  O133     1.0000 0.05240  0.06700  0.44130  Biso   1.000  O
  O134     1.0000 0.02050  0.62370  0.80740  Biso   1.000  O
  O135     1.0000 0.21110  0.58940  0.01870  Biso   1.000  O
  O136     1.0000 0.43900  0.06200  0.94000  Biso   1.000  O
  O137     1.0000 0.08000  0.07900  0.58200  Biso   1.000  O
  O138     1.0000 0.99310  0.18980  0.62400  Biso   1.000  O
  O139     1.0000 0.12290  0.99140  0.68970  Biso   1.000  O
  O140     1.0000 0.43400  0.41000  0.42040  Biso   1.000  O
  O141     1.0000 0.87710  0.31000  0.98130  Biso   1.000  O
  O142     1.0000 0.12290  0.69000  0.01870  Biso   1.000  O
  O143     1.0000 0.05960  0.95080  0.43430  Biso   1.000  O
  O144     1.0000 0.79160  0.99060  0.40900  Biso   1.000  O
  O145     1.0000 0.29030  0.00730  0.90820  Biso   1.000  O
  O146     1.0000 0.18890  0.37600  0.00830  Biso   1.000  O
  O147     1.0000 0.05060  0.43150  0.06020  Biso   1.000  O
  O148     1.0000 0.37690  0.99220  0.81090  Biso   1.000  O
  O149     1.0000 0.70850  0.50730  0.41090  Biso   1.000  O
  O150     1.0000 0.69140  0.98080  0.87530  Biso   1.000  O
  O151     1.0000 0.93900  0.56100  0.06000  Biso   1.000  O
  O152     1.0000 0.20840  0.00940  0.59100  Biso   1.000  O
  O153     1.0000 0.05860  0.54610  0.06730  Biso   1.000  O
  O154     1.0000 0.78890  0.41060  0.98130  Biso   1.000  O
  O155     1.0000 0.12200  0.50720  0.81000  Biso   1.000  O
  O156     1.0000 0.41700  0.42100  0.58000  Biso   1.000  O
  O157     1.0000 0.06490  0.09200  0.42290  Biso   1.000  O
  O158     1.0000 0.47900  0.87830  0.80700  Biso   1.000  O
  O159     1.0000 0.42000  0.07900  0.91900  Biso   1.000  O
  O160     1.0000 0.68910  0.62390  0.50640  Biso   1.000  O
