data_image0
_cell_length_a       10.887
_cell_length_b       10.923
_cell_length_c       14.068
_cell_angle_alpha    89.214
_cell_angle_beta     87.59
_cell_angle_gamma    79.816

_symmetry_space_group_name_H-M    "P 1"
_symmetry_int_tables_number       1

loop_
  _symmetry_equiv_pos_as_xyz
  'x, y, z'

loop_
  _atom_site_label
  _atom_site_occupancy
  _atom_site_fract_x
  _atom_site_fract_y
  _atom_site_fract_z
  _atom_site_thermal_displace_type
  _atom_site_B_iso_or_equiv
  _atom_site_type_symbol
  Zn1      1.0000 0.21780  0.33787  0.29980  Biso   1.000  Zn
  Zn2      1.0000 0.22961  0.33953  0.09010  Biso   1.000  Zn
  O1       1.0000 0.40100  0.32640  0.26600  Biso   1.000  O
  O2       1.0000 0.41370  0.32720  0.10880  Biso   1.000  O
  O3       1.0000 0.03520  0.34740  0.27400  Biso   1.000  O
  O4       1.0000 0.04340  0.35380  0.11690  Biso   1.000  O
  O5       1.0000 0.19900  0.52290  0.27400  Biso   1.000  O
  O6       1.0000 0.21340  0.52590  0.11770  Biso   1.000  O
  O7       1.0000 0.23670  0.15290  0.28100  Biso   1.000  O
  O8       1.0000 0.24440  0.15470  0.12360  Biso   1.000  O
  N1       1.0000 0.22130  0.34020  0.44340  Biso   1.000  N
  N2       1.0000 0.23140  0.33320  0.94550  Biso   1.000  N
  C1       1.0000 0.45960  0.32840  0.18830  Biso   1.000  C
  C2       1.0000 0.59740  0.33270  0.19030  Biso   1.000  C
  C3       1.0000 0.66250  0.36040  0.10820  Biso   1.000  C
  C4       1.0000 0.65950  0.31310  0.27530  Biso   1.000  C
  C5       1.0000 0.78540  0.31960  0.27730  Biso   1.000  C
  C6       1.0000 0.78850  0.36570  0.11050  Biso   1.000  C
  C7       1.0000 0.85040  0.34430  0.19420  Biso   1.000  C
  C8       1.0000 0.98740  0.34900  0.19590  Biso   1.000  C
  C9       1.0000 0.21150  0.57600  0.19740  Biso   1.000  C
  C10      1.0000 0.22210  0.71190  0.19900  Biso   1.000  C
  C11      1.0000 0.27680  0.76010  0.28110  Biso   1.000  C
  C12      1.0000 0.22900  0.76820  0.27410  Biso   1.000  C
  C13      1.0000 0.24500  0.77330  0.11790  Biso   1.000  C
  C14      1.0000 0.17730  0.79050  0.12570  Biso   1.000  C
  C15      1.0000 0.24800  0.90500  0.11950  Biso   1.000  C
  C16      1.0000 0.18480  0.91400  0.12820  Biso   1.000  C
  C17      1.0000 0.28600  0.88300  0.27680  Biso   1.000  C
  C18      1.0000 0.23100  0.90010  0.28050  Biso   1.000  C
  C19      1.0000 0.23790  0.96410  0.20200  Biso   1.000  C
  C20      1.0000 0.32800  0.67500  0.35730  Biso   1.000  C
  C21      1.0000 0.33800  0.92800  0.36500  Biso   1.000  C
  C22      1.0000 0.30710  0.25880  0.48870  Biso   1.000  C
  C23      1.0000 0.14640  0.42220  0.59450  Biso   1.000  C
  C24      1.0000 0.12620  0.31200  0.59830  Biso   1.000  C
  C25      1.0000 0.15000  0.42430  0.49570  Biso   1.000  C
  C26      1.0000 0.31510  0.25420  0.58540  Biso   1.000  C
  C27      1.0000 0.12790  0.31200  0.49820  Biso   1.000  C
  C28      1.0000 0.31900  0.35400  0.58910  Biso   1.000  C
  C29      1.0000 0.31110  0.35800  0.48730  Biso   1.000  C
  C30      1.0000 0.22780  0.33700  0.64170  Biso   1.000  C
  C31      1.0000 0.23050  0.33410  0.74670  Biso   1.000  C
  C32      1.0000 0.12020  0.34780  0.80180  Biso   1.000  C
  C33      1.0000 0.34300  0.31810  0.79340  Biso   1.000  C
  C34      1.0000 0.12480  0.34750  0.89940  Biso   1.000  C
  C35      1.0000 0.33820  0.31900  0.89200  Biso   1.000  C
  C36      1.0000 0.24020  0.10120  0.20220  Biso   1.000  C
  H1       1.0000 0.61540  0.29530  0.33200  Biso   1.000  H
  H2       1.0000 0.62050  0.37590  0.05020  Biso   1.000  H
  H3       1.0000 0.83260  0.38430  0.05400  Biso   1.000  H
  H4       1.0000 0.82720  0.30710  0.33560  Biso   1.000  H
  H5       1.0000 0.04210  0.35740  0.77240  Biso   1.000  H
  H6       1.0000 0.42070  0.30700  0.75850  Biso   1.000  H
  H7       1.0000 0.04830  0.35790  0.93590  Biso   1.000  H
  H8       1.0000 0.41470  0.30890  0.92360  Biso   1.000  H
  Zn3      1.0000 0.78220  0.66213  0.70020  Biso   1.000  Zn
  Zn4      1.0000 0.77039  0.66047  0.90990  Biso   1.000  Zn
  O9       1.0000 0.59900  0.67360  0.73400  Biso   1.000  O
  O10      1.0000 0.58630  0.67280  0.89120  Biso   1.000  O
  O11      1.0000 0.96480  0.65260  0.72600  Biso   1.000  O
  O12      1.0000 0.95660  0.64620  0.88310  Biso   1.000  O
  O13      1.0000 0.80100  0.47710  0.72600  Biso   1.000  O
  O14      1.0000 0.78660  0.47410  0.88230  Biso   1.000  O
  O15      1.0000 0.76330  0.84710  0.71900  Biso   1.000  O
  O16      1.0000 0.75560  0.84530  0.87640  Biso   1.000  O
  N3       1.0000 0.77870  0.65980  0.55660  Biso   1.000  N
  N4       1.0000 0.76860  0.66680  0.05450  Biso   1.000  N
  C37      1.0000 0.54040  0.67160  0.81170  Biso   1.000  C
  C38      1.0000 0.40260  0.66730  0.80970  Biso   1.000  C
  C39      1.0000 0.33750  0.63960  0.89180  Biso   1.000  C
  C40      1.0000 0.34050  0.68690  0.72470  Biso   1.000  C
  C41      1.0000 0.21460  0.68040  0.72270  Biso   1.000  C
  C42      1.0000 0.21150  0.63430  0.88950  Biso   1.000  C
  C43      1.0000 0.14960  0.65570  0.80580  Biso   1.000  C
  C44      1.0000 0.01260  0.65100  0.80410  Biso   1.000  C
  C45      1.0000 0.78850  0.42400  0.80260  Biso   1.000  C
  C46      1.0000 0.77790  0.28810  0.80100  Biso   1.000  C
  C47      1.0000 0.72320  0.23990  0.71890  Biso   1.000  C
  C48      1.0000 0.77100  0.23180  0.72590  Biso   1.000  C
  C49      1.0000 0.75500  0.22670  0.88210  Biso   1.000  C
  C50      1.0000 0.82270  0.20950  0.87430  Biso   1.000  C
  C51      1.0000 0.75200  0.09500  0.88050  Biso   1.000  C
  C52      1.0000 0.81520  0.08600  0.87180  Biso   1.000  C
  C53      1.0000 0.71400  0.11700  0.72320  Biso   1.000  C
  C54      1.0000 0.76900  0.09990  0.71950  Biso   1.000  C
  C55      1.0000 0.76210  0.03590  0.79800  Biso   1.000  C
  C56      1.0000 0.67200  0.32500  0.64270  Biso   1.000  C
  C57      1.0000 0.66200  0.07200  0.63500  Biso   1.000  C
  C58      1.0000 0.69290  0.74120  0.51130  Biso   1.000  C
  C59      1.0000 0.85360  0.57780  0.40550  Biso   1.000  C
  C60      1.0000 0.87380  0.68800  0.40170  Biso   1.000  C
  C61      1.0000 0.85000  0.57570  0.50430  Biso   1.000  C
  C62      1.0000 0.68490  0.74580  0.41460  Biso   1.000  C
  C63      1.0000 0.87210  0.68800  0.50180  Biso   1.000  C
  C64      1.0000 0.68100  0.64600  0.41090  Biso   1.000  C
  C65      1.0000 0.68890  0.64200  0.51270  Biso   1.000  C
  C66      1.0000 0.77220  0.66300  0.35830  Biso   1.000  C
  C67      1.0000 0.76950  0.66590  0.25330  Biso   1.000  C
  C68      1.0000 0.87980  0.65220  0.19820  Biso   1.000  C
  C69      1.0000 0.65700  0.68190  0.20660  Biso   1.000  C
  C70      1.0000 0.87520  0.65250  0.10060  Biso   1.000  C
  C71      1.0000 0.66180  0.68100  0.10800  Biso   1.000  C
  C72      1.0000 0.75980  0.89880  0.79780  Biso   1.000  C
  H9       1.0000 0.38460  0.70470  0.66800  Biso   1.000  H
  H10      1.0000 0.37950  0.62410  0.94980  Biso   1.000  H
  H11      1.0000 0.16740  0.61570  0.94600  Biso   1.000  H
  H12      1.0000 0.17280  0.69290  0.66440  Biso   1.000  H
  H13      1.0000 0.95790  0.64260  0.22760  Biso   1.000  H
  H14      1.0000 0.57930  0.69300  0.24150  Biso   1.000  H
  H15      1.0000 0.95170  0.64210  0.06410  Biso   1.000  H
  H16      1.0000 0.58530  0.69110  0.07640  Biso   1.000  H
