data_ja5109535_si_002_clean
_audit_creation_date              2015-08-19
_audit_creation_method            'Materials Studio'
_symmetry_space_group_name_H-M    'P1'
_symmetry_Int_Tables_number       1
_symmetry_cell_setting            triclinic
loop_
_symmetry_equiv_pos_as_xyz
  x,y,z
_cell_length_a                    26.5430
_cell_length_b                    26.5434
_cell_length_c                    26.5434
_cell_angle_alpha                 60.0260
_cell_angle_beta                  89.9550
_cell_angle_gamma                 119.9740
loop_
_atom_site_label
_atom_site_type_symbol
_atom_site_fract_x
_atom_site_fract_y
_atom_site_fract_z
_atom_site_U_iso_or_equiv
_atom_site_adp_type
_atom_site_occupancy
Co1    Co    0.00000   0.50000  -0.00000   0.01267  Uiso   1.00
Co2    Co    0.50000   0.00000   0.00000   0.01267  Uiso   1.00
Co3    Co    0.00000   0.00000   0.50000   0.01267  Uiso   1.00
Co4    Co    0.00000   0.50000   0.50000   0.01267  Uiso   1.00
Co5    Co    0.50000   0.50000   0.50000   0.01267  Uiso   1.00
Co6    Co    0.50000   0.50000  -0.00000   0.01267  Uiso   1.00
H1     H     0.28440   0.44390   0.54350   0.01267  Uiso   1.00
H2     H     0.96280   0.66500   0.51900   0.01267  Uiso   1.00
H3     H     0.61660   0.65340   0.90500   0.01267  Uiso   1.00
H4     H     0.96560   0.47900   0.70040   0.01267  Uiso   1.00
H5     H     0.01200   0.52830   0.87290   0.01267  Uiso   1.00
H6     H     0.54960   0.51360   0.38560   0.01267  Uiso   1.00
H7     H     0.01430   0.89050   0.60320   0.01267  Uiso   1.00
H8     H     0.29960   0.33400   0.17940   0.01267  Uiso   1.00
H9     H     0.02800   0.20430   0.50150   0.01267  Uiso   1.00
H10    H     0.10080   0.48640   0.96400   0.01267  Uiso   1.00
H11    H     0.38340   0.34660   0.09500   0.01267  Uiso   1.00
H12    H     0.38280   0.34570   0.55530   0.01267  Uiso   1.00
H13    H     0.12650   0.52470   0.48740   0.01267  Uiso   1.00
H14    H     0.12480   0.62320   0.39680   0.01267  Uiso   1.00
H15    H     0.47220   0.45410   0.83530   0.01267  Uiso   1.00
H16    H     0.17910   0.21310   0.48800   0.01267  Uiso   1.00
H17    H     0.51200   0.33290   0.70110   0.01267  Uiso   1.00
H18    H     0.03640   0.21400   0.29980   0.01267  Uiso   1.00
H19    H     0.28050   0.83470   0.15320   0.01267  Uiso   1.00
H20    H     0.89980   0.93640   0.44980   0.01267  Uiso   1.00
H21    H     0.17630   0.47050   0.02800   0.01267  Uiso   1.00
H22    H     0.87290   0.88490   0.59880   0.01267  Uiso   1.00
H23    H     0.51900   0.48180   0.81600   0.01267  Uiso   1.00
H24    H     0.29420   0.79570   0.17630   0.01267  Uiso   1.00
H25    H     0.87040   0.46960   0.00780   0.01267  Uiso   1.00
H26    H     0.45040   0.48640   0.61440   0.01267  Uiso   1.00
H27    H     0.16470   0.69250   0.28940   0.01267  Uiso   1.00
H28    H     0.59880   0.47170   0.51630   0.01267  Uiso   1.00
H29    H     0.54350   0.82790   0.01260   0.01267  Uiso   1.00
H30    H     0.90810   0.34660   0.61870   0.01267  Uiso   1.00
H31    H     0.15970   0.44260   0.54470   0.01267  Uiso   1.00
H32    H     0.01270   0.55740   0.28290   0.01267  Uiso   1.00
H33    H     0.96290   0.06190   0.38280   0.01267  Uiso   1.00
H34    H     0.03700   0.48430   0.90130   0.01267  Uiso   1.00
H35    H     0.28940   0.45410   0.01810   0.01267  Uiso   1.00
H36    H     0.15950   0.17210   0.28440   0.01267  Uiso   1.00
H37    H     0.49840   0.47840   0.12480   0.01267  Uiso   1.00
H38    H     0.59920   0.12180   0.87040   0.01267  Uiso   1.00
H39    H     0.89920   0.51360   0.03600   0.01267  Uiso   1.00
H40    H     0.71560   0.55610   0.45650   0.01267  Uiso   1.00
H41    H     0.54750   0.83190   0.15920   0.01267  Uiso   1.00
H42    H     0.71560   0.70670   0.45250   0.01267  Uiso   1.00
H43    H     0.12710   0.11510   0.40120   0.01267  Uiso   1.00
H44    H     0.87350   0.47530   0.51260   0.01267  Uiso   1.00
H45    H     0.55020   0.65040   0.38620   0.01267  Uiso   1.00
H46    H     0.59970   0.11910   0.00880   0.01267  Uiso   1.00
H47    H     0.44580   0.43370   0.71950   0.01267  Uiso   1.00
H48    H     0.70110   0.21310   0.96600   0.01267  Uiso   1.00
H49    H     0.39680   0.52160   0.98000   0.01267  Uiso   1.00
H50    H     0.70040   0.66600   0.82060   0.01267  Uiso   1.00
H51    H     0.00890   0.16810   0.28440   0.01267  Uiso   1.00
H52    H     0.03620   0.52200   0.17900   0.01267  Uiso   1.00
H53    H     0.38560   0.93520   0.10080   0.01267  Uiso   1.00
H54    H     0.52260   0.53040   0.59920   0.01267  Uiso   1.00
H55    H     0.96400   0.06480   0.54960   0.01267  Uiso   1.00
H56    H     0.82090   0.78690   0.51200   0.01267  Uiso   1.00
H57    H     0.45650   0.17210   0.98740   0.01267  Uiso   1.00
H58    H     0.98940   0.71000   0.84020   0.01267  Uiso   1.00
H59    H     0.60180   0.61390   0.87350   0.01267  Uiso   1.00
H60    H     0.87210   0.88090   0.51940   0.01267  Uiso   1.00
H61    H     0.29780   0.48180   0.03720   0.01267  Uiso   1.00
H62    H     0.15980   0.17040   0.55020   0.01267  Uiso   1.00
H63    H     0.50630   0.10950   0.87620   0.01267  Uiso   1.00
H64    H     0.98190   0.69250   0.47220   0.01267  Uiso   1.00
H65    H     0.51260   0.38610   0.01210   0.01267  Uiso   1.00
H66    H     0.48660   0.66600   0.03440   0.01267  Uiso   1.00
H67    H     0.52780   0.54590   0.16470   0.01267  Uiso   1.00
H68    H     0.48740   0.61390   0.98790   0.01267  Uiso   1.00
H69    H     0.70220   0.51820   0.96280   0.01267  Uiso   1.00
H70    H     0.48800   0.66710   0.29890   0.01267  Uiso   1.00
H71    H     0.55270   0.93830   0.96300   0.01267  Uiso   1.00
H72    H     0.82100   0.78480   0.70100   0.01267  Uiso   1.00
H73    H     0.03660   0.65040   0.89980   0.01267  Uiso   1.00
H74    H     0.70580   0.20430   0.82370   0.01267  Uiso   1.00
H75    H     0.17760   0.66380   0.03640   0.01267  Uiso   1.00
H76    H     0.99120   0.39150   0.12790   0.01267  Uiso   1.00
H77    H     0.01210   0.16530   0.55420   0.01267  Uiso   1.00
H78    H     0.51940   0.39150   0.59970   0.01267  Uiso   1.00
H79    H     0.43850   0.47320   0.90810   0.01267  Uiso   1.00
H80    H     0.98790   0.47530   0.39820   0.01267  Uiso   1.00
H81    H     0.02000   0.62320   0.50160   0.01267  Uiso   1.00
H82    H     0.17940   0.47900   0.48660   0.01267  Uiso   1.00
H83    H     0.39820   0.38610   0.12650   0.01267  Uiso   1.00
H84    H     0.03600   0.93520   0.45040   0.01267  Uiso   1.00
H85    H     0.96600   0.66710   0.82090   0.01267  Uiso   1.00
H86    H     0.84680   0.56630   0.98790   0.01267  Uiso   1.00
H87    H     0.12790   0.11910   0.48060   0.01267  Uiso   1.00
H88    H     0.03720   0.33500   0.48100   0.01267  Uiso   1.00
H89    H     0.38620   0.93640   0.96340   0.01267  Uiso   1.00
H90    H     0.84080   0.29330   0.99110   0.01267  Uiso   1.00
H91    H     0.28290   0.29560   0.15970   0.01267  Uiso   1.00
H92    H     0.01210   0.52470   0.60180   0.01267  Uiso   1.00
H93    H     0.18400   0.66500   0.29780   0.01267  Uiso   1.00
H94    H     0.55420   0.56630   0.28050   0.01267  Uiso   1.00
H95    H     0.84030   0.55740   0.45530   0.01267  Uiso   1.00
H96    H     0.12380   0.61750   0.98570   0.01267  Uiso   1.00
H97    H     0.61440   0.51570   0.44730   0.01267  Uiso   1.00
H98    H     0.44160   0.34660   0.03680   0.01267  Uiso   1.00
H99    H     0.82370   0.52950   0.97200   0.01267  Uiso   1.00
H100   H     0.50150   0.52950   0.29420   0.01267  Uiso   1.00
H101   H     0.40030   0.88090   0.99120   0.01267  Uiso   1.00
H102   H     0.29980   0.33620   0.48620   0.01267  Uiso   1.00
H103   H     0.49370   0.89050   0.12380   0.01267  Uiso   1.00
H104   H     0.61720   0.65430   0.44470   0.01267  Uiso   1.00
H105   H     0.55020   0.71000   0.27940   0.01267  Uiso   1.00
H106   H     0.15320   0.43370   0.01210   0.01267  Uiso   1.00
H107   H     0.98000   0.37680   0.49840   0.01267  Uiso   1.00
H108   H     0.61380   0.06360   0.03660   0.01267  Uiso   1.00
H109   H     0.51340   0.33400   0.96560   0.01267  Uiso   1.00
H110   H     0.49850   0.47050   0.70580   0.01267  Uiso   1.00
H111   H     0.09500   0.47840   0.55840   0.01267  Uiso   1.00
H112   H     0.61440   0.06480   0.89920   0.01267  Uiso   1.00
H113   H     0.60320   0.47840   0.02000   0.01267  Uiso   1.00
H114   H     0.48370   0.88490   0.98800   0.01267  Uiso   1.00
H115   H     0.72060   0.17040   0.98940   0.01267  Uiso   1.00
H116   H     0.51630   0.11510   0.01200   0.01267  Uiso   1.00
H117   H     0.99110   0.83190   0.71560   0.01267  Uiso   1.00
H118   H     0.83530   0.30750   0.71060   0.01267  Uiso   1.00
H119   H     0.44470   0.06190   0.90100   0.01267  Uiso   1.00
H120   H     0.81600   0.33500   0.70220   0.01267  Uiso   1.00
H121   H     0.29900   0.47800   0.48580   0.01267  Uiso   1.00
H122   H     0.03470   0.65340   0.43850   0.01267  Uiso   1.00
H123   H     0.96320   0.52160   0.38340   0.01267  Uiso   1.00
H124   H     0.15920   0.70670   0.00890   0.01267  Uiso   1.00
H125   H     0.71060   0.54590   0.98190   0.01267  Uiso   1.00
H126   H     0.10020   0.06360   0.55020   0.01267  Uiso   1.00
H127   H     0.03680   0.47840   0.61660   0.01267  Uiso   1.00
H128   H     0.48580   0.78480   0.03620   0.01267  Uiso   1.00
H129   H     0.44980   0.34960   0.61380   0.01267  Uiso   1.00
H130   H     0.96340   0.34960   0.10020   0.01267  Uiso   1.00
H131   H     0.09870   0.06170   0.38560   0.01267  Uiso   1.00
H132   H     0.82240   0.33620   0.96360   0.01267  Uiso   1.00
H133   H     0.50160   0.52160   0.87520   0.01267  Uiso   1.00
H134   H     0.12960   0.53040   0.99220   0.01267  Uiso   1.00
H135   H     0.70100   0.52200   0.51420   0.01267  Uiso   1.00
H136   H     0.00780   0.87820   0.52260   0.01267  Uiso   1.00
H137   H     0.03710   0.93810   0.61720   0.01267  Uiso   1.00
H138   H     0.01060   0.29000   0.15980   0.01267  Uiso   1.00
H139   H     0.40120   0.52830   0.48370   0.01267  Uiso   1.00
H140   H     0.90100   0.34570   0.03710   0.01267  Uiso   1.00
H141   H     0.03400   0.33290   0.17910   0.01267  Uiso   1.00
H142   H     0.61870   0.52680   0.03470   0.01267  Uiso   1.00
H143   H     0.38130   0.47320   0.96530   0.01267  Uiso   1.00
H144   H     0.90130   0.93830   0.61440   0.01267  Uiso   1.00
H145   H     0.84050   0.82790   0.71560   0.01267  Uiso   1.00
H146   H     0.39680   0.38250   0.49370   0.01267  Uiso   1.00
H147   H     0.48100   0.51820   0.18400   0.01267  Uiso   1.00
H148   H     0.84020   0.82960   0.44980   0.01267  Uiso   1.00
H149   H     0.01810   0.30750   0.52780   0.01267  Uiso   1.00
H150   H     0.38560   0.48430   0.55270   0.01267  Uiso   1.00
H151   H     0.29890   0.78690   0.03400   0.01267  Uiso   1.00
H152   H     0.87620   0.38250   0.01430   0.01267  Uiso   1.00
H153   H     0.70020   0.66380   0.51380   0.01267  Uiso   1.00
H154   H     0.55840   0.65340   0.96320   0.01267  Uiso   1.00
H155   H     0.96360   0.78600   0.70020   0.01267  Uiso   1.00
H156   H     0.00880   0.60850   0.87210   0.01267  Uiso   1.00
H157   H     0.01260   0.55610   0.15950   0.01267  Uiso   1.00
H158   H     0.54470   0.70440   0.01270   0.01267  Uiso   1.00
H159   H     0.96300   0.51570   0.09870   0.01267  Uiso   1.00
H160   H     0.82060   0.52100   0.51340   0.01267  Uiso   1.00
H161   H     0.98800   0.47170   0.12710   0.01267  Uiso   1.00
H162   H     0.96380   0.47800   0.82100   0.01267  Uiso   1.00
H163   H     0.55530   0.93810   0.09900   0.01267  Uiso   1.00
H164   H     0.71710   0.70440   0.84030   0.01267  Uiso   1.00
H165   H     0.40080   0.87820   0.12960   0.01267  Uiso   1.00
H166   H     0.45530   0.29560   0.98730   0.01267  Uiso   1.00
H167   H     0.17900   0.21520   0.29900   0.01267  Uiso   1.00
H168   H     0.98730   0.44260   0.71710   0.01267  Uiso   1.00
H169   H     0.87520   0.37680   0.60320   0.01267  Uiso   1.00
H170   H     0.48060   0.60850   0.40030   0.01267  Uiso   1.00
H171   H     0.28440   0.29330   0.54750   0.01267  Uiso   1.00
H172   H     0.09190   0.65340   0.38130   0.01267  Uiso   1.00
H173   H     0.44980   0.29000   0.72060   0.01267  Uiso   1.00
H174   H     0.45250   0.16810   0.84080   0.01267  Uiso   1.00
H175   H     0.97200   0.79570   0.49850   0.01267  Uiso   1.00
H176   H     0.90500   0.52160   0.44160   0.01267  Uiso   1.00
H177   H     0.44730   0.06170   0.03700   0.01267  Uiso   1.00
H178   H     0.51420   0.21520   0.96380   0.01267  Uiso   1.00
H179   H     0.03440   0.52100   0.29960   0.01267  Uiso   1.00
H180   H     0.51380   0.21400   0.82240   0.01267  Uiso   1.00
H181   H     0.98570   0.10950   0.39680   0.01267  Uiso   1.00
H182   H     0.48620   0.78600   0.17760   0.01267  Uiso   1.00
H183   H     0.47740   0.46960   0.40080   0.01267  Uiso   1.00
H184   H     0.99220   0.12180   0.47740   0.01267  Uiso   1.00
H185   H     0.56150   0.52680   0.09190   0.01267  Uiso   1.00
H186   H     0.60320   0.61750   0.50630   0.01267  Uiso   1.00
H187   H     0.96530   0.34660   0.56150   0.01267  Uiso   1.00
H188   H     0.09900   0.65430   0.96290   0.01267  Uiso   1.00
H189   H     0.98740   0.44390   0.84050   0.01267  Uiso   1.00
H190   H     0.71950   0.16530   0.84680   0.01267  Uiso   1.00
H191   H     0.27940   0.82960   0.01060   0.01267  Uiso   1.00
H192   H     0.98790   0.83470   0.44580   0.01267  Uiso   1.00
C1     C     0.12350   0.62300   0.50050   0.01267  Uiso   1.00
C2     C     0.50350   0.39980   0.62470   0.01267  Uiso   1.00
C3     C     0.52300   0.65380   0.13140   0.01267  Uiso   1.00
C4     C     0.87720   0.37730   0.12370   0.01267  Uiso   1.00
C5     C     0.63350   0.62700   0.46210   0.01267  Uiso   1.00
C6     C     0.52810   0.56860   0.12330   0.01267  Uiso   1.00
C7     C     0.30360   0.84120   0.03440   0.01267  Uiso   1.00
C8     C     0.08500   0.62340   0.36860   0.01267  Uiso   1.00
C9     C     0.72000   0.61970   0.90050   0.01267  Uiso   1.00
C10    C     0.86000   0.36300   0.68700   0.01267  Uiso   1.00
C11    C     0.91200   0.90530   0.63070   0.01267  Uiso   1.00
C12    C     0.88020   0.57510   0.96350   0.01267  Uiso   1.00
C13    C     0.28010   0.38060   0.51870   0.01267  Uiso   1.00
C14    C     0.50210   0.87610   0.10040   0.01267  Uiso   1.00
C15    C     0.04050   0.34860   0.52810   0.01267  Uiso   1.00
C16    C     0.87720   0.34040   0.96680   0.01267  Uiso   1.00
C17    C     0.50010   0.99910   0.87720   0.01267  Uiso   1.00
C18    C     0.12280   0.62270   0.87630   0.01267  Uiso   1.00
C19    C     0.46410   0.34190   0.96360   0.01267  Uiso   1.00
C20    C     0.49940   0.60220   0.02360   0.01267  Uiso   1.00
C21    C     0.00780   0.09580   0.53580   0.01267  Uiso   1.00
C22    C     0.13170   0.26320   0.52250   0.01267  Uiso   1.00
C23    C     0.50270   0.12620   0.97730   0.01267  Uiso   1.00
C24    C     0.95950   0.65140   0.47190   0.01267  Uiso   1.00
C25    C     0.30550   0.34190   0.12220   0.01267  Uiso   1.00
C26    C     0.46580   0.15880   0.96340   0.01267  Uiso   1.00
C27    C     0.53590   0.65810   0.03640   0.01267  Uiso   1.00
C28    C     0.99300   0.62440   0.91120   0.01267  Uiso   1.00
C29    C     0.49990   0.00090   0.12280   0.01267  Uiso   1.00
C30    C     0.08650   0.45460   0.53890   0.01267  Uiso   1.00
C31    C     0.48130   0.38190   0.71920   0.01267  Uiso   1.00
C32    C     0.10310   0.60600   0.37430   0.01267  Uiso   1.00
C33    C     0.62440   0.12800   0.89520   0.01267  Uiso   1.00
C34    C     0.50150   0.18610   0.94900   0.01267  Uiso   1.00
C35    C     0.63140   0.09580   0.99300   0.01267  Uiso   1.00
C36    C     0.97650   0.87610   0.62600   0.01267  Uiso   1.00
C37    C     0.36840   0.90420   0.08800   0.01267  Uiso   1.00
C38    C     0.12280   0.65960   0.03320   0.01267  Uiso   1.00
C39    C     0.89650   0.87380   0.62350   0.01267  Uiso   1.00
C40    C     0.86850   0.65420   0.86830   0.01267  Uiso   1.00
C41    C     0.36930   0.45730   0.53600   0.01267  Uiso   1.00
C42    C     0.91120   0.90420   0.46440   0.01267  Uiso   1.00
C43    C     0.63190   0.62540   0.91350   0.01267  Uiso   1.00
C44    C     0.00700   0.37560   0.08880   0.01267  Uiso   1.00
C45    C     0.52250   0.65420   0.21430   0.01267  Uiso   1.00
C46    C     0.51870   0.61810   0.28080   0.01267  Uiso   1.00
C47    C     0.69450   0.65810   0.87780   0.01267  Uiso   1.00
C48    C     0.37400   0.39750   0.50210   0.01267  Uiso   1.00
C49    C     0.49700   0.54700   0.14000   0.01267  Uiso   1.00
C50    C     0.62580   0.60220   0.89720   0.01267  Uiso   1.00
C51    C     0.86610   0.55280   0.95230   0.01267  Uiso   1.00
C52    C     0.47750   0.34580   0.78570   0.01267  Uiso   1.00
C53    C     0.31540   0.45050   0.49850   0.01267  Uiso   1.00
C54    C     0.53580   0.54360   0.36840   0.01267  Uiso   1.00
C55    C     0.62470   0.12820   0.97550   0.01267  Uiso   1.00
C56    C     0.05130   0.18500   0.31490   0.01267  Uiso   1.00
C57    C     0.04940   0.54890   0.31550   0.01267  Uiso   1.00
C58    C     0.78520   0.65380   0.86920   0.01267  Uiso   1.00
C59    C     0.68450   0.63510   0.86440   0.01267  Uiso   1.00
C60    C     0.37650   0.48000   0.49730   0.01267  Uiso   1.00
C61    C     0.11980   0.42490   0.03650   0.01267  Uiso   1.00
C62    C     0.28080   0.79950   0.10110   0.01267  Uiso   1.00
C63    C     0.89890   0.61810   0.90060   0.01267  Uiso   1.00
C64    C     0.49950   0.63510   0.04940   0.01267  Uiso   1.00
C65    C     0.13220   0.26360   0.21440   0.01267  Uiso   1.00
C66    C     0.53680   0.84400   0.12280   0.01267  Uiso   1.00
C67    C     0.89950   0.79880   0.71990   0.01267  Uiso   1.00
C68    C     0.49650   0.60020   0.37530   0.01267  Uiso   1.00
C69    C     0.50290   0.52260   0.10310   0.01267  Uiso   1.00
C70    C     0.30510   0.84370   0.11980   0.01267  Uiso   1.00
C71    C     0.12220   0.42770   0.53590   0.01267  Uiso   1.00
C72    C     0.47190   0.43140   0.87670   0.01267  Uiso   1.00
C73    C     0.03440   0.33800   0.12440   0.01267  Uiso   1.00
C74    C     0.21440   0.34660   0.52200   0.01267  Uiso   1.00
C75    C     0.68510   0.63380   0.49990   0.01267  Uiso   1.00
C76    C     0.05100   0.54950   0.13510   0.01267  Uiso   1.00
C77    C     0.53840   0.54640   0.08500   0.01267  Uiso   1.00
C78    C     0.03650   0.15630   0.53860   0.01267  Uiso   1.00
C79    C     0.99330   0.45730   0.91200   0.01267  Uiso   1.00
C80    C     0.87560   0.84120   0.46240   0.01267  Uiso   1.00
C81    C     0.53860   0.57510   0.30510   0.01267  Uiso   1.00
C82    C     0.02270   0.52000   0.10350   0.01267  Uiso   1.00
C83    C     0.02320   0.12800   0.49640   0.01267  Uiso   1.00
C84    C     0.02450   0.39980   0.10370   0.01267  Uiso   1.00
C85    C     0.69490   0.15630   0.88020   0.01267  Uiso   1.00
C86    C     0.89960   0.39750   0.97650   0.01267  Uiso   1.00
C87    C     0.86860   0.34660   0.86780   0.01267  Uiso   1.00
C88    C     0.71990   0.61940   0.48130   0.01267  Uiso   1.00
C89    C     0.89930   0.38060   0.89950   0.01267  Uiso   1.00
C90    C     0.49890   0.63430   0.31580   0.01267  Uiso   1.00
C91    C     0.49710   0.47740   0.89690   0.01267  Uiso   1.00
C92    C     0.00800   0.37660   0.53840   0.01267  Uiso   1.00
C93    C     0.96360   0.42770   0.69450   0.01267  Uiso   1.00
C94    C     0.91350   0.54540   0.46110   0.01267  Uiso   1.00
C95    C     0.10110   0.38190   0.09940   0.01267  Uiso   1.00
C96    C     0.36650   0.37300   0.53790   0.01267  Uiso   1.00
C97    C     0.13370   0.63380   0.05130   0.01267  Uiso   1.00
C98    C     0.86860   0.34560   0.78520   0.01267  Uiso   1.00
C99    C     0.14000   0.63700   0.31300   0.01267  Uiso   1.00
C100   C     0.37560   0.87200   0.10480   0.01267  Uiso   1.00
C101   C     0.10030   0.62050   0.28000   0.01267  Uiso   1.00
C102   C     0.49850   0.81390   0.05100   0.01267  Uiso   1.00
C103   C     0.87780   0.84120   0.69300   0.01267  Uiso   1.00
C104   C     0.31580   0.81470   0.04990   0.01267  Uiso   1.00
C105   C     0.69640   0.15880   0.96560   0.01267  Uiso   1.00
C106   C     0.53760   0.66200   0.30360   0.01267  Uiso   1.00
C107   C     0.50110   0.36570   0.68420   0.01267  Uiso   1.00
C108   C     0.21480   0.34620   0.13080   0.01267  Uiso   1.00
C109   C     0.13390   0.44720   0.04770   0.01267  Uiso   1.00
C110   C     0.10350   0.12620   0.37650   0.01267  Uiso   1.00
C111   C     0.86920   0.65440   0.47700   0.01267  Uiso   1.00
C112   C     0.53560   0.62440   0.36860   0.01267  Uiso   1.00
C113   C     0.97730   0.48000   0.89650   0.01267  Uiso   1.00
C114   C     0.53890   0.62540   0.00650   0.01267  Uiso   1.00
C115   C     0.03640   0.57230   0.30550   0.01267  Uiso   1.00
C116   C     0.31490   0.36620   0.50010   0.01267  Uiso   1.00
C117   C     0.10370   0.12820   0.49650   0.01267  Uiso   1.00
C118   C     0.49730   0.87380   0.02270   0.01267  Uiso   1.00
C119   C     0.13540   0.18530   0.49890   0.01267  Uiso   1.00
C120   C     0.04990   0.36570   0.13540   0.01267  Uiso   1.00
C121   C     0.46110   0.37460   0.99350   0.01267  Uiso   1.00
C122   C     0.95000   0.63700   0.50300   0.01267  Uiso   1.00
C123   C     0.03320   0.15600   0.30720   0.01267  Uiso   1.00
C124   C     0.10280   0.47700   0.49940   0.01267  Uiso   1.00
C125   C     0.46440   0.37560   0.63140   0.01267  Uiso   1.00
C126   C     0.51870   0.79880   0.10070   0.01267  Uiso   1.00
C127   C     0.49990   0.18500   0.86630   0.01267  Uiso   1.00
C128   C     0.30810   0.43140   0.04050   0.01267  Uiso   1.00
C129   C     0.46420   0.45640   0.63160   0.01267  Uiso   1.00
C130   C     0.96350   0.84370   0.46140   0.01267  Uiso   1.00
C131   C     0.96680   0.84400   0.69280   0.01267  Uiso   1.00
C132   C     0.89630   0.87180   0.50350   0.01267  Uiso   1.00
C133   C     0.09940   0.20050   0.51870   0.01267  Uiso   1.00
C134   C     0.86830   0.73680   0.47750   0.01267  Uiso   1.00
C135   C     0.04770   0.18160   0.50510   0.01267  Uiso   1.00
C136   C     0.95060   0.45110   0.68450   0.01267  Uiso   1.00
C137   C     0.12440   0.15880   0.53760   0.01267  Uiso   1.00
C138   C     0.86440   0.54890   0.50050   0.01267  Uiso   1.00
C139   C     0.68460   0.54950   0.50150   0.01267  Uiso   1.00
C140   C     0.49790   0.12390   0.89960   0.01267  Uiso   1.00
C141   C     0.68420   0.18530   0.95010   0.01267  Uiso   1.00
C142   C     0.52200   0.73640   0.13140   0.01267  Uiso   1.00
C143   C     0.01970   0.39400   0.50290   0.01267  Uiso   1.00
C144   C     0.91200   0.54360   0.99220   0.01267  Uiso   1.00
C145   C     0.87780   0.57230   0.46410   0.01267  Uiso   1.00
C146   C     0.97550   0.60020   0.89630   0.01267  Uiso   1.00
C147   C     0.96560   0.66200   0.87560   0.01267  Uiso   1.00
C148   C     0.53600   0.90530   0.00670   0.01267  Uiso   1.00
C149   C     0.47800   0.26360   0.86860   0.01267  Uiso   1.00
C150   C     0.13140   0.65440   0.21480   0.01267  Uiso   1.00
C151   C     0.63160   0.09580   0.91200   0.01267  Uiso   1.00
C152   C     0.49490   0.44720   0.68670   0.01267  Uiso   1.00
C153   C     0.08800   0.45640   0.00780   0.01267  Uiso   1.00
C154   C     0.03660   0.57080   0.12220   0.01267  Uiso   1.00
C155   C     0.05000   0.36300   0.49700   0.01267  Uiso   1.00
C156   C     0.62570   0.52260   0.98030   0.01267  Uiso   1.00
C157   C     0.50010   0.81500   0.13370   0.01267  Uiso   1.00
C158   C     0.98030   0.60600   0.49710   0.01267  Uiso   1.00
C159   C     0.31300   0.45300   0.05000   0.01267  Uiso   1.00
C160   C     0.94900   0.45050   0.86490   0.01267  Uiso   1.00
C161   C     0.86490   0.81390   0.68460   0.01267  Uiso   1.00
C162   C     0.13510   0.18610   0.31540   0.01267  Uiso   1.00
C163   C     0.91500   0.37660   0.63140   0.01267  Uiso   1.00
C164   C     0.89970   0.37950   0.72000   0.01267  Uiso   1.00
C165   C     0.52020   0.61970   0.10030   0.01267  Uiso   1.00
C166   C     0.68670   0.18160   0.86610   0.01267  Uiso   1.00
C167   C     0.00650   0.09560   0.36650   0.01267  Uiso   1.00
C168   C     0.48130   0.20120   0.89930   0.01267  Uiso   1.00
C169   C     0.99350   0.90440   0.63350   0.01267  Uiso   1.00
C170   C     0.90060   0.79950   0.48130   0.01267  Uiso   1.00
C171   C     0.86780   0.73640   0.78560   0.01267  Uiso   1.00
C172   C     0.36810   0.37460   0.08650   0.01267  Uiso   1.00
C173   C     0.46160   0.45360   0.91500   0.01267  Uiso   1.00
C174   C     0.90050   0.62050   0.47980   0.01267  Uiso   1.00
C175   C     0.62600   0.60250   0.49790   0.01267  Uiso   1.00
C176   C     0.86460   0.81470   0.50110   0.01267  Uiso   1.00
C177   C     0.50360   0.48040   0.62440   0.01267  Uiso   1.00
C178   C     0.00670   0.54270   0.08800   0.01267  Uiso   1.00
C179   C     0.63070   0.54270   0.46400   0.01267  Uiso   1.00
C180   C     0.69300   0.57080   0.46580   0.01267  Uiso   1.00
C181   C     0.46210   0.09560   0.91090   0.01267  Uiso   1.00
C182   C     0.89720   0.52300   0.50060   0.01267  Uiso   1.00
C183   C     0.00650   0.54540   0.36810   0.01267  Uiso   1.00
C184   C     0.12220   0.15880   0.30700   0.01267  Uiso   1.00
C185   C     0.46240   0.33800   0.69640   0.01267  Uiso   1.00
C186   C     0.69280   0.65960   0.46320   0.01267  Uiso   1.00
C187   C     0.02360   0.52300   0.37420   0.01267  Uiso   1.00
C188   C     0.46320   0.15600   0.87720   0.01267  Uiso   1.00
C189   C     0.69190   0.56860   0.95950   0.01267  Uiso   1.00
C190   C     0.36860   0.45360   0.00800   0.01267  Uiso   1.00
C191   C     0.50050   0.62400   0.87650   0.01267  Uiso   1.00
C192   C     0.87670   0.34860   0.69190   0.01267  Uiso   1.00
C193   C     0.28000   0.38030   0.09950   0.01267  Uiso   1.00
C194   C     0.53420   0.84120   0.03660   0.01267  Uiso   1.00
C195   C     0.09950   0.37950   0.52020   0.01267  Uiso   1.00
C196   C     0.96340   0.42920   0.87780   0.01267  Uiso   1.00
C197   C     0.99350   0.45460   0.63190   0.01267  Uiso   1.00
C198   C     0.10070   0.61940   0.10050   0.01267  Uiso   1.00
C199   C     0.46400   0.09470   0.99330   0.01267  Uiso   1.00
C200   C     0.08910   0.62700   0.00650   0.01267  Uiso   1.00
C201   C     0.37430   0.47740   0.01970   0.01267  Uiso   1.00
C202   C     0.50510   0.55280   0.31330   0.01267  Uiso   1.00
C203   C     0.13150   0.34580   0.13170   0.01267  Uiso   1.00
C204   C     0.99220   0.90420   0.46420   0.01267  Uiso   1.00
C205   C     0.08800   0.09470   0.36930   0.01267  Uiso   1.00
C206   C     0.50300   0.45300   0.86000   0.01267  Uiso   1.00
C207   C     0.49640   0.51960   0.37560   0.01267  Uiso   1.00
C208   C     0.12330   0.65140   0.30810   0.01267  Uiso   1.00
C209   C     0.87650   0.37700   0.49950   0.01267  Uiso   1.00
C210   C     0.13080   0.34560   0.52300   0.01267  Uiso   1.00
C211   C     0.10040   0.60250   0.02350   0.01267  Uiso   1.00
C212   C     0.86630   0.36620   0.94870   0.01267  Uiso   1.00
C213   C     0.37530   0.87180   0.02450   0.01267  Uiso   1.00
C214   C     0.37420   0.39780   0.10280   0.01267  Uiso   1.00
C215   C     0.63140   0.54640   0.99200   0.01267  Uiso   1.00
C216   C     0.53790   0.90440   0.08910   0.01267  Uiso   1.00
C217   C     0.94870   0.81500   0.68510   0.01267  Uiso   1.00
C218   C     0.49950   0.37600   0.12350   0.01267  Uiso   1.00
C219   C     0.62350   0.52000   0.50270   0.01267  Uiso   1.00
C220   C     0.47700   0.34620   0.86860   0.01267  Uiso   1.00
C221   C     0.97680   0.87200   0.50360   0.01267  Uiso   1.00
C222   C     0.87630   0.99910   0.50100   0.01267  Uiso   1.00
C223   C     0.78560   0.65340   0.47800   0.01267  Uiso   1.00
C224   C     0.31550   0.36490   0.13560   0.01267  Uiso   1.00
C225   C     0.89690   0.39400   0.62570   0.01267  Uiso   1.00
C226   C     0.13560   0.45110   0.49950   0.01267  Uiso   1.00
C227   C     0.30720   0.34040   0.53680   0.01267  Uiso   1.00
C228   C     0.50050   0.36490   0.95060   0.01267  Uiso   1.00
C229   C     0.21430   0.73680   0.13150   0.01267  Uiso   1.00
C230   C     0.12370   0.00090   0.49900   0.01267  Uiso   1.00
C231   C     0.68700   0.54700   0.95000   0.01267  Uiso   1.00
C232   C     0.47980   0.38030   0.89970   0.01267  Uiso   1.00
C233   C     0.78570   0.26320   0.86850   0.01267  Uiso   1.00
C234   C     0.50060   0.39780   0.97640   0.01267  Uiso   1.00
C235   C     0.08880   0.09580   0.53560   0.01267  Uiso   1.00
C236   C     0.89520   0.51960   0.97680   0.01267  Uiso   1.00
C237   C     0.99200   0.62340   0.46160   0.01267  Uiso   1.00
C238   C     0.31330   0.81840   0.13390   0.01267  Uiso   1.00
C239   C     0.49900   0.62270   0.50010   0.01267  Uiso   1.00
C240   C     0.95010   0.63430   0.86460   0.01267  Uiso   1.00
C241   C     0.10050   0.20120   0.28010   0.01267  Uiso   1.00
C242   C     0.36860   0.90420   0.00700   0.01267  Uiso   1.00
C243   C     0.46140   0.42490   0.69490   0.01267  Uiso   1.00
C244   C     0.50100   0.37730   0.49990   0.01267  Uiso   1.00
C245   C     0.97640   0.47700   0.62580   0.01267  Uiso   1.00
C246   C     0.30700   0.42920   0.53420   0.01267  Uiso   1.00
C247   C     0.10480   0.48040   0.02320   0.01267  Uiso   1.00
C248   C     0.95230   0.81840   0.49490   0.01267  Uiso   1.00
C249   C     0.71920   0.20050   0.89890   0.01267  Uiso   1.00
C250   C     0.91090   0.37300   0.99350   0.01267  Uiso   1.00
C251   C     0.13140   0.65340   0.13220   0.01267  Uiso   1.00
C252   C     0.02350   0.12390   0.37400   0.01267  Uiso   1.00
S1     S     0.81970   0.99990   0.47900   0.01267  Uiso   1.00
S2     S     0.52330   0.70270   0.82060   0.01267  Uiso   1.00
S3     S     0.47860   0.66110   0.51930   0.01267  Uiso   1.00
S4     S     0.18020   0.70130   0.81970   0.01267  Uiso   1.00
S5     S     0.18250   0.00210   0.47860   0.01267  Uiso   1.00
S6     S     0.18030   0.00010   0.52100   0.01267  Uiso   1.00
S7     S     0.47890   0.99990   0.81980   0.01267  Uiso   1.00
S8     S     0.47900   0.29870   0.52110   0.01267  Uiso   1.00
S9     S     0.48070   0.00210   0.18040   0.01267  Uiso   1.00
S10    S     0.52110   0.00010   0.18020   0.01267  Uiso   1.00
S11    S     0.81750   0.99790   0.52140   0.01267  Uiso   1.00
S12    S     0.82060   0.34390   0.47670   0.01267  Uiso   1.00
S13    S     0.51930   0.99790   0.81960   0.01267  Uiso   1.00
S14    S     0.18040   0.66110   0.81750   0.01267  Uiso   1.00
S15    S     0.51850   0.33710   0.18140   0.01267  Uiso   1.00
S16    S     0.52100   0.70130   0.47890   0.01267  Uiso   1.00
S17    S     0.47670   0.29730   0.17940   0.01267  Uiso   1.00
S18    S     0.17940   0.65610   0.52330   0.01267  Uiso   1.00
S19    S     0.18140   0.69990   0.48150   0.01267  Uiso   1.00
S20    S     0.81860   0.30010   0.51850   0.01267  Uiso   1.00
S21    S     0.48150   0.66290   0.81860   0.01267  Uiso   1.00
S22    S     0.52140   0.33890   0.48070   0.01267  Uiso   1.00
S23    S     0.81960   0.33890   0.18250   0.01267  Uiso   1.00
S24    S     0.81980   0.29870   0.18030   0.01267  Uiso   1.00
N1     N     0.95933   0.55590   0.95817   0.01267  Uiso   1.00
N2     N     0.09970   0.62200   0.18890   0.01267  Uiso   1.00
N3     N     0.50024   0.00090   0.07826   0.01267  Uiso   1.00
N4     N     0.40284   0.44450   0.51406   0.01267  Uiso   1.00
N5     N     0.92060   0.42080   0.49980   0.01267  Uiso   1.00
N6     N     0.49976   0.99910   0.92174   0.01267  Uiso   1.00
N7     N     0.04067   0.44410   0.04183   0.01267  Uiso   1.00
N8     N     0.18900   0.71030   0.18910   0.01267  Uiso   1.00
N9     N     0.81100   0.28970   0.81090   0.01267  Uiso   1.00
N10    N     0.89970   0.71080   0.81110   0.01267  Uiso   1.00
N11    N     0.81090   0.62190   0.89940   0.01267  Uiso   1.00
N12    N     0.92084   0.99910   0.50066   0.01267  Uiso   1.00
N13    N     0.07916   0.00090   0.49934   0.01267  Uiso   1.00
N14    N     0.10060   0.28970   0.52130   0.01267  Uiso   1.00
N15    N     0.47810   0.28920   0.81110   0.01267  Uiso   1.00
N16    N     0.81110   0.71080   0.47810   0.01267  Uiso   1.00
N17    N     0.49934   0.57850   0.49976   0.01267  Uiso   1.00
N18    N     0.51406   0.91690   0.04144   0.01267  Uiso   1.00
N19    N     0.10030   0.28920   0.18890   0.01267  Uiso   1.00
N20    N     0.49980   0.42040   0.07940   0.01267  Uiso   1.00
N21    N     0.18910   0.37800   0.52230   0.01267  Uiso   1.00
N22    N     0.95856   0.44450   0.95834   0.01267  Uiso   1.00
N23    N     0.52130   0.62190   0.18900   0.01267  Uiso   1.00
N24    N     0.04183   0.08250   0.51407   0.01267  Uiso   1.00
N25    N     0.59657   0.08250   0.95933   0.01267  Uiso   1.00
N26    N     0.18890   0.28860   0.18910   0.01267  Uiso   1.00
N27    N     0.48594   0.08310   0.95856   0.01267  Uiso   1.00
N28    N     0.51407   0.55590   0.40343   0.01267  Uiso   1.00
N29    N     0.52190   0.71080   0.18890   0.01267  Uiso   1.00
N30    N     0.04120   0.55490   0.40350   0.01267  Uiso   1.00
N31    N     0.50020   0.57960   0.92060   0.01267  Uiso   1.00
N32    N     0.81090   0.62200   0.47770   0.01267  Uiso   1.00
N33    N     0.04166   0.08310   0.40284   0.01267  Uiso   1.00
N34    N     0.95880   0.44510   0.59650   0.01267  Uiso   1.00
N35    N     0.07940   0.57920   0.50020   0.01267  Uiso   1.00
N36    N     0.81110   0.71140   0.81090   0.01267  Uiso   1.00
N37    N     0.07826   0.57850   0.92084   0.01267  Uiso   1.00
N38    N     0.95834   0.91690   0.59716   0.01267  Uiso   1.00
N39    N     0.90030   0.37800   0.81110   0.01267  Uiso   1.00
N40    N     0.18910   0.37810   0.10060   0.01267  Uiso   1.00
N41    N     0.95817   0.91750   0.48593   0.01267  Uiso   1.00
N42    N     0.48630   0.44470   0.95880   0.01267  Uiso   1.00
N43    N     0.47870   0.37810   0.81100   0.01267  Uiso   1.00
N44    N     0.95840   0.55490   0.48630   0.01267  Uiso   1.00
N45    N     0.48593   0.44410   0.59657   0.01267  Uiso   1.00
N46    N     0.59650   0.55530   0.95840   0.01267  Uiso   1.00
N47    N     0.40350   0.44470   0.04160   0.01267  Uiso   1.00
N48    N     0.18890   0.28920   0.52190   0.01267  Uiso   1.00
N49    N     0.51370   0.55530   0.04120   0.01267  Uiso   1.00
N50    N     0.92174   0.42150   0.07916   0.01267  Uiso   1.00
N51    N     0.59716   0.55550   0.48594   0.01267  Uiso   1.00
N52    N     0.04144   0.55550   0.04166   0.01267  Uiso   1.00
N53    N     0.52230   0.71140   0.09970   0.01267  Uiso   1.00
N54    N     0.89940   0.71030   0.47870   0.01267  Uiso   1.00
N55    N     0.40343   0.91750   0.04067   0.01267  Uiso   1.00
N56    N     0.18890   0.71080   0.10030   0.01267  Uiso   1.00
N57    N     0.50066   0.42150   0.50024   0.01267  Uiso   1.00
N58    N     0.04160   0.44510   0.51370   0.01267  Uiso   1.00
N59    N     0.81110   0.28920   0.89970   0.01267  Uiso   1.00
N60    N     0.47770   0.28860   0.90030   0.01267  Uiso   1.00
