data_image0
_cell_length_a       21.08
_cell_length_b       26.445
_cell_length_c       26.445
_cell_angle_alpha    120
_cell_angle_beta     90
_cell_angle_gamma    90

_symmetry_space_group_name_H-M    "P 1"
_symmetry_int_tables_number       1

loop_
  _symmetry_equiv_pos_as_xyz
  'x, y, z'

loop_
  _atom_site_label
  _atom_site_occupancy
  _atom_site_fract_x
  _atom_site_fract_y
  _atom_site_fract_z
  _atom_site_thermal_displace_type
  _atom_site_B_iso_or_equiv
  _atom_site_type_symbol
  Si1      1.0000 0.89321  0.43585  0.43585  Biso   1.000  Si
  Si2      1.0000 0.92041  0.58401  0.58401  Biso   1.000  Si
  Si3      1.0000 0.07959  0.58401  0.58401  Biso   1.000  Si
  Si4      1.0000 0.89321  0.56415  0.56415  Biso   1.000  Si
  Si5      1.0000 0.10679  0.43585  0.43585  Biso   1.000  Si
  Si6      1.0000 0.10679  0.56415  0.56415  Biso   1.000  Si
  Si7      1.0000 0.92041  0.41599  0.41599  Biso   1.000  Si
  Si8      1.0000 0.07959  0.41599  0.41599  Biso   1.000  Si
  H1       1.0000 0.61580  0.71440  0.71440  Biso   1.000  H
  H2       1.0000 0.27530  0.30290  0.30290  Biso   1.000  H
  H3       1.0000 0.21670  0.14320  0.14320  Biso   1.000  H
  H4       1.0000 0.38420  0.71440  0.71440  Biso   1.000  H
  H5       1.0000 0.70600  0.20670  0.20670  Biso   1.000  H
  H6       1.0000 0.27530  0.69710  0.69710  Biso   1.000  H
  H7       1.0000 0.57840  0.43600  0.43600  Biso   1.000  H
  H8       1.0000 0.78330  0.14320  0.14320  Biso   1.000  H
  H9       1.0000 0.10910  0.16480  0.16480  Biso   1.000  H
  H10      1.0000 0.45740  0.64780  0.64780  Biso   1.000  H
  H11      1.0000 0.26380  0.29180  0.29180  Biso   1.000  H
  H12      1.0000 0.92120  0.24995  0.24995  Biso   1.000  H
  H13      1.0000 0.54260  0.64780  0.64780  Biso   1.000  H
  H14      1.0000 0.42160  0.56400  0.56400  Biso   1.000  H
  H15      1.0000 0.72470  0.69710  0.69710  Biso   1.000  H
  H16      1.0000 0.73620  0.70820  0.70820  Biso   1.000  H
  H17      1.0000 0.61580  0.28560  0.28560  Biso   1.000  H
  H18      1.0000 0.70600  0.79330  0.79330  Biso   1.000  H
  H19      1.0000 0.42160  0.43600  0.43600  Biso   1.000  H
  H20      1.0000 0.45740  0.35220  0.35220  Biso   1.000  H
  H21      1.0000 0.57840  0.56400  0.56400  Biso   1.000  H
  H22      1.0000 0.92120  0.75005  0.75005  Biso   1.000  H
  H23      1.0000 0.29400  0.79330  0.79330  Biso   1.000  H
  H24      1.0000 0.78330  0.85680  0.85680  Biso   1.000  H
  H25      1.0000 0.07880  0.24995  0.24995  Biso   1.000  H
  H26      1.0000 0.07880  0.75005  0.75005  Biso   1.000  H
  H27      1.0000 0.54260  0.35220  0.35220  Biso   1.000  H
  H28      1.0000 0.10910  0.83520  0.83520  Biso   1.000  H
  H29      1.0000 0.89090  0.83520  0.83520  Biso   1.000  H
  H30      1.0000 0.21670  0.85680  0.85680  Biso   1.000  H
  H31      1.0000 0.29400  0.20670  0.20670  Biso   1.000  H
  H32      1.0000 0.89090  0.16480  0.16480  Biso   1.000  H
  H33      1.0000 0.26380  0.70820  0.70820  Biso   1.000  H
  H34      1.0000 0.72470  0.30290  0.30290  Biso   1.000  H
  H35      1.0000 0.38420  0.28560  0.28560  Biso   1.000  H
  H36      1.0000 0.73620  0.29180  0.29180  Biso   1.000  H
  C1       1.0000 0.39190  0.40900  0.40900  Biso   1.000  C
  C2       1.0000 0.25030  0.78460  0.78460  Biso   1.000  C
  C3       1.0000 0.87750  0.75880  0.75880  Biso   1.000  C
  C4       1.0000 0.85190  0.66730  0.66730  Biso   1.000  C
  C5       1.0000 0.78580  0.61040  0.61040  Biso   1.000  C
  C6       1.0000 0.16840  0.27890  0.27890  Biso   1.000  C
  C7       1.0000 0.12250  0.24120  0.24120  Biso   1.000  C
  C8       1.0000 0.16840  0.72110  0.72110  Biso   1.000  C
  C9       1.0000 0.32720  0.58080  0.58080  Biso   1.000  C
  C10      1.0000 0.63030  0.31970  0.31970  Biso   1.000  C
  C11      1.0000 0.69500  0.67011  0.67011  Biso   1.000  C
  C12      1.0000 0.36970  0.31970  0.31970  Biso   1.000  C
  C13      1.0000 0.21420  0.38960  0.38960  Biso   1.000  C
  C14      1.0000 0.83160  0.27890  0.27890  Biso   1.000  C
  C15      1.0000 0.71620  0.37965  0.37965  Biso   1.000  C
  C16      1.0000 0.67280  0.58080  0.58080  Biso   1.000  C
  C17      1.0000 0.83160  0.72110  0.72110  Biso   1.000  C
  C18      1.0000 0.14810  0.66730  0.66730  Biso   1.000  C
  C19      1.0000 0.60810  0.59100  0.59100  Biso   1.000  C
  C20      1.0000 0.23240  0.26600  0.26600  Biso   1.000  C
  C21      1.0000 0.25030  0.21540  0.21540  Biso   1.000  C
  C22      1.0000 0.79560  0.17770  0.17770  Biso   1.000  C
  C23      1.0000 0.78580  0.38960  0.38960  Biso   1.000  C
  C24      1.0000 0.67280  0.41920  0.41920  Biso   1.000  C
  C25      1.0000 0.63030  0.68030  0.68030  Biso   1.000  C
  C26      1.0000 0.41320  0.35920  0.35920  Biso   1.000  C
  C27      1.0000 0.85950  0.19060  0.19060  Biso   1.000  C
  C28      1.0000 0.74970  0.78460  0.78460  Biso   1.000  C
  C29      1.0000 0.76760  0.26600  0.26600  Biso   1.000  C
  C30      1.0000 0.74970  0.21540  0.21540  Biso   1.000  C
  C31      1.0000 0.14810  0.33270  0.33270  Biso   1.000  C
  C32      1.0000 0.87750  0.24120  0.24120  Biso   1.000  C
  C33      1.0000 0.69500  0.32990  0.32990  Biso   1.000  C
  C34      1.0000 0.39190  0.59100  0.59100  Biso   1.000  C
  C35      1.0000 0.12250  0.75880  0.75880  Biso   1.000  C
  C36      1.0000 0.85190  0.33270  0.33270  Biso   1.000  C
  C37      1.0000 0.79560  0.82230  0.82230  Biso   1.000  C
  C38      1.0000 0.30500  0.32990  0.32990  Biso   1.000  C
  C39      1.0000 0.28380  0.37965  0.37965  Biso   1.000  C
  C40      1.0000 0.85950  0.80940  0.80940  Biso   1.000  C
  C41      1.0000 0.14050  0.80940  0.80940  Biso   1.000  C
  C42      1.0000 0.14050  0.19060  0.19060  Biso   1.000  C
  C43      1.0000 0.60810  0.40900  0.40900  Biso   1.000  C
  C44      1.0000 0.76760  0.73400  0.73400  Biso   1.000  C
  C45      1.0000 0.58680  0.64080  0.64080  Biso   1.000  C
  C46      1.0000 0.30500  0.67011  0.67011  Biso   1.000  C
  C47      1.0000 0.41320  0.64080  0.64080  Biso   1.000  C
  C48      1.0000 0.36970  0.68030  0.68030  Biso   1.000  C
  C49      1.0000 0.32720  0.41920  0.41920  Biso   1.000  C
  C50      1.0000 0.20440  0.82230  0.82230  Biso   1.000  C
  C51      1.0000 0.28380  0.62035  0.62035  Biso   1.000  C
  C52      1.0000 0.20440  0.17770  0.17770  Biso   1.000  C
  C53      1.0000 0.21420  0.61040  0.61040  Biso   1.000  C
  C54      1.0000 0.58680  0.35920  0.35920  Biso   1.000  C
  C55      1.0000 0.71620  0.62035  0.62035  Biso   1.000  C
  C56      1.0000 0.23240  0.73400  0.73400  Biso   1.000  C
  O1       1.0000 0.80710  0.36660  0.36660  Biso   1.000  O
  O2       1.0000 0.17670  0.35120  0.35120  Biso   1.000  O
  O3       1.0000 0.19290  0.36660  0.36660  Biso   1.000  O
  O4       1.0000 0.82330  0.64880  0.64880  Biso   1.000  O
  O5       1.0000 0.91000  0.65500  0.65500  Biso   1.000  O
  O6       1.0000 0.17670  0.64880  0.64880  Biso   1.000  O
  O7       1.0000 0.19330  0.43420  0.43420  Biso   1.000  O
  O8       1.0000 0.19290  0.63340  0.63340  Biso   1.000  O
  O9       1.0000 0.20930  0.47680  0.47680  Biso   1.000  O
  O10      1.0000 0.20930  0.52320  0.52320  Biso   1.000  O
  O11      1.0000 0.80670  0.43420  0.43420  Biso   1.000  O
  O12      1.0000 0.96400  0.33290  0.33290  Biso   1.000  O
  O13      1.0000 0.09000  0.34500  0.34500  Biso   1.000  O
  O14      1.0000 0.79070  0.47680  0.47680  Biso   1.000  O
  O15      1.0000 0.79070  0.52320  0.52320  Biso   1.000  O
  O16      1.0000 0.80670  0.56580  0.56580  Biso   1.000  O
  O17      1.0000 0.82330  0.35120  0.35120  Biso   1.000  O
  O18      1.0000 0.19330  0.56580  0.56580  Biso   1.000  O
  O19      1.0000 0.91000  0.34500  0.34500  Biso   1.000  O
  O20      1.0000 0.03600  0.33290  0.33290  Biso   1.000  O
  O21      1.0000 0.96400  0.66710  0.66710  Biso   1.000  O
  O22      1.0000 0.03600  0.66710  0.66710  Biso   1.000  O
  O23      1.0000 0.80710  0.63340  0.63340  Biso   1.000  O
  O24      1.0000 0.09000  0.65500  0.65500  Biso   1.000  O
  F1       1.0000 0.27700  0.69870  0.69870  Biso   1.000  F
  F2       1.0000 0.06150  0.74750  0.74750  Biso   1.000  F
  F3       1.0000 0.93850  0.74750  0.74750  Biso   1.000  F
  F4       1.0000 0.93850  0.25250  0.25250  Biso   1.000  F
  F5       1.0000 0.69180  0.53340  0.53340  Biso   1.000  F
  F6       1.0000 0.27700  0.30130  0.30130  Biso   1.000  F
  F7       1.0000 0.72300  0.69870  0.69870  Biso   1.000  F
  F8       1.0000 0.69180  0.46660  0.46660  Biso   1.000  F
  F9       1.0000 0.30820  0.53340  0.53340  Biso   1.000  F
  F10      1.0000 0.30820  0.46660  0.46660  Biso   1.000  F
  F11      1.0000 0.72300  0.30130  0.30130  Biso   1.000  F
  F12      1.0000 0.06150  0.25250  0.25250  Biso   1.000  F
  Si9      1.0000 0.10679  0.00000  0.43585  Biso   1.000  Si
  Si10     1.0000 0.92041  0.00000  0.41599  Biso   1.000  Si
  Si11     1.0000 0.89321  0.00000  0.43585  Biso   1.000  Si
  Si12     1.0000 0.92041  0.00000  0.58401  Biso   1.000  Si
  Si13     1.0000 0.10679  0.00000  0.56415  Biso   1.000  Si
  Si14     1.0000 0.89321  0.00000  0.56415  Biso   1.000  Si
  Si15     1.0000 0.07959  0.00000  0.58401  Biso   1.000  Si
  Si16     1.0000 0.07959  0.00000  0.41599  Biso   1.000  Si
  H37      1.0000 0.72470  0.00000  0.30290  Biso   1.000  H
  H38      1.0000 0.61580  0.00000  0.71440  Biso   1.000  H
  H39      1.0000 0.27530  0.00000  0.30290  Biso   1.000  H
  H40      1.0000 0.54260  0.00000  0.64780  Biso   1.000  H
  H41      1.0000 0.21670  0.00000  0.14320  Biso   1.000  H
  H42      1.0000 0.92120  1.00000  0.75005  Biso   1.000  H
  H43      1.0000 0.92120  0.00000  0.24995  Biso   1.000  H
  H44      1.0000 0.89090  0.00000  0.83520  Biso   1.000  H
  H45      1.0000 0.10910  0.00000  0.16480  Biso   1.000  H
  H46      1.0000 0.21670  0.00000  0.85680  Biso   1.000  H
  H47      1.0000 0.73620  0.00000  0.70820  Biso   1.000  H
  H48      1.0000 0.78330  0.00000  0.85680  Biso   1.000  H
  H49      1.0000 0.54260  0.00000  0.35220  Biso   1.000  H
  H50      1.0000 0.27530  0.00000  0.69710  Biso   1.000  H
  H51      1.0000 0.78330  0.00000  0.14320  Biso   1.000  H
  H52      1.0000 0.61580  0.00000  0.28560  Biso   1.000  H
  H53      1.0000 0.70600  0.00000  0.20670  Biso   1.000  H
  H54      1.0000 0.45740  0.00000  0.35220  Biso   1.000  H
  H55      1.0000 0.29400  0.00000  0.79330  Biso   1.000  H
  H56      1.0000 0.07880  0.00000  0.24995  Biso   1.000  H
  H57      1.0000 0.57840  0.00000  0.56400  Biso   1.000  H
  H58      1.0000 0.89090  0.00000  0.16480  Biso   1.000  H
  H59      1.0000 0.26380  0.00000  0.29180  Biso   1.000  H
  H60      1.0000 0.26380  0.00000  0.70820  Biso   1.000  H
  H61      1.0000 0.73620  0.00000  0.29180  Biso   1.000  H
  H62      1.0000 0.57840  0.00000  0.43600  Biso   1.000  H
  H63      1.0000 0.10910  0.00000  0.83520  Biso   1.000  H
  H64      1.0000 0.07880  1.00000  0.75005  Biso   1.000  H
  H65      1.0000 0.29400  0.00000  0.20670  Biso   1.000  H
  H66      1.0000 0.42160  0.00000  0.56400  Biso   1.000  H
  H67      1.0000 0.72470  0.00000  0.69710  Biso   1.000  H
  H68      1.0000 0.38420  0.00000  0.71440  Biso   1.000  H
  H69      1.0000 0.38420  0.00000  0.28560  Biso   1.000  H
  H70      1.0000 0.42160  0.00000  0.43600  Biso   1.000  H
  H71      1.0000 0.45740  0.00000  0.64780  Biso   1.000  H
  H72      1.0000 0.70600  0.00000  0.79330  Biso   1.000  H
  C57      1.0000 0.67280  0.00000  0.41920  Biso   1.000  C
  C58      1.0000 0.41320  0.00000  0.64080  Biso   1.000  C
  C59      1.0000 0.36970  0.00000  0.68030  Biso   1.000  C
  C60      1.0000 0.23240  0.00000  0.26600  Biso   1.000  C
  C61      1.0000 0.74970  0.00000  0.78460  Biso   1.000  C
  C62      1.0000 0.12250  0.00000  0.75880  Biso   1.000  C
  C63      1.0000 0.28380  0.00000  0.37965  Biso   1.000  C
  C64      1.0000 0.58680  0.00000  0.64080  Biso   1.000  C
  C65      1.0000 0.39190  0.00000  0.59100  Biso   1.000  C
  C66      1.0000 0.87750  0.00000  0.75880  Biso   1.000  C
  C67      1.0000 0.85950  0.00000  0.19060  Biso   1.000  C
  C68      1.0000 0.71620  0.00000  0.37965  Biso   1.000  C
  C69      1.0000 0.30500  0.00000  0.67010  Biso   1.000  C
  C70      1.0000 0.14050  0.00000  0.19060  Biso   1.000  C
  C71      1.0000 0.36970  0.00000  0.31970  Biso   1.000  C
  C72      1.0000 0.39190  0.00000  0.40900  Biso   1.000  C
  C73      1.0000 0.78580  0.00000  0.61040  Biso   1.000  C
  C74      1.0000 0.69500  0.00000  0.67010  Biso   1.000  C
  C75      1.0000 0.76760  0.00000  0.73400  Biso   1.000  C
  C76      1.0000 0.16840  0.00000  0.72110  Biso   1.000  C
  C77      1.0000 0.32720  0.00000  0.41920  Biso   1.000  C
  C78      1.0000 0.79560  0.00000  0.17770  Biso   1.000  C
  C79      1.0000 0.16840  0.00000  0.27890  Biso   1.000  C
  C80      1.0000 0.85950  0.00000  0.80940  Biso   1.000  C
  C81      1.0000 0.85190  0.00000  0.66730  Biso   1.000  C
  C82      1.0000 0.74970  0.00000  0.21540  Biso   1.000  C
  C83      1.0000 0.30500  0.00000  0.32989  Biso   1.000  C
  C84      1.0000 0.58680  0.00000  0.35920  Biso   1.000  C
  C85      1.0000 0.32720  0.00000  0.58080  Biso   1.000  C
  C86      1.0000 0.21420  0.00000  0.38960  Biso   1.000  C
  C87      1.0000 0.25030  0.00000  0.78460  Biso   1.000  C
  C88      1.0000 0.14810  0.00000  0.33270  Biso   1.000  C
  C89      1.0000 0.14050  0.00000  0.80940  Biso   1.000  C
  C90      1.0000 0.41320  0.00000  0.35920  Biso   1.000  C
  C91      1.0000 0.12250  0.00000  0.24120  Biso   1.000  C
  C92      1.0000 0.14810  0.00000  0.66730  Biso   1.000  C
  C93      1.0000 0.67280  0.00000  0.58080  Biso   1.000  C
  C94      1.0000 0.83160  0.00000  0.72110  Biso   1.000  C
  C95      1.0000 0.20440  0.00000  0.82230  Biso   1.000  C
  C96      1.0000 0.25030  0.00000  0.21540  Biso   1.000  C
  C97      1.0000 0.69500  0.00000  0.32989  Biso   1.000  C
  C98      1.0000 0.79560  0.00000  0.82230  Biso   1.000  C
  C99      1.0000 0.85190  0.00000  0.33270  Biso   1.000  C
  C100     1.0000 0.83160  0.00000  0.27890  Biso   1.000  C
  C101     1.0000 0.28380  0.00000  0.62035  Biso   1.000  C
  C102     1.0000 0.60810  0.00000  0.40900  Biso   1.000  C
  C103     1.0000 0.20440  0.00000  0.17770  Biso   1.000  C
  C104     1.0000 0.21420  0.00000  0.61040  Biso   1.000  C
  C105     1.0000 0.60810  0.00000  0.59100  Biso   1.000  C
  C106     1.0000 0.63030  0.00000  0.31970  Biso   1.000  C
  C107     1.0000 0.87750  0.00000  0.24120  Biso   1.000  C
  C108     1.0000 0.63030  0.00000  0.68030  Biso   1.000  C
  C109     1.0000 0.78580  0.00000  0.38960  Biso   1.000  C
  C110     1.0000 0.71620  0.00000  0.62035  Biso   1.000  C
  C111     1.0000 0.76760  0.00000  0.26600  Biso   1.000  C
  C112     1.0000 0.23240  0.00000  0.73400  Biso   1.000  C
  O25      1.0000 0.03600  0.00000  0.33290  Biso   1.000  O
  O26      1.0000 0.17670  0.00000  0.35120  Biso   1.000  O
  O27      1.0000 0.91000  0.00000  0.34500  Biso   1.000  O
  O28      1.0000 0.82330  0.00000  0.64880  Biso   1.000  O
  O29      1.0000 0.80710  0.00000  0.63340  Biso   1.000  O
  O30      1.0000 0.17670  0.00000  0.64880  Biso   1.000  O
  O31      1.0000 0.09000  0.00000  0.65500  Biso   1.000  O
  O32      1.0000 0.80710  0.00000  0.36660  Biso   1.000  O
  O33      1.0000 0.19330  0.00000  0.43420  Biso   1.000  O
  O34      1.0000 0.91000  0.00000  0.65500  Biso   1.000  O
  O35      1.0000 0.80670  0.00000  0.43420  Biso   1.000  O
  O36      1.0000 0.80670  0.00000  0.56580  Biso   1.000  O
  O37      1.0000 0.20930  0.00000  0.52320  Biso   1.000  O
  O38      1.0000 0.96400  0.00000  0.66710  Biso   1.000  O
  O39      1.0000 0.20930  0.00000  0.47680  Biso   1.000  O
  O40      1.0000 0.19290  0.00000  0.63340  Biso   1.000  O
  O41      1.0000 0.03600  0.00000  0.66710  Biso   1.000  O
  O42      1.0000 0.79070  0.00000  0.52320  Biso   1.000  O
  O43      1.0000 0.79070  0.00000  0.47680  Biso   1.000  O
  O44      1.0000 0.96400  0.00000  0.33290  Biso   1.000  O
  O45      1.0000 0.19290  0.00000  0.36660  Biso   1.000  O
  O46      1.0000 0.82330  0.00000  0.35120  Biso   1.000  O
  O47      1.0000 0.19330  0.00000  0.56580  Biso   1.000  O
  O48      1.0000 0.09000  0.00000  0.34500  Biso   1.000  O
  F13      1.0000 0.30820  0.00000  0.53340  Biso   1.000  F
  F14      1.0000 0.69180  0.00000  0.46660  Biso   1.000  F
  F15      1.0000 0.06150  0.00000  0.25250  Biso   1.000  F
  F16      1.0000 0.72300  0.00000  0.69870  Biso   1.000  F
  F17      1.0000 0.06150  0.00000  0.74750  Biso   1.000  F
  F18      1.0000 0.27700  0.00000  0.30130  Biso   1.000  F
  F19      1.0000 0.69180  0.00000  0.53340  Biso   1.000  F
  F20      1.0000 0.30820  0.00000  0.46660  Biso   1.000  F
  F21      1.0000 0.93850  0.00000  0.25250  Biso   1.000  F
  F22      1.0000 0.93850  0.00000  0.74750  Biso   1.000  F
  F23      1.0000 0.72300  0.00000  0.30130  Biso   1.000  F
  F24      1.0000 0.27700  0.00000  0.69870  Biso   1.000  F
  Si17     1.0000 0.92041  0.41599  0.00000  Biso   1.000  Si
  Si18     1.0000 0.10679  0.43585  0.00000  Biso   1.000  Si
  Si19     1.0000 0.89321  0.56415  0.00000  Biso   1.000  Si
  Si20     1.0000 0.10679  0.56415  0.00000  Biso   1.000  Si
  Si21     1.0000 0.07959  0.58401  0.00000  Biso   1.000  Si
  Si22     1.0000 0.92041  0.58401  0.00000  Biso   1.000  Si
  Si23     1.0000 0.89321  0.43585  0.00000  Biso   1.000  Si
  Si24     1.0000 0.07959  0.41599  0.00000  Biso   1.000  Si
  H73      1.0000 0.57840  0.56400  0.00000  Biso   1.000  H
  H74      1.0000 0.10910  0.83520  0.00000  Biso   1.000  H
  H75      1.0000 0.89090  0.83520  0.00000  Biso   1.000  H
  H76      1.0000 0.92120  0.24995  0.00000  Biso   1.000  H
  H77      1.0000 0.72470  0.30290  0.00000  Biso   1.000  H
  H78      1.0000 0.07880  0.24995  0.00000  Biso   1.000  H
  H79      1.0000 0.73620  0.29180  0.00000  Biso   1.000  H
  H80      1.0000 0.38420  0.71440  0.00000  Biso   1.000  H
  H81      1.0000 0.78330  0.14320  0.00000  Biso   1.000  H
  H82      1.0000 0.42160  0.56400  0.00000  Biso   1.000  H
  H83      1.0000 0.07880  0.75005  0.00000  Biso   1.000  H
  H84      1.0000 0.89090  0.16480  0.00000  Biso   1.000  H
  H85      1.0000 0.21670  0.14320  0.00000  Biso   1.000  H
  H86      1.0000 0.45740  0.64780  0.00000  Biso   1.000  H
  H87      1.0000 0.21670  0.85680  0.00000  Biso   1.000  H
  H88      1.0000 0.70600  0.20670  0.00000  Biso   1.000  H
  H89      1.0000 0.70600  0.79330  0.00000  Biso   1.000  H
  H90      1.0000 0.38420  0.28560  0.00000  Biso   1.000  H
  H91      1.0000 0.78330  0.85680  0.00000  Biso   1.000  H
  H92      1.0000 0.92120  0.75005  0.00000  Biso   1.000  H
  H93      1.0000 0.45740  0.35220  0.00000  Biso   1.000  H
  H94      1.0000 0.73620  0.70820  0.00000  Biso   1.000  H
  H95      1.0000 0.29400  0.79330  0.00000  Biso   1.000  H
  H96      1.0000 0.26380  0.29180  0.00000  Biso   1.000  H
  H97      1.0000 0.57840  0.43600  0.00000  Biso   1.000  H
  H98      1.0000 0.29400  0.20670  0.00000  Biso   1.000  H
  H99      1.0000 0.54260  0.35220  0.00000  Biso   1.000  H
  H100     1.0000 0.26380  0.70820  0.00000  Biso   1.000  H
  H101     1.0000 0.27530  0.69710  0.00000  Biso   1.000  H
  H102     1.0000 0.72470  0.69710  0.00000  Biso   1.000  H
  H103     1.0000 0.42160  0.43600  0.00000  Biso   1.000  H
  H104     1.0000 0.61580  0.28560  0.00000  Biso   1.000  H
  H105     1.0000 0.61580  0.71440  0.00000  Biso   1.000  H
  H106     1.0000 0.10910  0.16480  0.00000  Biso   1.000  H
  H107     1.0000 0.54260  0.64780  0.00000  Biso   1.000  H
  H108     1.0000 0.27530  0.30290  0.00000  Biso   1.000  H
  C113     1.0000 0.60810  0.40900  0.00000  Biso   1.000  C
  C114     1.0000 0.12250  0.24120  0.00000  Biso   1.000  C
  C115     1.0000 0.76760  0.73400  0.00000  Biso   1.000  C
  C116     1.0000 0.85950  0.80940  0.00000  Biso   1.000  C
  C117     1.0000 0.16840  0.72110  0.00000  Biso   1.000  C
  C118     1.0000 0.78580  0.38960  0.00000  Biso   1.000  C
  C119     1.0000 0.69500  0.32990  0.00000  Biso   1.000  C
  C120     1.0000 0.32720  0.58080  0.00000  Biso   1.000  C
  C121     1.0000 0.25030  0.21540  0.00000  Biso   1.000  C
  C122     1.0000 0.30500  0.67011  0.00000  Biso   1.000  C
  C123     1.0000 0.20440  0.17770  0.00000  Biso   1.000  C
  C124     1.0000 0.83160  0.72110  0.00000  Biso   1.000  C
  C125     1.0000 0.14810  0.33270  0.00000  Biso   1.000  C
  C126     1.0000 0.12250  0.75880  0.00000  Biso   1.000  C
  C127     1.0000 0.25030  0.78460  0.00000  Biso   1.000  C
  C128     1.0000 0.71620  0.37965  0.00000  Biso   1.000  C
  C129     1.0000 0.76760  0.26600  0.00000  Biso   1.000  C
  C130     1.0000 0.16840  0.27890  0.00000  Biso   1.000  C
  C131     1.0000 0.69500  0.67011  0.00000  Biso   1.000  C
  C132     1.0000 0.85950  0.19060  0.00000  Biso   1.000  C
  C133     1.0000 0.87750  0.75880  0.00000  Biso   1.000  C
  C134     1.0000 0.58680  0.64080  0.00000  Biso   1.000  C
  C135     1.0000 0.28380  0.62035  0.00000  Biso   1.000  C
  C136     1.0000 0.63030  0.31970  0.00000  Biso   1.000  C
  C137     1.0000 0.41320  0.64080  0.00000  Biso   1.000  C
  C138     1.0000 0.14050  0.19060  0.00000  Biso   1.000  C
  C139     1.0000 0.74970  0.78460  0.00000  Biso   1.000  C
  C140     1.0000 0.85190  0.33270  0.00000  Biso   1.000  C
  C141     1.0000 0.32720  0.41920  0.00000  Biso   1.000  C
  C142     1.0000 0.21420  0.38960  0.00000  Biso   1.000  C
  C143     1.0000 0.28380  0.37965  0.00000  Biso   1.000  C
  C144     1.0000 0.60810  0.59100  0.00000  Biso   1.000  C
  C145     1.0000 0.20440  0.82230  0.00000  Biso   1.000  C
  C146     1.0000 0.21420  0.61040  0.00000  Biso   1.000  C
  C147     1.0000 0.23240  0.26600  0.00000  Biso   1.000  C
  C148     1.0000 0.23240  0.73400  0.00000  Biso   1.000  C
  C149     1.0000 0.36970  0.68030  0.00000  Biso   1.000  C
  C150     1.0000 0.85190  0.66730  0.00000  Biso   1.000  C
  C151     1.0000 0.39190  0.59100  0.00000  Biso   1.000  C
  C152     1.0000 0.67280  0.58080  0.00000  Biso   1.000  C
  C153     1.0000 0.83160  0.27890  0.00000  Biso   1.000  C
  C154     1.0000 0.14050  0.80940  0.00000  Biso   1.000  C
  C155     1.0000 0.71620  0.62035  0.00000  Biso   1.000  C
  C156     1.0000 0.79560  0.17770  0.00000  Biso   1.000  C
  C157     1.0000 0.79560  0.82230  0.00000  Biso   1.000  C
  C158     1.0000 0.30500  0.32990  0.00000  Biso   1.000  C
  C159     1.0000 0.39190  0.40900  0.00000  Biso   1.000  C
  C160     1.0000 0.36970  0.31970  0.00000  Biso   1.000  C
  C161     1.0000 0.67280  0.41920  0.00000  Biso   1.000  C
  C162     1.0000 0.14810  0.66730  0.00000  Biso   1.000  C
  C163     1.0000 0.41320  0.35920  0.00000  Biso   1.000  C
  C164     1.0000 0.78580  0.61040  0.00000  Biso   1.000  C
  C165     1.0000 0.58680  0.35920  0.00000  Biso   1.000  C
  C166     1.0000 0.87750  0.24120  0.00000  Biso   1.000  C
  C167     1.0000 0.74970  0.21540  0.00000  Biso   1.000  C
  C168     1.0000 0.63030  0.68030  0.00000  Biso   1.000  C
  O49      1.0000 0.80710  0.36660  0.00000  Biso   1.000  O
  O50      1.0000 0.79070  0.52320  0.00000  Biso   1.000  O
  O51      1.0000 0.80710  0.63340  0.00000  Biso   1.000  O
  O52      1.0000 0.20930  0.47680  0.00000  Biso   1.000  O
  O53      1.0000 0.03600  0.33290  0.00000  Biso   1.000  O
  O54      1.0000 0.03600  0.66710  0.00000  Biso   1.000  O
  O55      1.0000 0.19290  0.63340  0.00000  Biso   1.000  O
  O56      1.0000 0.20930  0.52320  0.00000  Biso   1.000  O
  O57      1.0000 0.82330  0.64880  0.00000  Biso   1.000  O
  O58      1.0000 0.79070  0.47680  0.00000  Biso   1.000  O
  O59      1.0000 0.82330  0.35120  0.00000  Biso   1.000  O
  O60      1.0000 0.96400  0.33290  0.00000  Biso   1.000  O
  O61      1.0000 0.19330  0.43420  0.00000  Biso   1.000  O
  O62      1.0000 0.09000  0.34500  0.00000  Biso   1.000  O
  O63      1.0000 0.17670  0.35120  0.00000  Biso   1.000  O
  O64      1.0000 0.80670  0.56580  0.00000  Biso   1.000  O
  O65      1.0000 0.19290  0.36660  0.00000  Biso   1.000  O
  O66      1.0000 0.80670  0.43420  0.00000  Biso   1.000  O
  O67      1.0000 0.91000  0.65500  0.00000  Biso   1.000  O
  O68      1.0000 0.19330  0.56580  0.00000  Biso   1.000  O
  O69      1.0000 0.17670  0.64880  0.00000  Biso   1.000  O
  O70      1.0000 0.96400  0.66710  0.00000  Biso   1.000  O
  O71      1.0000 0.91000  0.34500  0.00000  Biso   1.000  O
  O72      1.0000 0.09000  0.65500  0.00000  Biso   1.000  O
  F25      1.0000 0.72300  0.69870  0.00000  Biso   1.000  F
  F26      1.0000 0.30820  0.46660  0.00000  Biso   1.000  F
  F27      1.0000 0.69180  0.53340  0.00000  Biso   1.000  F
  F28      1.0000 0.93850  0.25250  0.00000  Biso   1.000  F
  F29      1.0000 0.06150  0.74750  0.00000  Biso   1.000  F
  F30      1.0000 0.69180  0.46660  0.00000  Biso   1.000  F
  F31      1.0000 0.93850  0.74750  0.00000  Biso   1.000  F
  F32      1.0000 0.06150  0.25250  0.00000  Biso   1.000  F
  F33      1.0000 0.72300  0.30130  0.00000  Biso   1.000  F
  F34      1.0000 0.27700  0.69870  0.00000  Biso   1.000  F
  F35      1.0000 0.27700  0.30130  0.00000  Biso   1.000  F
  F36      1.0000 0.30820  0.53340  0.00000  Biso   1.000  F
