data_image0
_cell_length_a       17.784
_cell_length_b       17.784
_cell_length_c       53.14
_cell_angle_alpha    90
_cell_angle_beta     90
_cell_angle_gamma    120

_symmetry_space_group_name_H-M    "P 1"
_symmetry_int_tables_number       1

loop_
  _symmetry_equiv_pos_as_xyz
  'x, y, z'

loop_
  _atom_site_label
  _atom_site_occupancy
  _atom_site_fract_x
  _atom_site_fract_y
  _atom_site_fract_z
  _atom_site_thermal_displace_type
  _atom_site_B_iso_or_equiv
  _atom_site_type_symbol
  O1       1.0000 0.75650  0.43660  0.35470  Biso   1.000  O
  C1       1.0000 0.75800  0.48730  0.36950  Biso   1.000  C
  O2       1.0000 0.91110  0.90150  0.36150  Biso   1.000  O
  C2       1.0000 0.91200  0.85120  0.34360  Biso   1.000  C
  O3       1.0000 0.42317  0.76993  0.68803  Biso   1.000  O
  C3       1.0000 0.42467  0.82063  0.70283  Biso   1.000  C
  O4       1.0000 0.57777  0.23483  0.69483  Biso   1.000  O
  C4       1.0000 0.57867  0.18453  0.67693  Biso   1.000  C
  O5       1.0000 0.08983  0.10327  0.02137  Biso   1.000  O
  C5       1.0000 0.09133  0.15397  0.03617  Biso   1.000  C
  O6       1.0000 0.24443  0.56817  0.02817  Biso   1.000  O
  C6       1.0000 0.24533  0.51787  0.01027  Biso   1.000  C
  O7       1.0000 0.56340  0.31990  0.35470  Biso   1.000  O
  C7       1.0000 0.51270  0.27070  0.36950  Biso   1.000  C
  O8       1.0000 0.09850  0.00960  0.36150  Biso   1.000  O
  C8       1.0000 0.14880  0.06080  0.34360  Biso   1.000  C
  O9       1.0000 0.23007  0.65323  0.68803  Biso   1.000  O
  C9       1.0000 0.17937  0.60403  0.70283  Biso   1.000  C
  O10      1.0000 0.76517  0.34293  0.69483  Biso   1.000  O
  C10      1.0000 0.81547  0.39413  0.67693  Biso   1.000  C
  O11      1.0000 0.89673  0.98657  0.02137  Biso   1.000  O
  C11      1.0000 0.84603  0.93737  0.03617  Biso   1.000  C
  O12      1.0000 0.43183  0.67627  0.02817  Biso   1.000  O
  C12      1.0000 0.48213  0.72747  0.01027  Biso   1.000  C
  O13      1.0000 0.68010  0.24350  0.35470  Biso   1.000  O
  C13      1.0000 0.72930  0.24200  0.36950  Biso   1.000  C
  O14      1.0000 0.99040  0.08890  0.36150  Biso   1.000  O
  C14      1.0000 0.93920  0.08800  0.34360  Biso   1.000  C
  O15      1.0000 0.34677  0.57683  0.68803  Biso   1.000  O
  C15      1.0000 0.39597  0.57533  0.70283  Biso   1.000  C
  O16      1.0000 0.65707  0.42223  0.69483  Biso   1.000  O
  C16      1.0000 0.60587  0.42133  0.67693  Biso   1.000  C
  O17      1.0000 0.01343  0.91017  0.02137  Biso   1.000  O
  C17      1.0000 0.06263  0.90867  0.03617  Biso   1.000  C
  O18      1.0000 0.32373  0.75557  0.02817  Biso   1.000  O
  C18      1.0000 0.27253  0.75467  0.01027  Biso   1.000  C
  O19      1.0000 0.43660  0.75650  0.64530  Biso   1.000  O
  C19      1.0000 0.48730  0.75800  0.63050  Biso   1.000  C
  O20      1.0000 0.90150  0.91110  0.63850  Biso   1.000  O
  C20      1.0000 0.85120  0.91200  0.65640  Biso   1.000  C
  O21      1.0000 0.10327  0.08983  0.97863  Biso   1.000  O
  C21      1.0000 0.15397  0.09133  0.96383  Biso   1.000  C
  O22      1.0000 0.56817  0.24443  0.97183  Biso   1.000  O
  C22      1.0000 0.51787  0.24533  0.98973  Biso   1.000  C
  O23      1.0000 0.76993  0.42317  0.31197  Biso   1.000  O
  C23      1.0000 0.82063  0.42467  0.29717  Biso   1.000  C
  O24      1.0000 0.23483  0.57777  0.30517  Biso   1.000  O
  C24      1.0000 0.18453  0.57867  0.32307  Biso   1.000  C
  O25      1.0000 0.31990  0.56340  0.64530  Biso   1.000  O
  C25      1.0000 0.27070  0.51270  0.63050  Biso   1.000  C
  O26      1.0000 0.00960  0.09850  0.63850  Biso   1.000  O
  C26      1.0000 0.06080  0.14880  0.65640  Biso   1.000  C
  O27      1.0000 0.98657  0.89673  0.97863  Biso   1.000  O
  C27      1.0000 0.93737  0.84603  0.96383  Biso   1.000  C
  O28      1.0000 0.67627  0.43183  0.97183  Biso   1.000  O
  C28      1.0000 0.72747  0.48213  0.98973  Biso   1.000  C
  O29      1.0000 0.65323  0.23007  0.31197  Biso   1.000  O
  C29      1.0000 0.60403  0.17937  0.29717  Biso   1.000  C
  O30      1.0000 0.34293  0.76517  0.30517  Biso   1.000  O
  C30      1.0000 0.39413  0.81547  0.32307  Biso   1.000  C
  O31      1.0000 0.24350  0.68010  0.64530  Biso   1.000  O
  C31      1.0000 0.24200  0.72930  0.63050  Biso   1.000  C
  O32      1.0000 0.08890  0.99040  0.63850  Biso   1.000  O
  C32      1.0000 0.08800  0.93920  0.65640  Biso   1.000  C
  O33      1.0000 0.91017  0.01343  0.97863  Biso   1.000  O
  C33      1.0000 0.90867  0.06263  0.96383  Biso   1.000  C
  O34      1.0000 0.75557  0.32373  0.97183  Biso   1.000  O
  C34      1.0000 0.75467  0.27253  0.98973  Biso   1.000  C
  O35      1.0000 0.57683  0.34677  0.31197  Biso   1.000  O
  C35      1.0000 0.57533  0.39597  0.29717  Biso   1.000  C
  O36      1.0000 0.42223  0.65707  0.30517  Biso   1.000  O
  C36      1.0000 0.42133  0.60587  0.32307  Biso   1.000  C
  O37      1.0000 0.24350  0.56340  0.64530  Biso   1.000  O
  C37      1.0000 0.24200  0.51270  0.63050  Biso   1.000  C
  O38      1.0000 0.08890  0.09850  0.63850  Biso   1.000  O
  C38      1.0000 0.08800  0.14880  0.65640  Biso   1.000  C
  O39      1.0000 0.91017  0.89673  0.97863  Biso   1.000  O
  C39      1.0000 0.90867  0.84603  0.96383  Biso   1.000  C
  O40      1.0000 0.75557  0.43183  0.97183  Biso   1.000  O
  C40      1.0000 0.75467  0.48213  0.98973  Biso   1.000  C
  O41      1.0000 0.57683  0.23007  0.31197  Biso   1.000  O
  C41      1.0000 0.57533  0.17937  0.29717  Biso   1.000  C
  O42      1.0000 0.42223  0.76517  0.30517  Biso   1.000  O
  C42      1.0000 0.42133  0.81547  0.32307  Biso   1.000  C
  O43      1.0000 0.43660  0.68010  0.64530  Biso   1.000  O
  C43      1.0000 0.48730  0.72930  0.63050  Biso   1.000  C
  O44      1.0000 0.90150  0.99040  0.63850  Biso   1.000  O
  C44      1.0000 0.85120  0.93920  0.65640  Biso   1.000  C
  O45      1.0000 0.10327  0.01343  0.97863  Biso   1.000  O
  C45      1.0000 0.15397  0.06263  0.96383  Biso   1.000  C
  O46      1.0000 0.56817  0.32373  0.97183  Biso   1.000  O
  C46      1.0000 0.51787  0.27253  0.98973  Biso   1.000  C
  O47      1.0000 0.76993  0.34677  0.31197  Biso   1.000  O
  C47      1.0000 0.82063  0.39597  0.29717  Biso   1.000  C
  O48      1.0000 0.23483  0.65707  0.30517  Biso   1.000  O
  C48      1.0000 0.18453  0.60587  0.32307  Biso   1.000  C
  O49      1.0000 0.31990  0.75650  0.64530  Biso   1.000  O
  C49      1.0000 0.27070  0.75800  0.63050  Biso   1.000  C
  O50      1.0000 0.00960  0.91110  0.63850  Biso   1.000  O
  C50      1.0000 0.06080  0.91200  0.65640  Biso   1.000  C
  O51      1.0000 0.98657  0.08983  0.97863  Biso   1.000  O
  C51      1.0000 0.93737  0.09133  0.96383  Biso   1.000  C
  O52      1.0000 0.67627  0.24443  0.97183  Biso   1.000  O
  C52      1.0000 0.72747  0.24533  0.98973  Biso   1.000  C
  O53      1.0000 0.65323  0.42317  0.31197  Biso   1.000  O
  C53      1.0000 0.60403  0.42467  0.29717  Biso   1.000  C
  O54      1.0000 0.34293  0.57777  0.30517  Biso   1.000  O
  C54      1.0000 0.39413  0.57867  0.32307  Biso   1.000  C
  O55      1.0000 0.56340  0.24350  0.35470  Biso   1.000  O
  C55      1.0000 0.51270  0.24200  0.36950  Biso   1.000  C
  O56      1.0000 0.09850  0.08890  0.36150  Biso   1.000  O
  C56      1.0000 0.14880  0.08800  0.34360  Biso   1.000  C
  O57      1.0000 0.23007  0.57683  0.68803  Biso   1.000  O
  C57      1.0000 0.17937  0.57533  0.70283  Biso   1.000  C
  O58      1.0000 0.76517  0.42223  0.69483  Biso   1.000  O
  C58      1.0000 0.81547  0.42133  0.67693  Biso   1.000  C
  O59      1.0000 0.89673  0.91017  0.02137  Biso   1.000  O
  C59      1.0000 0.84603  0.90867  0.03617  Biso   1.000  C
  O60      1.0000 0.43183  0.75557  0.02817  Biso   1.000  O
  C60      1.0000 0.48213  0.75467  0.01027  Biso   1.000  C
  O61      1.0000 0.68010  0.43660  0.35470  Biso   1.000  O
  C61      1.0000 0.72930  0.48730  0.36950  Biso   1.000  C
  O62      1.0000 0.99040  0.90150  0.36150  Biso   1.000  O
  C62      1.0000 0.93920  0.85120  0.34360  Biso   1.000  C
  O63      1.0000 0.34677  0.76993  0.68803  Biso   1.000  O
  C63      1.0000 0.39597  0.82063  0.70283  Biso   1.000  C
  O64      1.0000 0.65707  0.23483  0.69483  Biso   1.000  O
  C64      1.0000 0.60587  0.18453  0.67693  Biso   1.000  C
  O65      1.0000 0.01343  0.10327  0.02137  Biso   1.000  O
  C65      1.0000 0.06263  0.15397  0.03617  Biso   1.000  C
  O66      1.0000 0.32373  0.56817  0.02817  Biso   1.000  O
  C66      1.0000 0.27253  0.51787  0.01027  Biso   1.000  C
  O67      1.0000 0.75650  0.31990  0.35470  Biso   1.000  O
  C67      1.0000 0.75800  0.27070  0.36950  Biso   1.000  C
  O68      1.0000 0.91110  0.00960  0.36150  Biso   1.000  O
  C68      1.0000 0.91200  0.06080  0.34360  Biso   1.000  C
  O69      1.0000 0.42317  0.65323  0.68803  Biso   1.000  O
  C69      1.0000 0.42467  0.60403  0.70283  Biso   1.000  C
  O70      1.0000 0.57777  0.34293  0.69483  Biso   1.000  O
  C70      1.0000 0.57867  0.39413  0.67693  Biso   1.000  C
  O71      1.0000 0.08983  0.98657  0.02137  Biso   1.000  O
  C71      1.0000 0.09133  0.93737  0.03617  Biso   1.000  C
  O72      1.0000 0.24443  0.67627  0.02817  Biso   1.000  O
  C72      1.0000 0.24533  0.72747  0.01027  Biso   1.000  C
  Zn1      1.0000 0.66667  0.33333  0.33333  Biso   1.000  Zn
  Zn2      1.0000 0.33333  0.66667  0.66667  Biso   1.000  Zn
  Zn3      1.0000 0.00000  0.00000  0.00000  Biso   1.000  Zn
  Zn4      1.0000 0.66667  0.33333  0.39947  Biso   1.000  Zn
  Zn5      1.0000 0.33333  0.66667  0.73280  Biso   1.000  Zn
  Zn6      1.0000 0.00000  0.00000  0.06614  Biso   1.000  Zn
  Zn7      1.0000 0.33333  0.66667  0.60053  Biso   1.000  Zn
  Zn8      1.0000 0.00000  0.00000  0.93386  Biso   1.000  Zn
  Zn9      1.0000 0.66667  0.33333  0.26720  Biso   1.000  Zn
  Zn10     1.0000 0.00000  0.00000  0.31763  Biso   1.000  Zn
  N1       1.0000 0.00000  0.00000  0.10490  Biso   1.000  N
  C73      1.0000 0.00000  0.00000  0.15880  Biso   1.000  C
  C74      1.0000 0.00000  0.00000  0.22810  Biso   1.000  C
  N2       1.0000 0.00000  0.00000  0.28100  Biso   1.000  N
  Zn11     1.0000 0.00000  0.00000  0.38364  Biso   1.000  Zn
  Zn12     1.0000 0.66667  0.33333  0.65096  Biso   1.000  Zn
  N3       1.0000 0.66667  0.33333  0.43823  Biso   1.000  N
  C75      1.0000 0.66667  0.33333  0.49213  Biso   1.000  C
  C76      1.0000 0.66667  0.33333  0.56143  Biso   1.000  C
  N4       1.0000 0.66667  0.33333  0.61433  Biso   1.000  N
  Zn13     1.0000 0.66667  0.33333  0.71697  Biso   1.000  Zn
  Zn14     1.0000 0.33333  0.66667  0.98430  Biso   1.000  Zn
  N5       1.0000 0.33333  0.66667  0.77157  Biso   1.000  N
  C77      1.0000 0.33333  0.66667  0.82547  Biso   1.000  C
  C78      1.0000 0.33333  0.66667  0.89477  Biso   1.000  C
  N6       1.0000 0.33333  0.66667  0.94767  Biso   1.000  N
  Zn15     1.0000 0.33333  0.66667  0.05031  Biso   1.000  Zn
  Zn16     1.0000 0.00000  0.00000  0.68237  Biso   1.000  Zn
  N7       1.0000 0.00000  0.00000  0.89510  Biso   1.000  N
  C79      1.0000 0.00000  0.00000  0.84120  Biso   1.000  C
  C80      1.0000 0.00000  0.00000  0.77190  Biso   1.000  C
  N8       1.0000 0.00000  0.00000  0.71900  Biso   1.000  N
  Zn17     1.0000 0.00000  0.00000  0.61636  Biso   1.000  Zn
  Zn18     1.0000 0.66667  0.33333  0.01570  Biso   1.000  Zn
  N9       1.0000 0.66667  0.33333  0.22843  Biso   1.000  N
  C81      1.0000 0.66667  0.33333  0.17453  Biso   1.000  C
  C82      1.0000 0.66667  0.33333  0.10523  Biso   1.000  C
  N10      1.0000 0.66667  0.33333  0.05233  Biso   1.000  N
  Zn19     1.0000 0.66667  0.33333  0.94969  Biso   1.000  Zn
  Zn20     1.0000 0.33333  0.66667  0.34904  Biso   1.000  Zn
  N11      1.0000 0.33333  0.66667  0.56177  Biso   1.000  N
  C83      1.0000 0.33333  0.66667  0.50787  Biso   1.000  C
  C84      1.0000 0.33333  0.66667  0.43857  Biso   1.000  C
  N12      1.0000 0.33333  0.66667  0.38567  Biso   1.000  N
  Zn21     1.0000 0.33333  0.66667  0.28303  Biso   1.000  Zn
  O73      1.0000 0.93965  0.87930  0.32390  Biso   1.000  O
  O74      1.0000 0.72945  0.45890  0.39190  Biso   1.000  O
  C85      1.0000 0.87835  0.75670  0.35060  Biso   1.000  C
  C86      1.0000 0.86780  0.73560  0.37580  Biso   1.000  C
  H1       1.0000 0.88960  0.77920  0.38790  Biso   1.000  H
  C87      1.0000 0.82470  0.64940  0.38310  Biso   1.000  C
  C88      1.0000 0.79225  0.58450  0.36620  Biso   1.000  C
  C89      1.0000 0.80160  0.60320  0.34050  Biso   1.000  C
  H2       1.0000 0.77945  0.55890  0.32860  Biso   1.000  H
  C90      1.0000 0.84460  0.68920  0.33330  Biso   1.000  C
  O75      1.0000 0.81155  0.62310  0.40820  Biso   1.000  O
  O76      1.0000 0.85700  0.71400  0.30760  Biso   1.000  O
  O77      1.0000 0.60632  0.21263  0.65723  Biso   1.000  O
  O78      1.0000 0.39612  0.79223  0.72523  Biso   1.000  O
  C91      1.0000 0.54502  0.09003  0.68393  Biso   1.000  C
  C92      1.0000 0.53447  0.06893  0.70913  Biso   1.000  C
  H3       1.0000 0.55627  0.11253  0.72123  Biso   1.000  H
  C93      1.0000 0.49137  0.98273  0.71643  Biso   1.000  C
  C94      1.0000 0.45892  0.91783  0.69953  Biso   1.000  C
  C95      1.0000 0.46827  0.93653  0.67383  Biso   1.000  C
  H4       1.0000 0.44612  0.89223  0.66193  Biso   1.000  H
  C96      1.0000 0.51127  0.02253  0.66663  Biso   1.000  C
  O79      1.0000 0.47822  0.95643  0.74153  Biso   1.000  O
  O80      1.0000 0.52367  0.04733  0.64093  Biso   1.000  O
  O81      1.0000 0.27298  0.54597  0.99057  Biso   1.000  O
  O82      1.0000 0.06278  0.12557  0.05857  Biso   1.000  O
  C97      1.0000 0.21168  0.42337  0.01727  Biso   1.000  C
  C98      1.0000 0.20113  0.40227  0.04247  Biso   1.000  C
  H5       1.0000 0.22293  0.44587  0.05457  Biso   1.000  H
  C99      1.0000 0.15803  0.31607  0.04977  Biso   1.000  C
  C100     1.0000 0.12558  0.25117  0.03287  Biso   1.000  C
  C101     1.0000 0.13493  0.26987  0.00717  Biso   1.000  C
  H6       1.0000 0.11278  0.22557  0.99527  Biso   1.000  H
  C102     1.0000 0.17793  0.35587  0.99997  Biso   1.000  C
  O83      1.0000 0.14488  0.28977  0.07487  Biso   1.000  O
  O84      1.0000 0.19033  0.38067  0.97427  Biso   1.000  O
  O85      1.0000 0.12070  0.06035  0.32390  Biso   1.000  O
  O86      1.0000 0.54110  0.27055  0.39190  Biso   1.000  O
  C103     1.0000 0.24330  0.12165  0.35060  Biso   1.000  C
  C104     1.0000 0.26440  0.13220  0.37580  Biso   1.000  C
  H7       1.0000 0.22080  0.11040  0.38790  Biso   1.000  H
  C105     1.0000 0.35060  0.17530  0.38310  Biso   1.000  C
  C106     1.0000 0.41550  0.20775  0.36620  Biso   1.000  C
  C107     1.0000 0.39680  0.19840  0.34050  Biso   1.000  C
  H8       1.0000 0.44110  0.22055  0.32860  Biso   1.000  H
  C108     1.0000 0.31080  0.15540  0.33330  Biso   1.000  C
  O87      1.0000 0.37690  0.18845  0.40820  Biso   1.000  O
  O88      1.0000 0.28600  0.14300  0.30760  Biso   1.000  O
  O89      1.0000 0.78737  0.39368  0.65723  Biso   1.000  O
  O90      1.0000 0.20777  0.60388  0.72523  Biso   1.000  O
  C109     1.0000 0.90997  0.45498  0.68393  Biso   1.000  C
  C110     1.0000 0.93107  0.46553  0.70913  Biso   1.000  C
  H9       1.0000 0.88747  0.44373  0.72123  Biso   1.000  H
  C111     1.0000 0.01727  0.50863  0.71643  Biso   1.000  C
  C112     1.0000 0.08217  0.54108  0.69953  Biso   1.000  C
  C113     1.0000 0.06347  0.53173  0.67383  Biso   1.000  C
  H10      1.0000 0.10777  0.55388  0.66193  Biso   1.000  H
  C114     1.0000 0.97747  0.48873  0.66663  Biso   1.000  C
  O91      1.0000 0.04357  0.52178  0.74153  Biso   1.000  O
  O92      1.0000 0.95267  0.47633  0.64093  Biso   1.000  O
  O93      1.0000 0.45403  0.72702  0.99057  Biso   1.000  O
  O94      1.0000 0.87443  0.93722  0.05857  Biso   1.000  O
  C115     1.0000 0.57663  0.78832  0.01727  Biso   1.000  C
  C116     1.0000 0.59773  0.79887  0.04247  Biso   1.000  C
  H11      1.0000 0.55413  0.77707  0.05457  Biso   1.000  H
  C117     1.0000 0.68393  0.84197  0.04977  Biso   1.000  C
  C118     1.0000 0.74883  0.87442  0.03287  Biso   1.000  C
  C119     1.0000 0.73013  0.86507  0.00717  Biso   1.000  C
  H12      1.0000 0.77443  0.88722  0.99527  Biso   1.000  H
  C120     1.0000 0.64413  0.82207  0.99997  Biso   1.000  C
  O95      1.0000 0.71023  0.85512  0.07487  Biso   1.000  O
  O96      1.0000 0.61933  0.80967  0.97427  Biso   1.000  O
  O97      1.0000 0.93965  0.06035  0.32390  Biso   1.000  O
  O98      1.0000 0.72945  0.27055  0.39190  Biso   1.000  O
  C121     1.0000 0.87835  0.12165  0.35060  Biso   1.000  C
  C122     1.0000 0.86780  0.13220  0.37580  Biso   1.000  C
  H13      1.0000 0.88960  0.11040  0.38790  Biso   1.000  H
  C123     1.0000 0.82470  0.17530  0.38310  Biso   1.000  C
  C124     1.0000 0.79225  0.20775  0.36620  Biso   1.000  C
  C125     1.0000 0.80160  0.19840  0.34050  Biso   1.000  C
  H14      1.0000 0.77945  0.22055  0.32860  Biso   1.000  H
  C126     1.0000 0.84460  0.15540  0.33330  Biso   1.000  C
  O99      1.0000 0.81155  0.18845  0.40820  Biso   1.000  O
  O100     1.0000 0.85700  0.14300  0.30760  Biso   1.000  O
  O101     1.0000 0.60632  0.39368  0.65723  Biso   1.000  O
  O102     1.0000 0.39612  0.60388  0.72523  Biso   1.000  O
  C127     1.0000 0.54502  0.45498  0.68393  Biso   1.000  C
  C128     1.0000 0.53447  0.46553  0.70913  Biso   1.000  C
  H15      1.0000 0.55627  0.44373  0.72123  Biso   1.000  H
  C129     1.0000 0.49137  0.50863  0.71643  Biso   1.000  C
  C130     1.0000 0.45892  0.54108  0.69953  Biso   1.000  C
  C131     1.0000 0.46827  0.53173  0.67383  Biso   1.000  C
  H16      1.0000 0.44612  0.55388  0.66193  Biso   1.000  H
  C132     1.0000 0.51127  0.48873  0.66663  Biso   1.000  C
  O103     1.0000 0.47822  0.52178  0.74153  Biso   1.000  O
  O104     1.0000 0.52367  0.47633  0.64093  Biso   1.000  O
  O105     1.0000 0.27298  0.72702  0.99057  Biso   1.000  O
  O106     1.0000 0.06278  0.93722  0.05857  Biso   1.000  O
  C133     1.0000 0.21168  0.78832  0.01727  Biso   1.000  C
  C134     1.0000 0.20113  0.79887  0.04247  Biso   1.000  C
  H17      1.0000 0.22293  0.77707  0.05457  Biso   1.000  H
  C135     1.0000 0.15803  0.84197  0.04977  Biso   1.000  C
  C136     1.0000 0.12558  0.87442  0.03287  Biso   1.000  C
  C137     1.0000 0.13493  0.86507  0.00717  Biso   1.000  C
  H18      1.0000 0.11278  0.88722  0.99527  Biso   1.000  H
  C138     1.0000 0.17793  0.82207  0.99997  Biso   1.000  C
  O107     1.0000 0.14488  0.85512  0.07487  Biso   1.000  O
  O108     1.0000 0.19033  0.80967  0.97427  Biso   1.000  O
  O109     1.0000 0.87930  0.93965  0.67610  Biso   1.000  O
  O110     1.0000 0.45890  0.72945  0.60810  Biso   1.000  O
  C139     1.0000 0.75670  0.87835  0.64940  Biso   1.000  C
  C140     1.0000 0.73560  0.86780  0.62420  Biso   1.000  C
  H19      1.0000 0.77920  0.88960  0.61210  Biso   1.000  H
  C141     1.0000 0.64940  0.82470  0.61690  Biso   1.000  C
  C142     1.0000 0.58450  0.79225  0.63380  Biso   1.000  C
  C143     1.0000 0.60320  0.80160  0.65950  Biso   1.000  C
  H20      1.0000 0.55890  0.77945  0.67140  Biso   1.000  H
  C144     1.0000 0.68920  0.84460  0.66670  Biso   1.000  C
  O111     1.0000 0.62310  0.81155  0.59180  Biso   1.000  O
  O112     1.0000 0.71400  0.85700  0.69240  Biso   1.000  O
  O113     1.0000 0.54597  0.27298  0.00943  Biso   1.000  O
  O114     1.0000 0.12557  0.06278  0.94143  Biso   1.000  O
  C145     1.0000 0.42337  0.21168  0.98273  Biso   1.000  C
  C146     1.0000 0.40227  0.20113  0.95753  Biso   1.000  C
  H21      1.0000 0.44587  0.22293  0.94543  Biso   1.000  H
  C147     1.0000 0.31607  0.15803  0.95023  Biso   1.000  C
  C148     1.0000 0.25117  0.12558  0.96713  Biso   1.000  C
  C149     1.0000 0.26987  0.13493  0.99283  Biso   1.000  C
  H22      1.0000 0.22557  0.11278  0.00473  Biso   1.000  H
  C150     1.0000 0.35587  0.17793  0.00003  Biso   1.000  C
  O115     1.0000 0.28977  0.14488  0.92513  Biso   1.000  O
  O116     1.0000 0.38067  0.19033  0.02573  Biso   1.000  O
  O117     1.0000 0.21263  0.60632  0.34277  Biso   1.000  O
  O118     1.0000 0.79223  0.39612  0.27477  Biso   1.000  O
  C151     1.0000 0.09003  0.54502  0.31607  Biso   1.000  C
  C152     1.0000 0.06893  0.53447  0.29087  Biso   1.000  C
  H23      1.0000 0.11253  0.55627  0.27877  Biso   1.000  H
  C153     1.0000 0.98273  0.49137  0.28357  Biso   1.000  C
  C154     1.0000 0.91783  0.45892  0.30047  Biso   1.000  C
  C155     1.0000 0.93653  0.46827  0.32617  Biso   1.000  C
  H24      1.0000 0.89223  0.44612  0.33807  Biso   1.000  H
  C156     1.0000 0.02253  0.51127  0.33337  Biso   1.000  C
  O119     1.0000 0.95643  0.47822  0.25847  Biso   1.000  O
  O120     1.0000 0.04733  0.52367  0.35907  Biso   1.000  O
  O121     1.0000 0.06035  0.12070  0.67610  Biso   1.000  O
  O122     1.0000 0.27055  0.54110  0.60810  Biso   1.000  O
  C157     1.0000 0.12165  0.24330  0.64940  Biso   1.000  C
  C158     1.0000 0.13220  0.26440  0.62420  Biso   1.000  C
  H25      1.0000 0.11040  0.22080  0.61210  Biso   1.000  H
  C159     1.0000 0.17530  0.35060  0.61690  Biso   1.000  C
  C160     1.0000 0.20775  0.41550  0.63380  Biso   1.000  C
  C161     1.0000 0.19840  0.39680  0.65950  Biso   1.000  C
  H26      1.0000 0.22055  0.44110  0.67140  Biso   1.000  H
  C162     1.0000 0.15540  0.31080  0.66670  Biso   1.000  C
  O123     1.0000 0.18845  0.37690  0.59180  Biso   1.000  O
  O124     1.0000 0.14300  0.28600  0.69240  Biso   1.000  O
  O125     1.0000 0.72702  0.45403  0.00943  Biso   1.000  O
  O126     1.0000 0.93722  0.87443  0.94143  Biso   1.000  O
  C163     1.0000 0.78832  0.57663  0.98273  Biso   1.000  C
  C164     1.0000 0.79887  0.59773  0.95753  Biso   1.000  C
  H27      1.0000 0.77707  0.55413  0.94543  Biso   1.000  H
  C165     1.0000 0.84197  0.68393  0.95023  Biso   1.000  C
  C166     1.0000 0.87442  0.74883  0.96713  Biso   1.000  C
  C167     1.0000 0.86507  0.73013  0.99283  Biso   1.000  C
  H28      1.0000 0.88722  0.77443  0.00473  Biso   1.000  H
  C168     1.0000 0.82207  0.64413  0.00003  Biso   1.000  C
  O127     1.0000 0.85512  0.71023  0.92513  Biso   1.000  O
  O128     1.0000 0.80967  0.61933  0.02573  Biso   1.000  O
  O129     1.0000 0.39368  0.78737  0.34277  Biso   1.000  O
  O130     1.0000 0.60388  0.20777  0.27477  Biso   1.000  O
  C169     1.0000 0.45498  0.90997  0.31607  Biso   1.000  C
  C170     1.0000 0.46553  0.93107  0.29087  Biso   1.000  C
  H29      1.0000 0.44373  0.88747  0.27877  Biso   1.000  H
  C171     1.0000 0.50863  0.01727  0.28357  Biso   1.000  C
  C172     1.0000 0.54108  0.08217  0.30047  Biso   1.000  C
  C173     1.0000 0.53173  0.06347  0.32617  Biso   1.000  C
  H30      1.0000 0.55388  0.10777  0.33807  Biso   1.000  H
  C174     1.0000 0.48873  0.97747  0.33337  Biso   1.000  C
  O131     1.0000 0.52178  0.04357  0.25847  Biso   1.000  O
  O132     1.0000 0.47633  0.95267  0.35907  Biso   1.000  O
  O133     1.0000 0.06035  0.93965  0.67610  Biso   1.000  O
  O134     1.0000 0.27055  0.72945  0.60810  Biso   1.000  O
  C175     1.0000 0.12165  0.87835  0.64940  Biso   1.000  C
  C176     1.0000 0.13220  0.86780  0.62420  Biso   1.000  C
  H31      1.0000 0.11040  0.88960  0.61210  Biso   1.000  H
  C177     1.0000 0.17530  0.82470  0.61690  Biso   1.000  C
  C178     1.0000 0.20775  0.79225  0.63380  Biso   1.000  C
  C179     1.0000 0.19840  0.80160  0.65950  Biso   1.000  C
  H32      1.0000 0.22055  0.77945  0.67140  Biso   1.000  H
  C180     1.0000 0.15540  0.84460  0.66670  Biso   1.000  C
  O135     1.0000 0.18845  0.81155  0.59180  Biso   1.000  O
  O136     1.0000 0.14300  0.85700  0.69240  Biso   1.000  O
  O137     1.0000 0.72702  0.27298  0.00943  Biso   1.000  O
  O138     1.0000 0.93722  0.06278  0.94143  Biso   1.000  O
  C181     1.0000 0.78832  0.21168  0.98273  Biso   1.000  C
  C182     1.0000 0.79887  0.20113  0.95753  Biso   1.000  C
  H33      1.0000 0.77707  0.22293  0.94543  Biso   1.000  H
  C183     1.0000 0.84197  0.15803  0.95023  Biso   1.000  C
  C184     1.0000 0.87442  0.12558  0.96713  Biso   1.000  C
  C185     1.0000 0.86507  0.13493  0.99283  Biso   1.000  C
  H34      1.0000 0.88722  0.11278  0.00473  Biso   1.000  H
  C186     1.0000 0.82207  0.17793  0.00003  Biso   1.000  C
  O139     1.0000 0.85512  0.14488  0.92513  Biso   1.000  O
  O140     1.0000 0.80967  0.19033  0.02573  Biso   1.000  O
  O141     1.0000 0.39368  0.60632  0.34277  Biso   1.000  O
  O142     1.0000 0.60388  0.39612  0.27477  Biso   1.000  O
  C187     1.0000 0.45498  0.54502  0.31607  Biso   1.000  C
  C188     1.0000 0.46553  0.53447  0.29087  Biso   1.000  C
  H35      1.0000 0.44373  0.55627  0.27877  Biso   1.000  H
  C189     1.0000 0.50863  0.49137  0.28357  Biso   1.000  C
  C190     1.0000 0.54108  0.45892  0.30047  Biso   1.000  C
  C191     1.0000 0.53173  0.46827  0.32617  Biso   1.000  C
  H36      1.0000 0.55388  0.44612  0.33807  Biso   1.000  H
  C192     1.0000 0.48873  0.51127  0.33337  Biso   1.000  C
  O143     1.0000 0.52178  0.47822  0.25847  Biso   1.000  O
  O144     1.0000 0.47633  0.52367  0.35907  Biso   1.000  O
  C193     1.0000 0.03640  0.96360  0.11910  Biso   1.000  C
  C194     1.0000 0.03660  0.96340  0.14460  Biso   1.000  C
  C195     1.0000 0.96350  0.03650  0.11910  Biso   1.000  C
  C196     1.0000 0.96380  0.03620  0.14470  Biso   1.000  C
  C197     1.0000 0.70307  0.29693  0.45243  Biso   1.000  C
  C198     1.0000 0.70327  0.29673  0.47793  Biso   1.000  C
  C199     1.0000 0.63017  0.36983  0.45243  Biso   1.000  C
  C200     1.0000 0.63047  0.36953  0.47803  Biso   1.000  C
  C201     1.0000 0.36973  0.63027  0.78577  Biso   1.000  C
  C202     1.0000 0.36993  0.63007  0.81127  Biso   1.000  C
  C203     1.0000 0.29683  0.70317  0.78577  Biso   1.000  C
  C204     1.0000 0.29713  0.70287  0.81137  Biso   1.000  C
  C205     1.0000 0.03640  0.07280  0.11910  Biso   1.000  C
  C206     1.0000 0.03660  0.07320  0.14460  Biso   1.000  C
  C207     1.0000 0.96350  0.92700  0.11910  Biso   1.000  C
  C208     1.0000 0.96380  0.92760  0.14470  Biso   1.000  C
  C209     1.0000 0.70307  0.40613  0.45243  Biso   1.000  C
  C210     1.0000 0.70327  0.40653  0.47793  Biso   1.000  C
  C211     1.0000 0.63017  0.26033  0.45243  Biso   1.000  C
  C212     1.0000 0.63047  0.26093  0.47803  Biso   1.000  C
  C213     1.0000 0.36973  0.73947  0.78577  Biso   1.000  C
  C214     1.0000 0.36993  0.73987  0.81127  Biso   1.000  C
  C215     1.0000 0.29683  0.59367  0.78577  Biso   1.000  C
  C216     1.0000 0.29713  0.59427  0.81137  Biso   1.000  C
  C217     1.0000 0.92720  0.96360  0.11910  Biso   1.000  C
  C218     1.0000 0.92680  0.96340  0.14460  Biso   1.000  C
  C219     1.0000 0.07300  0.03650  0.11910  Biso   1.000  C
  C220     1.0000 0.07240  0.03620  0.14470  Biso   1.000  C
  C221     1.0000 0.59387  0.29693  0.45243  Biso   1.000  C
  C222     1.0000 0.59347  0.29673  0.47793  Biso   1.000  C
  C223     1.0000 0.73967  0.36983  0.45243  Biso   1.000  C
  C224     1.0000 0.73907  0.36953  0.47803  Biso   1.000  C
  C225     1.0000 0.26053  0.63027  0.78577  Biso   1.000  C
  C226     1.0000 0.26013  0.63007  0.81127  Biso   1.000  C
  C227     1.0000 0.40633  0.70317  0.78577  Biso   1.000  C
  C228     1.0000 0.40573  0.70287  0.81137  Biso   1.000  C
  C229     1.0000 0.96360  0.03640  0.88090  Biso   1.000  C
  C230     1.0000 0.96340  0.03660  0.85540  Biso   1.000  C
  C231     1.0000 0.03650  0.96350  0.88090  Biso   1.000  C
  C232     1.0000 0.03620  0.96380  0.85530  Biso   1.000  C
  C233     1.0000 0.63027  0.36973  0.21423  Biso   1.000  C
  C234     1.0000 0.63007  0.36993  0.18873  Biso   1.000  C
  C235     1.0000 0.70317  0.29683  0.21423  Biso   1.000  C
  C236     1.0000 0.70287  0.29713  0.18863  Biso   1.000  C
  C237     1.0000 0.29693  0.70307  0.54757  Biso   1.000  C
  C238     1.0000 0.29673  0.70327  0.52207  Biso   1.000  C
  C239     1.0000 0.36983  0.63017  0.54757  Biso   1.000  C
  C240     1.0000 0.36953  0.63047  0.52197  Biso   1.000  C
  C241     1.0000 0.07280  0.03640  0.88090  Biso   1.000  C
  C242     1.0000 0.07320  0.03660  0.85540  Biso   1.000  C
  C243     1.0000 0.92700  0.96350  0.88090  Biso   1.000  C
  C244     1.0000 0.92760  0.96380  0.85530  Biso   1.000  C
  C245     1.0000 0.73947  0.36973  0.21423  Biso   1.000  C
  C246     1.0000 0.73987  0.36993  0.18873  Biso   1.000  C
  C247     1.0000 0.59367  0.29683  0.21423  Biso   1.000  C
  C248     1.0000 0.59427  0.29713  0.18863  Biso   1.000  C
  C249     1.0000 0.40613  0.70307  0.54757  Biso   1.000  C
  C250     1.0000 0.40653  0.70327  0.52207  Biso   1.000  C
  C251     1.0000 0.26033  0.63017  0.54757  Biso   1.000  C
  C252     1.0000 0.26093  0.63047  0.52197  Biso   1.000  C
  C253     1.0000 0.96360  0.92720  0.88090  Biso   1.000  C
  C254     1.0000 0.96340  0.92680  0.85540  Biso   1.000  C
  C255     1.0000 0.03650  0.07300  0.88090  Biso   1.000  C
  C256     1.0000 0.03620  0.07240  0.85530  Biso   1.000  C
  C257     1.0000 0.63027  0.26053  0.21423  Biso   1.000  C
  C258     1.0000 0.63007  0.26013  0.18873  Biso   1.000  C
  C259     1.0000 0.70317  0.40633  0.21423  Biso   1.000  C
  C260     1.0000 0.70287  0.40573  0.18863  Biso   1.000  C
  C261     1.0000 0.29693  0.59387  0.54757  Biso   1.000  C
  C262     1.0000 0.29673  0.59347  0.52207  Biso   1.000  C
  C263     1.0000 0.36983  0.73967  0.54757  Biso   1.000  C
  C264     1.0000 0.36953  0.73907  0.52197  Biso   1.000  C
  C265     1.0000 0.03800  0.01900  0.18280  Biso   1.000  C
  C266     1.0000 0.97630  0.98815  0.20180  Biso   1.000  C
  C267     1.0000 0.07560  0.03780  0.24150  Biso   1.000  C
  C268     1.0000 0.07410  0.03705  0.26730  Biso   1.000  C
  C269     1.0000 0.92600  0.96300  0.26750  Biso   1.000  C
  C270     1.0000 0.92440  0.96220  0.24190  Biso   1.000  C
  C271     1.0000 0.70467  0.35233  0.51613  Biso   1.000  C
  C272     1.0000 0.64297  0.32148  0.53513  Biso   1.000  C
  C273     1.0000 0.74227  0.37113  0.57483  Biso   1.000  C
  C274     1.0000 0.74077  0.37038  0.60063  Biso   1.000  C
  C275     1.0000 0.59267  0.29633  0.60083  Biso   1.000  C
  C276     1.0000 0.59107  0.29553  0.57523  Biso   1.000  C
  C277     1.0000 0.37133  0.68567  0.84947  Biso   1.000  C
  C278     1.0000 0.30963  0.65482  0.86847  Biso   1.000  C
  C279     1.0000 0.40893  0.70447  0.90817  Biso   1.000  C
  C280     1.0000 0.40743  0.70372  0.93397  Biso   1.000  C
  C281     1.0000 0.25933  0.62967  0.93417  Biso   1.000  C
  C282     1.0000 0.25773  0.62887  0.90857  Biso   1.000  C
  C283     1.0000 0.98100  0.01900  0.18280  Biso   1.000  C
  C284     1.0000 0.01185  0.98815  0.20180  Biso   1.000  C
  C285     1.0000 0.96220  0.03780  0.24150  Biso   1.000  C
  C286     1.0000 0.96295  0.03705  0.26730  Biso   1.000  C
  C287     1.0000 0.03700  0.96300  0.26750  Biso   1.000  C
  C288     1.0000 0.03780  0.96220  0.24190  Biso   1.000  C
  C289     1.0000 0.64767  0.35233  0.51613  Biso   1.000  C
  C290     1.0000 0.67852  0.32148  0.53513  Biso   1.000  C
  C291     1.0000 0.62887  0.37113  0.57483  Biso   1.000  C
  C292     1.0000 0.62962  0.37038  0.60063  Biso   1.000  C
  C293     1.0000 0.70367  0.29633  0.60083  Biso   1.000  C
  C294     1.0000 0.70447  0.29553  0.57523  Biso   1.000  C
  C295     1.0000 0.31433  0.68567  0.84947  Biso   1.000  C
  C296     1.0000 0.34518  0.65482  0.86847  Biso   1.000  C
  C297     1.0000 0.29553  0.70447  0.90817  Biso   1.000  C
  C298     1.0000 0.29628  0.70372  0.93397  Biso   1.000  C
  C299     1.0000 0.37033  0.62967  0.93417  Biso   1.000  C
  C300     1.0000 0.37113  0.62887  0.90857  Biso   1.000  C
  C301     1.0000 0.98100  0.96200  0.18280  Biso   1.000  C
  C302     1.0000 0.01185  0.02370  0.20180  Biso   1.000  C
  C303     1.0000 0.96220  0.92440  0.24150  Biso   1.000  C
  C304     1.0000 0.96295  0.92590  0.26730  Biso   1.000  C
  C305     1.0000 0.03700  0.07400  0.26750  Biso   1.000  C
  C306     1.0000 0.03780  0.07560  0.24190  Biso   1.000  C
  C307     1.0000 0.64767  0.29533  0.51613  Biso   1.000  C
  C308     1.0000 0.67852  0.35703  0.53513  Biso   1.000  C
  C309     1.0000 0.62887  0.25773  0.57483  Biso   1.000  C
  C310     1.0000 0.62962  0.25923  0.60063  Biso   1.000  C
  C311     1.0000 0.70367  0.40733  0.60083  Biso   1.000  C
  C312     1.0000 0.70447  0.40893  0.57523  Biso   1.000  C
  C313     1.0000 0.31433  0.62867  0.84947  Biso   1.000  C
  C314     1.0000 0.34518  0.69037  0.86847  Biso   1.000  C
  C315     1.0000 0.29553  0.59107  0.90817  Biso   1.000  C
  C316     1.0000 0.29628  0.59257  0.93397  Biso   1.000  C
  C317     1.0000 0.37033  0.74067  0.93417  Biso   1.000  C
  C318     1.0000 0.37113  0.74227  0.90857  Biso   1.000  C
  C319     1.0000 0.01900  0.03800  0.81720  Biso   1.000  C
  C320     1.0000 0.98815  0.97630  0.79820  Biso   1.000  C
  C321     1.0000 0.03780  0.07560  0.75850  Biso   1.000  C
  C322     1.0000 0.03705  0.07410  0.73270  Biso   1.000  C
  C323     1.0000 0.96300  0.92600  0.73250  Biso   1.000  C
  C324     1.0000 0.96220  0.92440  0.75810  Biso   1.000  C
  C325     1.0000 0.68567  0.37133  0.15053  Biso   1.000  C
  C326     1.0000 0.65482  0.30963  0.13153  Biso   1.000  C
  C327     1.0000 0.70447  0.40893  0.09183  Biso   1.000  C
  C328     1.0000 0.70372  0.40743  0.06603  Biso   1.000  C
  C329     1.0000 0.62967  0.25933  0.06583  Biso   1.000  C
  C330     1.0000 0.62887  0.25773  0.09143  Biso   1.000  C
  C331     1.0000 0.35233  0.70467  0.48387  Biso   1.000  C
  C332     1.0000 0.32148  0.64297  0.46487  Biso   1.000  C
  C333     1.0000 0.37113  0.74227  0.42517  Biso   1.000  C
  C334     1.0000 0.37038  0.74077  0.39937  Biso   1.000  C
  C335     1.0000 0.29633  0.59267  0.39917  Biso   1.000  C
  C336     1.0000 0.29553  0.59107  0.42477  Biso   1.000  C
  C337     1.0000 0.01900  0.98100  0.81720  Biso   1.000  C
  C338     1.0000 0.98815  0.01185  0.79820  Biso   1.000  C
  C339     1.0000 0.03780  0.96220  0.75850  Biso   1.000  C
  C340     1.0000 0.03705  0.96295  0.73270  Biso   1.000  C
  C341     1.0000 0.96300  0.03700  0.73250  Biso   1.000  C
  C342     1.0000 0.96220  0.03780  0.75810  Biso   1.000  C
  C343     1.0000 0.68567  0.31433  0.15053  Biso   1.000  C
  C344     1.0000 0.65482  0.34518  0.13153  Biso   1.000  C
  C345     1.0000 0.70447  0.29553  0.09183  Biso   1.000  C
  C346     1.0000 0.70372  0.29628  0.06603  Biso   1.000  C
  C347     1.0000 0.62967  0.37033  0.06583  Biso   1.000  C
  C348     1.0000 0.62887  0.37113  0.09143  Biso   1.000  C
  C349     1.0000 0.35233  0.64767  0.48387  Biso   1.000  C
  C350     1.0000 0.32148  0.67852  0.46487  Biso   1.000  C
  C351     1.0000 0.37113  0.62887  0.42517  Biso   1.000  C
  C352     1.0000 0.37038  0.62962  0.39937  Biso   1.000  C
  C353     1.0000 0.29633  0.70367  0.39917  Biso   1.000  C
  C354     1.0000 0.29553  0.70447  0.42477  Biso   1.000  C
  C355     1.0000 0.96200  0.98100  0.81720  Biso   1.000  C
  C356     1.0000 0.02370  0.01185  0.79820  Biso   1.000  C
  C357     1.0000 0.92440  0.96220  0.75850  Biso   1.000  C
  C358     1.0000 0.92590  0.96295  0.73270  Biso   1.000  C
  C359     1.0000 0.07400  0.03700  0.73250  Biso   1.000  C
  C360     1.0000 0.07560  0.03780  0.75810  Biso   1.000  C
  C361     1.0000 0.62867  0.31433  0.15053  Biso   1.000  C
  C362     1.0000 0.69037  0.34518  0.13153  Biso   1.000  C
  C363     1.0000 0.59107  0.29553  0.09183  Biso   1.000  C
  C364     1.0000 0.59257  0.29628  0.06603  Biso   1.000  C
  C365     1.0000 0.74067  0.37033  0.06583  Biso   1.000  C
  C366     1.0000 0.74227  0.37113  0.09143  Biso   1.000  C
  C367     1.0000 0.29533  0.64767  0.48387  Biso   1.000  C
  C368     1.0000 0.35703  0.67852  0.46487  Biso   1.000  C
  C369     1.0000 0.25773  0.62887  0.42517  Biso   1.000  C
  C370     1.0000 0.25923  0.62962  0.39937  Biso   1.000  C
  C371     1.0000 0.40733  0.70367  0.39917  Biso   1.000  C
  C372     1.0000 0.40893  0.70447  0.42477  Biso   1.000  C
