data_image0
_cell_length_a       32.032
_cell_length_b       32.032
_cell_length_c       16.7024
_cell_angle_alpha    90
_cell_angle_beta     90
_cell_angle_gamma    120

_symmetry_space_group_name_H-M    "P 1"
_symmetry_int_tables_number       1

loop_
  _symmetry_equiv_pos_as_xyz
  'x, y, z'

loop_
  _atom_site_label
  _atom_site_occupancy
  _atom_site_fract_x
  _atom_site_fract_y
  _atom_site_fract_z
  _atom_site_thermal_displace_type
  _atom_site_B_iso_or_equiv
  _atom_site_type_symbol
  O1       1.0000 0.65920  0.25020  0.91280  Biso   1.000  O
  C1       1.0000 0.53480  0.14320  0.73820  Biso   1.000  C
  H1       1.0000 0.50370  0.13140  0.71870  Biso   1.000  H
  C2       1.0000 0.55220  0.17790  0.79690  Biso   1.000  C
  H2       1.0000 0.53240  0.18880  0.81790  Biso   1.000  H
  O2       1.0000 0.74980  0.40900  0.91280  Biso   1.000  O
  C3       1.0000 0.85680  0.39160  0.73820  Biso   1.000  C
  H3       1.0000 0.86860  0.37230  0.71870  Biso   1.000  H
  C4       1.0000 0.82210  0.37430  0.79690  Biso   1.000  C
  H4       1.0000 0.81120  0.34360  0.81790  Biso   1.000  H
  O3       1.0000 0.59100  0.34080  0.91280  Biso   1.000  O
  C5       1.0000 0.60840  0.46520  0.73820  Biso   1.000  C
  H5       1.0000 0.62770  0.49630  0.71870  Biso   1.000  H
  C6       1.0000 0.62570  0.44780  0.79690  Biso   1.000  C
  H6       1.0000 0.65640  0.46760  0.81790  Biso   1.000  H
  O4       1.0000 0.34080  0.74980  0.91280  Biso   1.000  O
  C7       1.0000 0.46520  0.85680  0.73820  Biso   1.000  C
  H7       1.0000 0.49630  0.86860  0.71870  Biso   1.000  H
  C8       1.0000 0.44780  0.82210  0.79690  Biso   1.000  C
  H8       1.0000 0.46760  0.81120  0.81790  Biso   1.000  H
  O5       1.0000 0.25020  0.59100  0.91280  Biso   1.000  O
  C9       1.0000 0.14320  0.60840  0.73820  Biso   1.000  C
  H9       1.0000 0.13140  0.62770  0.71870  Biso   1.000  H
  C10      1.0000 0.17790  0.62570  0.79690  Biso   1.000  C
  H10      1.0000 0.18880  0.65640  0.81790  Biso   1.000  H
  O6       1.0000 0.40900  0.65920  0.91280  Biso   1.000  O
  C11      1.0000 0.39160  0.53480  0.73820  Biso   1.000  C
  H11      1.0000 0.37230  0.50370  0.71870  Biso   1.000  H
  C12      1.0000 0.37430  0.55220  0.79690  Biso   1.000  C
  H12      1.0000 0.34360  0.53240  0.81790  Biso   1.000  H
  O7       1.0000 0.25020  0.65920  0.08720  Biso   1.000  O
  C13      1.0000 0.14320  0.53480  0.26180  Biso   1.000  C
  H13      1.0000 0.13140  0.50370  0.28130  Biso   1.000  H
  C14      1.0000 0.17790  0.55220  0.20310  Biso   1.000  C
  H14      1.0000 0.18880  0.53240  0.18210  Biso   1.000  H
  O8       1.0000 0.40900  0.74980  0.08720  Biso   1.000  O
  C15      1.0000 0.39160  0.85680  0.26180  Biso   1.000  C
  H15      1.0000 0.37230  0.86860  0.28130  Biso   1.000  H
  C16      1.0000 0.37430  0.82210  0.20310  Biso   1.000  C
  H16      1.0000 0.34360  0.81120  0.18210  Biso   1.000  H
  O9       1.0000 0.34080  0.59100  0.08720  Biso   1.000  O
  C17      1.0000 0.46520  0.60840  0.26180  Biso   1.000  C
  H17      1.0000 0.49630  0.62770  0.28130  Biso   1.000  H
  C18      1.0000 0.44780  0.62570  0.20310  Biso   1.000  C
  H18      1.0000 0.46760  0.65640  0.18210  Biso   1.000  H
  O10      1.0000 0.74980  0.34080  0.08720  Biso   1.000  O
  C19      1.0000 0.85680  0.46520  0.26180  Biso   1.000  C
  H19      1.0000 0.86860  0.49630  0.28130  Biso   1.000  H
  C20      1.0000 0.82210  0.44780  0.20310  Biso   1.000  C
  H20      1.0000 0.81120  0.46760  0.18210  Biso   1.000  H
  O11      1.0000 0.59100  0.25020  0.08720  Biso   1.000  O
  C21      1.0000 0.60840  0.14320  0.26180  Biso   1.000  C
  H21      1.0000 0.62770  0.13140  0.28130  Biso   1.000  H
  C22      1.0000 0.62570  0.17790  0.20310  Biso   1.000  C
  H22      1.0000 0.65640  0.18880  0.18210  Biso   1.000  H
  O12      1.0000 0.65920  0.40900  0.08720  Biso   1.000  O
  C23      1.0000 0.53480  0.39160  0.26180  Biso   1.000  C
  H23      1.0000 0.50370  0.37230  0.28130  Biso   1.000  H
  C24      1.0000 0.55220  0.37430  0.20310  Biso   1.000  C
  H24      1.0000 0.53240  0.34360  0.18210  Biso   1.000  H
  O13      1.0000 0.34080  0.74980  0.08720  Biso   1.000  O
  C25      1.0000 0.46520  0.85680  0.26180  Biso   1.000  C
  H25      1.0000 0.49630  0.86860  0.28130  Biso   1.000  H
  C26      1.0000 0.44780  0.82210  0.20310  Biso   1.000  C
  H26      1.0000 0.46760  0.81120  0.18210  Biso   1.000  H
  O14      1.0000 0.25020  0.59100  0.08720  Biso   1.000  O
  C27      1.0000 0.14320  0.60840  0.26180  Biso   1.000  C
  H27      1.0000 0.13140  0.62770  0.28130  Biso   1.000  H
  C28      1.0000 0.17790  0.62570  0.20310  Biso   1.000  C
  H28      1.0000 0.18880  0.65640  0.18210  Biso   1.000  H
  O15      1.0000 0.40900  0.65920  0.08720  Biso   1.000  O
  C29      1.0000 0.39160  0.53480  0.26180  Biso   1.000  C
  H29      1.0000 0.37230  0.50370  0.28130  Biso   1.000  H
  C30      1.0000 0.37430  0.55220  0.20310  Biso   1.000  C
  H30      1.0000 0.34360  0.53240  0.18210  Biso   1.000  H
  O16      1.0000 0.65920  0.25020  0.08720  Biso   1.000  O
  C31      1.0000 0.53480  0.14320  0.26180  Biso   1.000  C
  H31      1.0000 0.50370  0.13140  0.28130  Biso   1.000  H
  C32      1.0000 0.55220  0.17790  0.20310  Biso   1.000  C
  H32      1.0000 0.53240  0.18880  0.18210  Biso   1.000  H
  O17      1.0000 0.74980  0.40900  0.08720  Biso   1.000  O
  C33      1.0000 0.85680  0.39160  0.26180  Biso   1.000  C
  H33      1.0000 0.86860  0.37230  0.28130  Biso   1.000  H
  C34      1.0000 0.82210  0.37430  0.20310  Biso   1.000  C
  H34      1.0000 0.81120  0.34360  0.18210  Biso   1.000  H
  O18      1.0000 0.59100  0.34080  0.08720  Biso   1.000  O
  C35      1.0000 0.60840  0.46520  0.26180  Biso   1.000  C
  H35      1.0000 0.62770  0.49630  0.28130  Biso   1.000  H
  C36      1.0000 0.62570  0.44780  0.20310  Biso   1.000  C
  H36      1.0000 0.65640  0.46760  0.18210  Biso   1.000  H
  O19      1.0000 0.74980  0.34080  0.91280  Biso   1.000  O
  C37      1.0000 0.85680  0.46520  0.73820  Biso   1.000  C
  H37      1.0000 0.86860  0.49630  0.71870  Biso   1.000  H
  C38      1.0000 0.82210  0.44780  0.79690  Biso   1.000  C
  H38      1.0000 0.81120  0.46760  0.81790  Biso   1.000  H
  O20      1.0000 0.59100  0.25020  0.91280  Biso   1.000  O
  C39      1.0000 0.60840  0.14320  0.73820  Biso   1.000  C
  H39      1.0000 0.62770  0.13140  0.71870  Biso   1.000  H
  C40      1.0000 0.62570  0.17790  0.79690  Biso   1.000  C
  H40      1.0000 0.65640  0.18880  0.81790  Biso   1.000  H
  O21      1.0000 0.65920  0.40900  0.91280  Biso   1.000  O
  C41      1.0000 0.53480  0.39160  0.73820  Biso   1.000  C
  H41      1.0000 0.50370  0.37230  0.71870  Biso   1.000  H
  C42      1.0000 0.55220  0.37430  0.79690  Biso   1.000  C
  H42      1.0000 0.53240  0.34360  0.81790  Biso   1.000  H
  O22      1.0000 0.25020  0.65920  0.91280  Biso   1.000  O
  C43      1.0000 0.14320  0.53480  0.73820  Biso   1.000  C
  H43      1.0000 0.13140  0.50370  0.71870  Biso   1.000  H
  C44      1.0000 0.17790  0.55220  0.79690  Biso   1.000  C
  H44      1.0000 0.18880  0.53240  0.81790  Biso   1.000  H
  O23      1.0000 0.40900  0.74980  0.91280  Biso   1.000  O
  C45      1.0000 0.39160  0.85680  0.73820  Biso   1.000  C
  H45      1.0000 0.37230  0.86860  0.71870  Biso   1.000  H
  C46      1.0000 0.37430  0.82210  0.79690  Biso   1.000  C
  H46      1.0000 0.34360  0.81120  0.81790  Biso   1.000  H
  O24      1.0000 0.34080  0.59100  0.91280  Biso   1.000  O
  C47      1.0000 0.46520  0.60840  0.73820  Biso   1.000  C
  H47      1.0000 0.49630  0.62770  0.71870  Biso   1.000  H
  C48      1.0000 0.44780  0.62570  0.79690  Biso   1.000  C
  H48      1.0000 0.46760  0.65640  0.81790  Biso   1.000  H
  Mg1      1.0000 0.70262  0.29738  0.00000  Biso   1.000  Mg
  Mg2      1.0000 0.70262  0.40524  0.00000  Biso   1.000  Mg
  Mg3      1.0000 0.59476  0.29738  0.00000  Biso   1.000  Mg
  Mg4      1.0000 0.29738  0.70262  0.00000  Biso   1.000  Mg
  Mg5      1.0000 0.29738  0.59476  0.00000  Biso   1.000  Mg
  Mg6      1.0000 0.40524  0.70262  0.00000  Biso   1.000  Mg
  Co1      1.0000 0.50730  0.00000  0.50000  Biso   1.000  Co
  Co2      1.0000 0.00000  0.50730  0.50000  Biso   1.000  Co
  Co3      1.0000 0.49270  0.49270  0.50000  Biso   1.000  Co
  Co4      1.0000 0.49270  0.00000  0.50000  Biso   1.000  Co
  Co5      1.0000 0.00000  0.49270  0.50000  Biso   1.000  Co
  Co6      1.0000 0.50730  0.50730  0.50000  Biso   1.000  Co
  C49      1.0000 0.51985  0.03970  0.66670  Biso   1.000  C
  C50      1.0000 0.54340  0.08680  0.64480  Biso   1.000  C
  C51      1.0000 0.55010  0.10020  0.56490  Biso   1.000  C
  C52      1.0000 0.51220  0.02440  0.74780  Biso   1.000  C
  H49      1.0000 0.52210  0.04420  0.79270  Biso   1.000  H
  C53      1.0000 0.57515  0.15030  0.54070  Biso   1.000  C
  H50      1.0000 0.58855  0.17710  0.57420  Biso   1.000  H
  C54      1.0000 0.56280  0.12560  0.70820  Biso   1.000  C
  C55      1.0000 0.59840  0.19680  0.82480  Biso   1.000  C
  C56      1.0000 0.61820  0.23640  0.88890  Biso   1.000  C
  C57      1.0000 0.96030  0.48015  0.66670  Biso   1.000  C
  C58      1.0000 0.91320  0.45660  0.64480  Biso   1.000  C
  C59      1.0000 0.89980  0.44990  0.56490  Biso   1.000  C
  C60      1.0000 0.97560  0.48780  0.74780  Biso   1.000  C
  H51      1.0000 0.95580  0.47790  0.79270  Biso   1.000  H
  C61      1.0000 0.84970  0.42485  0.54070  Biso   1.000  C
  H52      1.0000 0.82290  0.41145  0.57420  Biso   1.000  H
  C62      1.0000 0.87440  0.43720  0.70820  Biso   1.000  C
  C63      1.0000 0.80320  0.40160  0.82480  Biso   1.000  C
  C64      1.0000 0.76360  0.38180  0.88890  Biso   1.000  C
  C65      1.0000 0.51985  0.48015  0.66670  Biso   1.000  C
  C66      1.0000 0.54340  0.45660  0.64480  Biso   1.000  C
  C67      1.0000 0.55010  0.44990  0.56490  Biso   1.000  C
  C68      1.0000 0.51220  0.48780  0.74780  Biso   1.000  C
  H53      1.0000 0.52210  0.47790  0.79270  Biso   1.000  H
  C69      1.0000 0.57515  0.42485  0.54070  Biso   1.000  C
  H54      1.0000 0.58855  0.41145  0.57420  Biso   1.000  H
  C70      1.0000 0.56280  0.43720  0.70820  Biso   1.000  C
  C71      1.0000 0.59840  0.40160  0.82480  Biso   1.000  C
  C72      1.0000 0.61820  0.38180  0.88890  Biso   1.000  C
  C73      1.0000 0.48015  0.96030  0.66670  Biso   1.000  C
  C74      1.0000 0.45660  0.91320  0.64480  Biso   1.000  C
  C75      1.0000 0.44990  0.89980  0.56490  Biso   1.000  C
  C76      1.0000 0.48780  0.97560  0.74780  Biso   1.000  C
  H55      1.0000 0.47790  0.95580  0.79270  Biso   1.000  H
  C77      1.0000 0.42485  0.84970  0.54070  Biso   1.000  C
  H56      1.0000 0.41145  0.82290  0.57420  Biso   1.000  H
  C78      1.0000 0.43720  0.87440  0.70820  Biso   1.000  C
  C79      1.0000 0.40160  0.80320  0.82480  Biso   1.000  C
  C80      1.0000 0.38180  0.76360  0.88890  Biso   1.000  C
  C81      1.0000 0.03970  0.51985  0.66670  Biso   1.000  C
  C82      1.0000 0.08680  0.54340  0.64480  Biso   1.000  C
  C83      1.0000 0.10020  0.55010  0.56490  Biso   1.000  C
  C84      1.0000 0.02440  0.51220  0.74780  Biso   1.000  C
  H57      1.0000 0.04420  0.52210  0.79270  Biso   1.000  H
  C85      1.0000 0.15030  0.57515  0.54070  Biso   1.000  C
  H58      1.0000 0.17710  0.58855  0.57420  Biso   1.000  H
  C86      1.0000 0.12560  0.56280  0.70820  Biso   1.000  C
  C87      1.0000 0.19680  0.59840  0.82480  Biso   1.000  C
  C88      1.0000 0.23640  0.61820  0.88890  Biso   1.000  C
  C89      1.0000 0.48015  0.51985  0.66670  Biso   1.000  C
  C90      1.0000 0.45660  0.54340  0.64480  Biso   1.000  C
  C91      1.0000 0.44990  0.55010  0.56490  Biso   1.000  C
  C92      1.0000 0.48780  0.51220  0.74780  Biso   1.000  C
  H59      1.0000 0.47790  0.52210  0.79270  Biso   1.000  H
  C93      1.0000 0.42485  0.57515  0.54070  Biso   1.000  C
  H60      1.0000 0.41145  0.58855  0.57420  Biso   1.000  H
  C94      1.0000 0.43720  0.56280  0.70820  Biso   1.000  C
  C95      1.0000 0.40160  0.59840  0.82480  Biso   1.000  C
  C96      1.0000 0.38180  0.61820  0.88890  Biso   1.000  C
  C97      1.0000 0.03970  0.51985  0.33330  Biso   1.000  C
  C98      1.0000 0.08680  0.54340  0.35520  Biso   1.000  C
  C99      1.0000 0.10020  0.55010  0.43510  Biso   1.000  C
  C100     1.0000 0.02440  0.51220  0.25220  Biso   1.000  C
  H61      1.0000 0.04420  0.52210  0.20730  Biso   1.000  H
  C101     1.0000 0.15030  0.57515  0.45930  Biso   1.000  C
  H62      1.0000 0.17710  0.58855  0.42580  Biso   1.000  H
  C102     1.0000 0.12560  0.56280  0.29180  Biso   1.000  C
  C103     1.0000 0.19680  0.59840  0.17520  Biso   1.000  C
  C104     1.0000 0.23640  0.61820  0.11110  Biso   1.000  C
  C105     1.0000 0.48015  0.96030  0.33330  Biso   1.000  C
  C106     1.0000 0.45660  0.91320  0.35520  Biso   1.000  C
  C107     1.0000 0.44990  0.89980  0.43510  Biso   1.000  C
  C108     1.0000 0.48780  0.97560  0.25220  Biso   1.000  C
  H63      1.0000 0.47790  0.95580  0.20730  Biso   1.000  H
  C109     1.0000 0.42485  0.84970  0.45930  Biso   1.000  C
  H64      1.0000 0.41145  0.82290  0.42580  Biso   1.000  H
  C110     1.0000 0.43720  0.87440  0.29180  Biso   1.000  C
  C111     1.0000 0.40160  0.80320  0.17520  Biso   1.000  C
  C112     1.0000 0.38180  0.76360  0.11110  Biso   1.000  C
  C113     1.0000 0.48015  0.51985  0.33330  Biso   1.000  C
  C114     1.0000 0.45660  0.54340  0.35520  Biso   1.000  C
  C115     1.0000 0.44990  0.55010  0.43510  Biso   1.000  C
  C116     1.0000 0.48780  0.51220  0.25220  Biso   1.000  C
  H65      1.0000 0.47790  0.52210  0.20730  Biso   1.000  H
  C117     1.0000 0.42485  0.57515  0.45930  Biso   1.000  C
  H66      1.0000 0.41145  0.58855  0.42580  Biso   1.000  H
  C118     1.0000 0.43720  0.56280  0.29180  Biso   1.000  C
  C119     1.0000 0.40160  0.59840  0.17520  Biso   1.000  C
  C120     1.0000 0.38180  0.61820  0.11110  Biso   1.000  C
  C121     1.0000 0.96030  0.48015  0.33330  Biso   1.000  C
  C122     1.0000 0.91320  0.45660  0.35520  Biso   1.000  C
  C123     1.0000 0.89980  0.44990  0.43510  Biso   1.000  C
  C124     1.0000 0.97560  0.48780  0.25220  Biso   1.000  C
  H67      1.0000 0.95580  0.47790  0.20730  Biso   1.000  H
  C125     1.0000 0.84970  0.42485  0.45930  Biso   1.000  C
  H68      1.0000 0.82290  0.41145  0.42580  Biso   1.000  H
  C126     1.0000 0.87440  0.43720  0.29180  Biso   1.000  C
  C127     1.0000 0.80320  0.40160  0.17520  Biso   1.000  C
  C128     1.0000 0.76360  0.38180  0.11110  Biso   1.000  C
  C129     1.0000 0.51985  0.03970  0.33330  Biso   1.000  C
  C130     1.0000 0.54340  0.08680  0.35520  Biso   1.000  C
  C131     1.0000 0.55010  0.10020  0.43510  Biso   1.000  C
  C132     1.0000 0.51220  0.02440  0.25220  Biso   1.000  C
  H69      1.0000 0.52210  0.04420  0.20730  Biso   1.000  H
  C133     1.0000 0.57515  0.15030  0.45930  Biso   1.000  C
  H70      1.0000 0.58855  0.17710  0.42580  Biso   1.000  H
  C134     1.0000 0.56280  0.12560  0.29180  Biso   1.000  C
  C135     1.0000 0.59840  0.19680  0.17520  Biso   1.000  C
  C136     1.0000 0.61820  0.23640  0.11110  Biso   1.000  C
  C137     1.0000 0.51985  0.48015  0.33330  Biso   1.000  C
  C138     1.0000 0.54340  0.45660  0.35520  Biso   1.000  C
  C139     1.0000 0.55010  0.44990  0.43510  Biso   1.000  C
  C140     1.0000 0.51220  0.48780  0.25220  Biso   1.000  C
  H71      1.0000 0.52210  0.47790  0.20730  Biso   1.000  H
  C141     1.0000 0.57515  0.42485  0.45930  Biso   1.000  C
  H72      1.0000 0.58855  0.41145  0.42580  Biso   1.000  H
  C142     1.0000 0.56280  0.43720  0.29180  Biso   1.000  C
  C143     1.0000 0.59840  0.40160  0.17520  Biso   1.000  C
  C144     1.0000 0.61820  0.38180  0.11110  Biso   1.000  C
  N1       1.0000 0.50000  0.00000  0.61580  Biso   1.000  N
  N2       1.0000 0.00000  0.50000  0.61580  Biso   1.000  N
  N3       1.0000 0.50000  0.50000  0.61580  Biso   1.000  N
  N4       1.0000 0.00000  0.50000  0.38420  Biso   1.000  N
  N5       1.0000 0.50000  0.00000  0.38420  Biso   1.000  N
  N6       1.0000 0.50000  0.50000  0.38420  Biso   1.000  N
  N7       1.0000 0.53590  0.07180  0.50000  Biso   1.000  N
  N8       1.0000 0.92820  0.46410  0.50000  Biso   1.000  N
  N9       1.0000 0.53590  0.46410  0.50000  Biso   1.000  N
  N10      1.0000 0.46410  0.92820  0.50000  Biso   1.000  N
  N11      1.0000 0.07180  0.53590  0.50000  Biso   1.000  N
  N12      1.0000 0.46410  0.53590  0.50000  Biso   1.000  N
  O25      1.0000 0.66667  0.33333  0.00000  Biso   1.000  O
  O26      1.0000 0.33333  0.66667  0.00000  Biso   1.000  O
