data_image0
_cell_length_a       28.1991
_cell_length_b       28.1991
_cell_length_c       28.1991
_cell_angle_alpha    90
_cell_angle_beta     90
_cell_angle_gamma    90

_symmetry_space_group_name_H-M    "P 1"
_symmetry_int_tables_number       1

loop_
  _symmetry_equiv_pos_as_xyz
  'x, y, z'

loop_
  _atom_site_label
  _atom_site_occupancy
  _atom_site_fract_x
  _atom_site_fract_y
  _atom_site_fract_z
  _atom_site_thermal_displace_type
  _atom_site_B_iso_or_equiv
  _atom_site_type_symbol
  H1       1.0000 0.26740  0.22210  0.10410  Biso   1.000  H
  H2       1.0000 0.24610  0.27120  0.11910  Biso   1.000  H
  H3       1.0000 0.21740  0.23760  0.08540  Biso   1.000  H
  H4       1.0000 0.73260  0.77790  0.10410  Biso   1.000  H
  H5       1.0000 0.75390  0.72880  0.11910  Biso   1.000  H
  H6       1.0000 0.78260  0.76240  0.08540  Biso   1.000  H
  H7       1.0000 0.73260  0.22210  0.89590  Biso   1.000  H
  H8       1.0000 0.75390  0.27120  0.88090  Biso   1.000  H
  H9       1.0000 0.78260  0.23760  0.91460  Biso   1.000  H
  H10      1.0000 0.26740  0.77790  0.89590  Biso   1.000  H
  H11      1.0000 0.24610  0.72880  0.88090  Biso   1.000  H
  H12      1.0000 0.21740  0.76240  0.91460  Biso   1.000  H
  H13      1.0000 0.10410  0.26740  0.22210  Biso   1.000  H
  H14      1.0000 0.11910  0.24610  0.27120  Biso   1.000  H
  H15      1.0000 0.08540  0.21740  0.23760  Biso   1.000  H
  H16      1.0000 0.10410  0.73260  0.77790  Biso   1.000  H
  H17      1.0000 0.11910  0.75390  0.72880  Biso   1.000  H
  H18      1.0000 0.08540  0.78260  0.76240  Biso   1.000  H
  H19      1.0000 0.89590  0.73260  0.22210  Biso   1.000  H
  H20      1.0000 0.88090  0.75390  0.27120  Biso   1.000  H
  H21      1.0000 0.91460  0.78260  0.23760  Biso   1.000  H
  H22      1.0000 0.89590  0.26740  0.77790  Biso   1.000  H
  H23      1.0000 0.88090  0.24610  0.72880  Biso   1.000  H
  H24      1.0000 0.91460  0.21740  0.76240  Biso   1.000  H
  H25      1.0000 0.22210  0.10410  0.26740  Biso   1.000  H
  H26      1.0000 0.27120  0.11910  0.24610  Biso   1.000  H
  H27      1.0000 0.23760  0.08540  0.21740  Biso   1.000  H
  H28      1.0000 0.77790  0.10410  0.73260  Biso   1.000  H
  H29      1.0000 0.72880  0.11910  0.75390  Biso   1.000  H
  H30      1.0000 0.76240  0.08540  0.78260  Biso   1.000  H
  H31      1.0000 0.22210  0.89590  0.73260  Biso   1.000  H
  H32      1.0000 0.27120  0.88090  0.75390  Biso   1.000  H
  H33      1.0000 0.23760  0.91460  0.78260  Biso   1.000  H
  H34      1.0000 0.77790  0.89590  0.26740  Biso   1.000  H
  H35      1.0000 0.72880  0.88090  0.24610  Biso   1.000  H
  H36      1.0000 0.76240  0.91460  0.21740  Biso   1.000  H
  H37      1.0000 0.22210  0.26740  0.89590  Biso   1.000  H
  H38      1.0000 0.27120  0.24610  0.88090  Biso   1.000  H
  H39      1.0000 0.23760  0.21740  0.91460  Biso   1.000  H
  H40      1.0000 0.77790  0.73260  0.89590  Biso   1.000  H
  H41      1.0000 0.72880  0.75390  0.88090  Biso   1.000  H
  H42      1.0000 0.76240  0.78260  0.91460  Biso   1.000  H
  H43      1.0000 0.22210  0.73260  0.10410  Biso   1.000  H
  H44      1.0000 0.27120  0.75390  0.11910  Biso   1.000  H
  H45      1.0000 0.23760  0.78260  0.08540  Biso   1.000  H
  H46      1.0000 0.77790  0.26740  0.10410  Biso   1.000  H
  H47      1.0000 0.72880  0.24610  0.11910  Biso   1.000  H
  H48      1.0000 0.76240  0.21740  0.08540  Biso   1.000  H
  H49      1.0000 0.26740  0.10410  0.77790  Biso   1.000  H
  H50      1.0000 0.24610  0.11910  0.72880  Biso   1.000  H
  H51      1.0000 0.21740  0.08540  0.76240  Biso   1.000  H
  H52      1.0000 0.73260  0.10410  0.22210  Biso   1.000  H
  H53      1.0000 0.75390  0.11910  0.27120  Biso   1.000  H
  H54      1.0000 0.78260  0.08540  0.23760  Biso   1.000  H
  H55      1.0000 0.73260  0.89590  0.77790  Biso   1.000  H
  H56      1.0000 0.75390  0.88090  0.72880  Biso   1.000  H
  H57      1.0000 0.78260  0.91460  0.76240  Biso   1.000  H
  H58      1.0000 0.26740  0.89590  0.22210  Biso   1.000  H
  H59      1.0000 0.24610  0.88090  0.27120  Biso   1.000  H
  H60      1.0000 0.21740  0.91460  0.23760  Biso   1.000  H
  H61      1.0000 0.10410  0.22210  0.73260  Biso   1.000  H
  H62      1.0000 0.11910  0.27120  0.75390  Biso   1.000  H
  H63      1.0000 0.08540  0.23760  0.78260  Biso   1.000  H
  H64      1.0000 0.10410  0.77790  0.26740  Biso   1.000  H
  H65      1.0000 0.11910  0.72880  0.24610  Biso   1.000  H
  H66      1.0000 0.08540  0.76240  0.21740  Biso   1.000  H
  H67      1.0000 0.89590  0.22210  0.26740  Biso   1.000  H
  H68      1.0000 0.88090  0.27120  0.24610  Biso   1.000  H
  H69      1.0000 0.91460  0.23760  0.21740  Biso   1.000  H
  H70      1.0000 0.89590  0.77790  0.73260  Biso   1.000  H
  H71      1.0000 0.88090  0.72880  0.75390  Biso   1.000  H
  H72      1.0000 0.91460  0.76240  0.78260  Biso   1.000  H
  H73      1.0000 0.73260  0.77790  0.89590  Biso   1.000  H
  H74      1.0000 0.75390  0.72880  0.88090  Biso   1.000  H
  H75      1.0000 0.78260  0.76240  0.91460  Biso   1.000  H
  H76      1.0000 0.26740  0.22210  0.89590  Biso   1.000  H
  H77      1.0000 0.24610  0.27120  0.88090  Biso   1.000  H
  H78      1.0000 0.21740  0.23760  0.91460  Biso   1.000  H
  H79      1.0000 0.26740  0.77790  0.10410  Biso   1.000  H
  H80      1.0000 0.24610  0.72880  0.11910  Biso   1.000  H
  H81      1.0000 0.21740  0.76240  0.08540  Biso   1.000  H
  H82      1.0000 0.73260  0.22210  0.10410  Biso   1.000  H
  H83      1.0000 0.75390  0.27120  0.11910  Biso   1.000  H
  H84      1.0000 0.78260  0.23760  0.08540  Biso   1.000  H
  H85      1.0000 0.89590  0.73260  0.77790  Biso   1.000  H
  H86      1.0000 0.88090  0.75390  0.72880  Biso   1.000  H
  H87      1.0000 0.91460  0.78260  0.76240  Biso   1.000  H
  H88      1.0000 0.89590  0.26740  0.22210  Biso   1.000  H
  H89      1.0000 0.88090  0.24610  0.27120  Biso   1.000  H
  H90      1.0000 0.91460  0.21740  0.23760  Biso   1.000  H
  H91      1.0000 0.10410  0.26740  0.77790  Biso   1.000  H
  H92      1.0000 0.11910  0.24610  0.72880  Biso   1.000  H
  H93      1.0000 0.08540  0.21740  0.76240  Biso   1.000  H
  H94      1.0000 0.10410  0.73260  0.22210  Biso   1.000  H
  H95      1.0000 0.11910  0.75390  0.27120  Biso   1.000  H
  H96      1.0000 0.08540  0.78260  0.23760  Biso   1.000  H
  H97      1.0000 0.77790  0.89590  0.73260  Biso   1.000  H
  H98      1.0000 0.72880  0.88090  0.75390  Biso   1.000  H
  H99      1.0000 0.76240  0.91460  0.78260  Biso   1.000  H
  H100     1.0000 0.22210  0.89590  0.26740  Biso   1.000  H
  H101     1.0000 0.27120  0.88090  0.24610  Biso   1.000  H
  H102     1.0000 0.23760  0.91460  0.21740  Biso   1.000  H
  H103     1.0000 0.77790  0.10410  0.26740  Biso   1.000  H
  H104     1.0000 0.72880  0.11910  0.24610  Biso   1.000  H
  H105     1.0000 0.76240  0.08540  0.21740  Biso   1.000  H
  H106     1.0000 0.22210  0.10410  0.73260  Biso   1.000  H
  H107     1.0000 0.27120  0.11910  0.75390  Biso   1.000  H
  H108     1.0000 0.23760  0.08540  0.78260  Biso   1.000  H
  H109     1.0000 0.77790  0.73260  0.10410  Biso   1.000  H
  H110     1.0000 0.72880  0.75390  0.11910  Biso   1.000  H
  H111     1.0000 0.76240  0.78260  0.08540  Biso   1.000  H
  H112     1.0000 0.22210  0.26740  0.10410  Biso   1.000  H
  H113     1.0000 0.27120  0.24610  0.11910  Biso   1.000  H
  H114     1.0000 0.23760  0.21740  0.08540  Biso   1.000  H
  H115     1.0000 0.77790  0.26740  0.89590  Biso   1.000  H
  H116     1.0000 0.72880  0.24610  0.88090  Biso   1.000  H
  H117     1.0000 0.76240  0.21740  0.91460  Biso   1.000  H
  H118     1.0000 0.22210  0.73260  0.89590  Biso   1.000  H
  H119     1.0000 0.27120  0.75390  0.88090  Biso   1.000  H
  H120     1.0000 0.23760  0.78260  0.91460  Biso   1.000  H
  H121     1.0000 0.73260  0.89590  0.22210  Biso   1.000  H
  H122     1.0000 0.75390  0.88090  0.27120  Biso   1.000  H
  H123     1.0000 0.78260  0.91460  0.23760  Biso   1.000  H
  H124     1.0000 0.26740  0.89590  0.77790  Biso   1.000  H
  H125     1.0000 0.24610  0.88090  0.72880  Biso   1.000  H
  H126     1.0000 0.21740  0.91460  0.76240  Biso   1.000  H
  H127     1.0000 0.26740  0.10410  0.22210  Biso   1.000  H
  H128     1.0000 0.24610  0.11910  0.27120  Biso   1.000  H
  H129     1.0000 0.21740  0.08540  0.23760  Biso   1.000  H
  H130     1.0000 0.73260  0.10410  0.77790  Biso   1.000  H
  H131     1.0000 0.75390  0.11910  0.72880  Biso   1.000  H
  H132     1.0000 0.78260  0.08540  0.76240  Biso   1.000  H
  H133     1.0000 0.89590  0.77790  0.26740  Biso   1.000  H
  H134     1.0000 0.88090  0.72880  0.24610  Biso   1.000  H
  H135     1.0000 0.91460  0.76240  0.21740  Biso   1.000  H
  H136     1.0000 0.89590  0.22210  0.73260  Biso   1.000  H
  H137     1.0000 0.88090  0.27120  0.75390  Biso   1.000  H
  H138     1.0000 0.91460  0.23760  0.78260  Biso   1.000  H
  H139     1.0000 0.10410  0.77790  0.73260  Biso   1.000  H
  H140     1.0000 0.11910  0.72880  0.75390  Biso   1.000  H
  H141     1.0000 0.08540  0.76240  0.78260  Biso   1.000  H
  H142     1.0000 0.10410  0.22210  0.26740  Biso   1.000  H
  H143     1.0000 0.11910  0.27120  0.24610  Biso   1.000  H
  H144     1.0000 0.08540  0.23760  0.21740  Biso   1.000  H
  Zr1      1.0000 0.41264  0.00000  0.00000  Biso   1.000  Zr
  Zr2      1.0000 0.58736  0.00000  0.00000  Biso   1.000  Zr
  Zr3      1.0000 0.00000  0.41264  0.00000  Biso   1.000  Zr
  Zr4      1.0000 0.00000  0.58736  0.00000  Biso   1.000  Zr
  Zr5      1.0000 0.00000  0.00000  0.41264  Biso   1.000  Zr
  Zr6      1.0000 0.00000  0.00000  0.58736  Biso   1.000  Zr
  Zr7      1.0000 0.50000  0.06254  0.06254  Biso   1.000  Zr
  Zr8      1.0000 0.50000  0.93746  0.06254  Biso   1.000  Zr
  Zr9      1.0000 0.50000  0.06254  0.93746  Biso   1.000  Zr
  Zr10     1.0000 0.50000  0.93746  0.93746  Biso   1.000  Zr
  Zr11     1.0000 0.06254  0.50000  0.06254  Biso   1.000  Zr
  Zr12     1.0000 0.06254  0.50000  0.93746  Biso   1.000  Zr
  Zr13     1.0000 0.93746  0.50000  0.06254  Biso   1.000  Zr
  Zr14     1.0000 0.93746  0.50000  0.93746  Biso   1.000  Zr
  Zr15     1.0000 0.06254  0.06254  0.50000  Biso   1.000  Zr
  Zr16     1.0000 0.93746  0.06254  0.50000  Biso   1.000  Zr
  Zr17     1.0000 0.06254  0.93746  0.50000  Biso   1.000  Zr
  Zr18     1.0000 0.93746  0.93746  0.50000  Biso   1.000  Zr
  O1       1.0000 0.37330  0.04834  0.04834  Biso   1.000  O
  O2       1.0000 0.42854  0.08755  0.08755  Biso   1.000  O
  C1       1.0000 0.38520  0.07880  0.07880  Biso   1.000  C
  C2       1.0000 0.35110  0.10080  0.10080  Biso   1.000  C
  C3       1.0000 0.30290  0.09460  0.09460  Biso   1.000  C
  H145     1.0000 0.29330  0.07230  0.07230  Biso   1.000  H
  C4       1.0000 0.26700  0.11920  0.11920  Biso   1.000  C
  H146     1.0000 0.23550  0.11240  0.11240  Biso   1.000  H
  C5       1.0000 0.27700  0.15220  0.15220  Biso   1.000  C
  C6       1.0000 0.32470  0.16240  0.16240  Biso   1.000  C
  H147     1.0000 0.33310  0.18490  0.18490  Biso   1.000  H
  C7       1.0000 0.35930  0.13680  0.13680  Biso   1.000  C
  H148     1.0000 0.39080  0.14380  0.14380  Biso   1.000  H
  C8       1.0000 0.23760  0.17650  0.17650  Biso   1.000  C
  O3       1.0000 0.62670  0.95166  0.04834  Biso   1.000  O
  O4       1.0000 0.57146  0.91245  0.08755  Biso   1.000  O
  C9       1.0000 0.61480  0.92120  0.07880  Biso   1.000  C
  C10      1.0000 0.64890  0.89920  0.10080  Biso   1.000  C
  C11      1.0000 0.69710  0.90540  0.09460  Biso   1.000  C
  H149     1.0000 0.70670  0.92770  0.07230  Biso   1.000  H
  C12      1.0000 0.73300  0.88080  0.11920  Biso   1.000  C
  H150     1.0000 0.76450  0.88760  0.11240  Biso   1.000  H
  C13      1.0000 0.72300  0.84780  0.15220  Biso   1.000  C
  C14      1.0000 0.67530  0.83760  0.16240  Biso   1.000  C
  H151     1.0000 0.66690  0.81510  0.18490  Biso   1.000  H
  C15      1.0000 0.64070  0.86320  0.13680  Biso   1.000  C
  H152     1.0000 0.60920  0.85620  0.14380  Biso   1.000  H
  C16      1.0000 0.76240  0.82350  0.17650  Biso   1.000  C
  O5       1.0000 0.62670  0.04834  0.95166  Biso   1.000  O
  O6       1.0000 0.57146  0.08755  0.91245  Biso   1.000  O
  C17      1.0000 0.61480  0.07880  0.92120  Biso   1.000  C
  C18      1.0000 0.64890  0.10080  0.89920  Biso   1.000  C
  C19      1.0000 0.69710  0.09460  0.90540  Biso   1.000  C
  H153     1.0000 0.70670  0.07230  0.92770  Biso   1.000  H
  C20      1.0000 0.73300  0.11920  0.88080  Biso   1.000  C
  H154     1.0000 0.76450  0.11240  0.88760  Biso   1.000  H
  C21      1.0000 0.72300  0.15220  0.84780  Biso   1.000  C
  C22      1.0000 0.67530  0.16240  0.83760  Biso   1.000  C
  H155     1.0000 0.66690  0.18490  0.81510  Biso   1.000  H
  C23      1.0000 0.64070  0.13680  0.86320  Biso   1.000  C
  H156     1.0000 0.60920  0.14380  0.85620  Biso   1.000  H
  C24      1.0000 0.76240  0.17650  0.82350  Biso   1.000  C
  O7       1.0000 0.37330  0.95166  0.95166  Biso   1.000  O
  O8       1.0000 0.42854  0.91245  0.91245  Biso   1.000  O
  C25      1.0000 0.38520  0.92120  0.92120  Biso   1.000  C
  C26      1.0000 0.35110  0.89920  0.89920  Biso   1.000  C
  C27      1.0000 0.30290  0.90540  0.90540  Biso   1.000  C
  H157     1.0000 0.29330  0.92770  0.92770  Biso   1.000  H
  C28      1.0000 0.26700  0.88080  0.88080  Biso   1.000  C
  H158     1.0000 0.23550  0.88760  0.88760  Biso   1.000  H
  C29      1.0000 0.27700  0.84780  0.84780  Biso   1.000  C
  C30      1.0000 0.32470  0.83760  0.83760  Biso   1.000  C
  H159     1.0000 0.33310  0.81510  0.81510  Biso   1.000  H
  C31      1.0000 0.35930  0.86320  0.86320  Biso   1.000  C
  H160     1.0000 0.39080  0.85620  0.85620  Biso   1.000  H
  C32      1.0000 0.23760  0.82350  0.82350  Biso   1.000  C
  O9       1.0000 0.04834  0.37330  0.04834  Biso   1.000  O
  O10      1.0000 0.08755  0.42854  0.08755  Biso   1.000  O
  C33      1.0000 0.07880  0.38520  0.07880  Biso   1.000  C
  C34      1.0000 0.10080  0.35110  0.10080  Biso   1.000  C
  C35      1.0000 0.09460  0.30290  0.09460  Biso   1.000  C
  H161     1.0000 0.07230  0.29330  0.07230  Biso   1.000  H
  C36      1.0000 0.11920  0.26700  0.11920  Biso   1.000  C
  H162     1.0000 0.11240  0.23550  0.11240  Biso   1.000  H
  C37      1.0000 0.15220  0.27700  0.15220  Biso   1.000  C
  C38      1.0000 0.16240  0.32470  0.16240  Biso   1.000  C
  H163     1.0000 0.18490  0.33310  0.18490  Biso   1.000  H
  C39      1.0000 0.13680  0.35930  0.13680  Biso   1.000  C
  H164     1.0000 0.14380  0.39080  0.14380  Biso   1.000  H
  C40      1.0000 0.17650  0.23760  0.17650  Biso   1.000  C
  O11      1.0000 0.04834  0.62670  0.95166  Biso   1.000  O
  O12      1.0000 0.08755  0.57146  0.91245  Biso   1.000  O
  C41      1.0000 0.07880  0.61480  0.92120  Biso   1.000  C
  C42      1.0000 0.10080  0.64890  0.89920  Biso   1.000  C
  C43      1.0000 0.09460  0.69710  0.90540  Biso   1.000  C
  H165     1.0000 0.07230  0.70670  0.92770  Biso   1.000  H
  C44      1.0000 0.11920  0.73300  0.88080  Biso   1.000  C
  H166     1.0000 0.11240  0.76450  0.88760  Biso   1.000  H
  C45      1.0000 0.15220  0.72300  0.84780  Biso   1.000  C
  C46      1.0000 0.16240  0.67530  0.83760  Biso   1.000  C
  H167     1.0000 0.18490  0.66690  0.81510  Biso   1.000  H
  C47      1.0000 0.13680  0.64070  0.86320  Biso   1.000  C
  H168     1.0000 0.14380  0.60920  0.85620  Biso   1.000  H
  C48      1.0000 0.17650  0.76240  0.82350  Biso   1.000  C
  O13      1.0000 0.95166  0.62670  0.04834  Biso   1.000  O
  O14      1.0000 0.91245  0.57146  0.08755  Biso   1.000  O
  C49      1.0000 0.92120  0.61480  0.07880  Biso   1.000  C
  C50      1.0000 0.89920  0.64890  0.10080  Biso   1.000  C
  C51      1.0000 0.90540  0.69710  0.09460  Biso   1.000  C
  H169     1.0000 0.92770  0.70670  0.07230  Biso   1.000  H
  C52      1.0000 0.88080  0.73300  0.11920  Biso   1.000  C
  H170     1.0000 0.88760  0.76450  0.11240  Biso   1.000  H
  C53      1.0000 0.84780  0.72300  0.15220  Biso   1.000  C
  C54      1.0000 0.83760  0.67530  0.16240  Biso   1.000  C
  H171     1.0000 0.81510  0.66690  0.18490  Biso   1.000  H
  C55      1.0000 0.86320  0.64070  0.13680  Biso   1.000  C
  H172     1.0000 0.85620  0.60920  0.14380  Biso   1.000  H
  C56      1.0000 0.82350  0.76240  0.17650  Biso   1.000  C
  O15      1.0000 0.95166  0.37330  0.95166  Biso   1.000  O
  O16      1.0000 0.91245  0.42854  0.91245  Biso   1.000  O
  C57      1.0000 0.92120  0.38520  0.92120  Biso   1.000  C
  C58      1.0000 0.89920  0.35110  0.89920  Biso   1.000  C
  C59      1.0000 0.90540  0.30290  0.90540  Biso   1.000  C
  H173     1.0000 0.92770  0.29330  0.92770  Biso   1.000  H
  C60      1.0000 0.88080  0.26700  0.88080  Biso   1.000  C
  H174     1.0000 0.88760  0.23550  0.88760  Biso   1.000  H
  C61      1.0000 0.84780  0.27700  0.84780  Biso   1.000  C
  C62      1.0000 0.83760  0.32470  0.83760  Biso   1.000  C
  H175     1.0000 0.81510  0.33310  0.81510  Biso   1.000  H
  C63      1.0000 0.86320  0.35930  0.86320  Biso   1.000  C
  H176     1.0000 0.85620  0.39080  0.85620  Biso   1.000  H
  C64      1.0000 0.82350  0.23760  0.82350  Biso   1.000  C
  O17      1.0000 0.04834  0.04834  0.37330  Biso   1.000  O
  O18      1.0000 0.08755  0.08755  0.42854  Biso   1.000  O
  C65      1.0000 0.07880  0.07880  0.38520  Biso   1.000  C
  C66      1.0000 0.10080  0.10080  0.35110  Biso   1.000  C
  C67      1.0000 0.09460  0.09460  0.30290  Biso   1.000  C
  H177     1.0000 0.07230  0.07230  0.29330  Biso   1.000  H
  C68      1.0000 0.11920  0.11920  0.26700  Biso   1.000  C
  H178     1.0000 0.11240  0.11240  0.23550  Biso   1.000  H
  C69      1.0000 0.15220  0.15220  0.27700  Biso   1.000  C
  C70      1.0000 0.16240  0.16240  0.32470  Biso   1.000  C
  H179     1.0000 0.18490  0.18490  0.33310  Biso   1.000  H
  C71      1.0000 0.13680  0.13680  0.35930  Biso   1.000  C
  H180     1.0000 0.14380  0.14380  0.39080  Biso   1.000  H
  C72      1.0000 0.17650  0.17650  0.23760  Biso   1.000  C
  O19      1.0000 0.95166  0.04834  0.62670  Biso   1.000  O
  O20      1.0000 0.91245  0.08755  0.57146  Biso   1.000  O
  C73      1.0000 0.92120  0.07880  0.61480  Biso   1.000  C
  C74      1.0000 0.89920  0.10080  0.64890  Biso   1.000  C
  C75      1.0000 0.90540  0.09460  0.69710  Biso   1.000  C
  H181     1.0000 0.92770  0.07230  0.70670  Biso   1.000  H
  C76      1.0000 0.88080  0.11920  0.73300  Biso   1.000  C
  H182     1.0000 0.88760  0.11240  0.76450  Biso   1.000  H
  C77      1.0000 0.84780  0.15220  0.72300  Biso   1.000  C
  C78      1.0000 0.83760  0.16240  0.67530  Biso   1.000  C
  H183     1.0000 0.81510  0.18490  0.66690  Biso   1.000  H
  C79      1.0000 0.86320  0.13680  0.64070  Biso   1.000  C
  H184     1.0000 0.85620  0.14380  0.60920  Biso   1.000  H
  C80      1.0000 0.82350  0.17650  0.76240  Biso   1.000  C
  O21      1.0000 0.04834  0.95166  0.62670  Biso   1.000  O
  O22      1.0000 0.08755  0.91245  0.57146  Biso   1.000  O
  C81      1.0000 0.07880  0.92120  0.61480  Biso   1.000  C
  C82      1.0000 0.10080  0.89920  0.64890  Biso   1.000  C
  C83      1.0000 0.09460  0.90540  0.69710  Biso   1.000  C
  H185     1.0000 0.07230  0.92770  0.70670  Biso   1.000  H
  C84      1.0000 0.11920  0.88080  0.73300  Biso   1.000  C
  H186     1.0000 0.11240  0.88760  0.76450  Biso   1.000  H
  C85      1.0000 0.15220  0.84780  0.72300  Biso   1.000  C
  C86      1.0000 0.16240  0.83760  0.67530  Biso   1.000  C
  H187     1.0000 0.18490  0.81510  0.66690  Biso   1.000  H
  C87      1.0000 0.13680  0.86320  0.64070  Biso   1.000  C
  H188     1.0000 0.14380  0.85620  0.60920  Biso   1.000  H
  C88      1.0000 0.17650  0.82350  0.76240  Biso   1.000  C
  O23      1.0000 0.95166  0.95166  0.37330  Biso   1.000  O
  O24      1.0000 0.91245  0.91245  0.42854  Biso   1.000  O
  C89      1.0000 0.92120  0.92120  0.38520  Biso   1.000  C
  C90      1.0000 0.89920  0.89920  0.35110  Biso   1.000  C
  C91      1.0000 0.90540  0.90540  0.30290  Biso   1.000  C
  H189     1.0000 0.92770  0.92770  0.29330  Biso   1.000  H
  C92      1.0000 0.88080  0.88080  0.26700  Biso   1.000  C
  H190     1.0000 0.88760  0.88760  0.23550  Biso   1.000  H
  C93      1.0000 0.84780  0.84780  0.27700  Biso   1.000  C
  C94      1.0000 0.83760  0.83760  0.32470  Biso   1.000  C
  H191     1.0000 0.81510  0.81510  0.33310  Biso   1.000  H
  C95      1.0000 0.86320  0.86320  0.35930  Biso   1.000  C
  H192     1.0000 0.85620  0.85620  0.39080  Biso   1.000  H
  C96      1.0000 0.82350  0.82350  0.23760  Biso   1.000  C
  O25      1.0000 0.04834  0.37330  0.95166  Biso   1.000  O
  O26      1.0000 0.08755  0.42854  0.91245  Biso   1.000  O
  C97      1.0000 0.07880  0.38520  0.92120  Biso   1.000  C
  C98      1.0000 0.10080  0.35110  0.89920  Biso   1.000  C
  C99      1.0000 0.09460  0.30290  0.90540  Biso   1.000  C
  H193     1.0000 0.07230  0.29330  0.92770  Biso   1.000  H
  C100     1.0000 0.11920  0.26700  0.88080  Biso   1.000  C
  H194     1.0000 0.11240  0.23550  0.88760  Biso   1.000  H
  C101     1.0000 0.15220  0.27700  0.84780  Biso   1.000  C
  C102     1.0000 0.16240  0.32470  0.83760  Biso   1.000  C
  H195     1.0000 0.18490  0.33310  0.81510  Biso   1.000  H
  C103     1.0000 0.13680  0.35930  0.86320  Biso   1.000  C
  H196     1.0000 0.14380  0.39080  0.85620  Biso   1.000  H
  C104     1.0000 0.17650  0.23760  0.82350  Biso   1.000  C
  O27      1.0000 0.95166  0.62670  0.95166  Biso   1.000  O
  O28      1.0000 0.91245  0.57146  0.91245  Biso   1.000  O
  C105     1.0000 0.92120  0.61480  0.92120  Biso   1.000  C
  C106     1.0000 0.89920  0.64890  0.89920  Biso   1.000  C
  C107     1.0000 0.90540  0.69710  0.90540  Biso   1.000  C
  H197     1.0000 0.92770  0.70670  0.92770  Biso   1.000  H
  C108     1.0000 0.88080  0.73300  0.88080  Biso   1.000  C
  H198     1.0000 0.88760  0.76450  0.88760  Biso   1.000  H
  C109     1.0000 0.84780  0.72300  0.84780  Biso   1.000  C
  C110     1.0000 0.83760  0.67530  0.83760  Biso   1.000  C
  H199     1.0000 0.81510  0.66690  0.81510  Biso   1.000  H
  C111     1.0000 0.86320  0.64070  0.86320  Biso   1.000  C
  H200     1.0000 0.85620  0.60920  0.85620  Biso   1.000  H
  C112     1.0000 0.82350  0.76240  0.82350  Biso   1.000  C
  O29      1.0000 0.04834  0.62670  0.04834  Biso   1.000  O
  O30      1.0000 0.08755  0.57146  0.08755  Biso   1.000  O
  C113     1.0000 0.07880  0.61480  0.07880  Biso   1.000  C
  C114     1.0000 0.10080  0.64890  0.10080  Biso   1.000  C
  C115     1.0000 0.09460  0.69710  0.09460  Biso   1.000  C
  H201     1.0000 0.07230  0.70670  0.07230  Biso   1.000  H
  C116     1.0000 0.11920  0.73300  0.11920  Biso   1.000  C
  H202     1.0000 0.11240  0.76450  0.11240  Biso   1.000  H
  C117     1.0000 0.15220  0.72300  0.15220  Biso   1.000  C
  C118     1.0000 0.16240  0.67530  0.16240  Biso   1.000  C
  H203     1.0000 0.18490  0.66690  0.18490  Biso   1.000  H
  C119     1.0000 0.13680  0.64070  0.13680  Biso   1.000  C
  H204     1.0000 0.14380  0.60920  0.14380  Biso   1.000  H
  C120     1.0000 0.17650  0.76240  0.17650  Biso   1.000  C
  O31      1.0000 0.95166  0.37330  0.04834  Biso   1.000  O
  O32      1.0000 0.91245  0.42854  0.08755  Biso   1.000  O
  C121     1.0000 0.92120  0.38520  0.07880  Biso   1.000  C
  C122     1.0000 0.89920  0.35110  0.10080  Biso   1.000  C
  C123     1.0000 0.90540  0.30290  0.09460  Biso   1.000  C
  H205     1.0000 0.92770  0.29330  0.07230  Biso   1.000  H
  C124     1.0000 0.88080  0.26700  0.11920  Biso   1.000  C
  H206     1.0000 0.88760  0.23550  0.11240  Biso   1.000  H
  C125     1.0000 0.84780  0.27700  0.15220  Biso   1.000  C
  C126     1.0000 0.83760  0.32470  0.16240  Biso   1.000  C
  H207     1.0000 0.81510  0.33310  0.18490  Biso   1.000  H
  C127     1.0000 0.86320  0.35930  0.13680  Biso   1.000  C
  H208     1.0000 0.85620  0.39080  0.14380  Biso   1.000  H
  C128     1.0000 0.82350  0.23760  0.17650  Biso   1.000  C
  O33      1.0000 0.37330  0.04834  0.95166  Biso   1.000  O
  O34      1.0000 0.42854  0.08755  0.91245  Biso   1.000  O
  C129     1.0000 0.38520  0.07880  0.92120  Biso   1.000  C
  C130     1.0000 0.35110  0.10080  0.89920  Biso   1.000  C
  C131     1.0000 0.30290  0.09460  0.90540  Biso   1.000  C
  H209     1.0000 0.29330  0.07230  0.92770  Biso   1.000  H
  C132     1.0000 0.26700  0.11920  0.88080  Biso   1.000  C
  H210     1.0000 0.23550  0.11240  0.88760  Biso   1.000  H
  C133     1.0000 0.27700  0.15220  0.84780  Biso   1.000  C
  C134     1.0000 0.32470  0.16240  0.83760  Biso   1.000  C
  H211     1.0000 0.33310  0.18490  0.81510  Biso   1.000  H
  C135     1.0000 0.35930  0.13680  0.86320  Biso   1.000  C
  H212     1.0000 0.39080  0.14380  0.85620  Biso   1.000  H
  C136     1.0000 0.23760  0.17650  0.82350  Biso   1.000  C
  O35      1.0000 0.62670  0.04834  0.04834  Biso   1.000  O
  O36      1.0000 0.57146  0.08755  0.08755  Biso   1.000  O
  C137     1.0000 0.61480  0.07880  0.07880  Biso   1.000  C
  C138     1.0000 0.64890  0.10080  0.10080  Biso   1.000  C
  C139     1.0000 0.69710  0.09460  0.09460  Biso   1.000  C
  H213     1.0000 0.70670  0.07230  0.07230  Biso   1.000  H
  C140     1.0000 0.73300  0.11920  0.11920  Biso   1.000  C
  H214     1.0000 0.76450  0.11240  0.11240  Biso   1.000  H
  C141     1.0000 0.72300  0.15220  0.15220  Biso   1.000  C
  C142     1.0000 0.67530  0.16240  0.16240  Biso   1.000  C
  H215     1.0000 0.66690  0.18490  0.18490  Biso   1.000  H
  C143     1.0000 0.64070  0.13680  0.13680  Biso   1.000  C
  H216     1.0000 0.60920  0.14380  0.14380  Biso   1.000  H
  C144     1.0000 0.76240  0.17650  0.17650  Biso   1.000  C
  O37      1.0000 0.62670  0.95166  0.95166  Biso   1.000  O
  O38      1.0000 0.57146  0.91245  0.91245  Biso   1.000  O
  C145     1.0000 0.61480  0.92120  0.92120  Biso   1.000  C
  C146     1.0000 0.64890  0.89920  0.89920  Biso   1.000  C
  C147     1.0000 0.69710  0.90540  0.90540  Biso   1.000  C
  H217     1.0000 0.70670  0.92770  0.92770  Biso   1.000  H
  C148     1.0000 0.73300  0.88080  0.88080  Biso   1.000  C
  H218     1.0000 0.76450  0.88760  0.88760  Biso   1.000  H
  C149     1.0000 0.72300  0.84780  0.84780  Biso   1.000  C
  C150     1.0000 0.67530  0.83760  0.83760  Biso   1.000  C
  H219     1.0000 0.66690  0.81510  0.81510  Biso   1.000  H
  C151     1.0000 0.64070  0.86320  0.86320  Biso   1.000  C
  H220     1.0000 0.60920  0.85620  0.85620  Biso   1.000  H
  C152     1.0000 0.76240  0.82350  0.82350  Biso   1.000  C
  O39      1.0000 0.37330  0.95166  0.04834  Biso   1.000  O
  O40      1.0000 0.42854  0.91245  0.08755  Biso   1.000  O
  C153     1.0000 0.38520  0.92120  0.07880  Biso   1.000  C
  C154     1.0000 0.35110  0.89920  0.10080  Biso   1.000  C
  C155     1.0000 0.30290  0.90540  0.09460  Biso   1.000  C
  H221     1.0000 0.29330  0.92770  0.07230  Biso   1.000  H
  C156     1.0000 0.26700  0.88080  0.11920  Biso   1.000  C
  H222     1.0000 0.23550  0.88760  0.11240  Biso   1.000  H
  C157     1.0000 0.27700  0.84780  0.15220  Biso   1.000  C
  C158     1.0000 0.32470  0.83760  0.16240  Biso   1.000  C
  H223     1.0000 0.33310  0.81510  0.18490  Biso   1.000  H
  C159     1.0000 0.35930  0.86320  0.13680  Biso   1.000  C
  H224     1.0000 0.39080  0.85620  0.14380  Biso   1.000  H
  C160     1.0000 0.23760  0.82350  0.17650  Biso   1.000  C
  O41      1.0000 0.04834  0.04834  0.62670  Biso   1.000  O
  O42      1.0000 0.08755  0.08755  0.57146  Biso   1.000  O
  C161     1.0000 0.07880  0.07880  0.61480  Biso   1.000  C
  C162     1.0000 0.10080  0.10080  0.64890  Biso   1.000  C
  C163     1.0000 0.09460  0.09460  0.69710  Biso   1.000  C
  H225     1.0000 0.07230  0.07230  0.70670  Biso   1.000  H
  C164     1.0000 0.11920  0.11920  0.73300  Biso   1.000  C
  H226     1.0000 0.11240  0.11240  0.76450  Biso   1.000  H
  C165     1.0000 0.15220  0.15220  0.72300  Biso   1.000  C
  C166     1.0000 0.16240  0.16240  0.67530  Biso   1.000  C
  H227     1.0000 0.18490  0.18490  0.66690  Biso   1.000  H
  C167     1.0000 0.13680  0.13680  0.64070  Biso   1.000  C
  H228     1.0000 0.14380  0.14380  0.60920  Biso   1.000  H
  C168     1.0000 0.17650  0.17650  0.76240  Biso   1.000  C
  O43      1.0000 0.04834  0.95166  0.37330  Biso   1.000  O
  O44      1.0000 0.08755  0.91245  0.42854  Biso   1.000  O
  C169     1.0000 0.07880  0.92120  0.38520  Biso   1.000  C
  C170     1.0000 0.10080  0.89920  0.35110  Biso   1.000  C
  C171     1.0000 0.09460  0.90540  0.30290  Biso   1.000  C
  H229     1.0000 0.07230  0.92770  0.29330  Biso   1.000  H
  C172     1.0000 0.11920  0.88080  0.26700  Biso   1.000  C
  H230     1.0000 0.11240  0.88760  0.23550  Biso   1.000  H
  C173     1.0000 0.15220  0.84780  0.27700  Biso   1.000  C
  C174     1.0000 0.16240  0.83760  0.32470  Biso   1.000  C
  H231     1.0000 0.18490  0.81510  0.33310  Biso   1.000  H
  C175     1.0000 0.13680  0.86320  0.35930  Biso   1.000  C
  H232     1.0000 0.14380  0.85620  0.39080  Biso   1.000  H
  C176     1.0000 0.17650  0.82350  0.23760  Biso   1.000  C
  O45      1.0000 0.95166  0.04834  0.37330  Biso   1.000  O
  O46      1.0000 0.91245  0.08755  0.42854  Biso   1.000  O
  C177     1.0000 0.92120  0.07880  0.38520  Biso   1.000  C
  C178     1.0000 0.89920  0.10080  0.35110  Biso   1.000  C
  C179     1.0000 0.90540  0.09460  0.30290  Biso   1.000  C
  H233     1.0000 0.92770  0.07230  0.29330  Biso   1.000  H
  C180     1.0000 0.88080  0.11920  0.26700  Biso   1.000  C
  H234     1.0000 0.88760  0.11240  0.23550  Biso   1.000  H
  C181     1.0000 0.84780  0.15220  0.27700  Biso   1.000  C
  C182     1.0000 0.83760  0.16240  0.32470  Biso   1.000  C
  H235     1.0000 0.81510  0.18490  0.33310  Biso   1.000  H
  C183     1.0000 0.86320  0.13680  0.35930  Biso   1.000  C
  H236     1.0000 0.85620  0.14380  0.39080  Biso   1.000  H
  C184     1.0000 0.82350  0.17650  0.23760  Biso   1.000  C
  O47      1.0000 0.95166  0.95166  0.62670  Biso   1.000  O
  O48      1.0000 0.91245  0.91245  0.57146  Biso   1.000  O
  C185     1.0000 0.92120  0.92120  0.61480  Biso   1.000  C
  C186     1.0000 0.89920  0.89920  0.64890  Biso   1.000  C
  C187     1.0000 0.90540  0.90540  0.69710  Biso   1.000  C
  H237     1.0000 0.92770  0.92770  0.70670  Biso   1.000  H
  C188     1.0000 0.88080  0.88080  0.73300  Biso   1.000  C
  H238     1.0000 0.88760  0.88760  0.76450  Biso   1.000  H
  C189     1.0000 0.84780  0.84780  0.72300  Biso   1.000  C
  C190     1.0000 0.83760  0.83760  0.67530  Biso   1.000  C
  H239     1.0000 0.81510  0.81510  0.66690  Biso   1.000  H
  C191     1.0000 0.86320  0.86320  0.64070  Biso   1.000  C
  H240     1.0000 0.85620  0.85620  0.60920  Biso   1.000  H
  C192     1.0000 0.82350  0.82350  0.76240  Biso   1.000  C
  O49      1.0000 0.45820  0.00000  0.06200  Biso   1.000  O
  O50      1.0000 0.54180  0.00000  0.06200  Biso   1.000  O
  O51      1.0000 0.54180  0.00000  0.93800  Biso   1.000  O
  O52      1.0000 0.45820  0.00000  0.93800  Biso   1.000  O
  O53      1.0000 0.06200  0.45820  0.00000  Biso   1.000  O
  O54      1.0000 0.06200  0.54180  0.00000  Biso   1.000  O
  O55      1.0000 0.93800  0.54180  0.00000  Biso   1.000  O
  O56      1.0000 0.93800  0.45820  0.00000  Biso   1.000  O
  O57      1.0000 0.00000  0.06200  0.45820  Biso   1.000  O
  O58      1.0000 0.00000  0.06200  0.54180  Biso   1.000  O
  O59      1.0000 0.00000  0.93800  0.54180  Biso   1.000  O
  O60      1.0000 0.00000  0.93800  0.45820  Biso   1.000  O
  O61      1.0000 0.00000  0.45820  0.93800  Biso   1.000  O
  O62      1.0000 0.00000  0.54180  0.93800  Biso   1.000  O
  O63      1.0000 0.00000  0.54180  0.06200  Biso   1.000  O
  O64      1.0000 0.00000  0.45820  0.06200  Biso   1.000  O
  O65      1.0000 0.45820  0.06200  0.00000  Biso   1.000  O
  O66      1.0000 0.54180  0.06200  0.00000  Biso   1.000  O
  O67      1.0000 0.54180  0.93800  0.00000  Biso   1.000  O
  O68      1.0000 0.45820  0.93800  0.00000  Biso   1.000  O
  O69      1.0000 0.06200  0.00000  0.54180  Biso   1.000  O
  O70      1.0000 0.06200  0.00000  0.45820  Biso   1.000  O
  O71      1.0000 0.93800  0.00000  0.45820  Biso   1.000  O
  O72      1.0000 0.93800  0.00000  0.54180  Biso   1.000  O
  C193     1.0000 0.21540  0.21540  0.15490  Biso   1.000  C
  C194     1.0000 0.23880  0.23880  0.11190  Biso   1.000  C
  C195     1.0000 0.78460  0.78460  0.15490  Biso   1.000  C
  C196     1.0000 0.76120  0.76120  0.11190  Biso   1.000  C
  C197     1.0000 0.78460  0.21540  0.84510  Biso   1.000  C
  C198     1.0000 0.76120  0.23880  0.88810  Biso   1.000  C
  C199     1.0000 0.21540  0.78460  0.84510  Biso   1.000  C
  C200     1.0000 0.23880  0.76120  0.88810  Biso   1.000  C
  C201     1.0000 0.15490  0.21540  0.21540  Biso   1.000  C
  C202     1.0000 0.11190  0.23880  0.23880  Biso   1.000  C
  C203     1.0000 0.15490  0.78460  0.78460  Biso   1.000  C
  C204     1.0000 0.11190  0.76120  0.76120  Biso   1.000  C
  C205     1.0000 0.84510  0.78460  0.21540  Biso   1.000  C
  C206     1.0000 0.88810  0.76120  0.23880  Biso   1.000  C
  C207     1.0000 0.84510  0.21540  0.78460  Biso   1.000  C
  C208     1.0000 0.88810  0.23880  0.76120  Biso   1.000  C
  C209     1.0000 0.21540  0.15490  0.21540  Biso   1.000  C
  C210     1.0000 0.23880  0.11190  0.23880  Biso   1.000  C
  C211     1.0000 0.78460  0.15490  0.78460  Biso   1.000  C
  C212     1.0000 0.76120  0.11190  0.76120  Biso   1.000  C
  C213     1.0000 0.21540  0.84510  0.78460  Biso   1.000  C
  C214     1.0000 0.23880  0.88810  0.76120  Biso   1.000  C
  C215     1.0000 0.78460  0.84510  0.21540  Biso   1.000  C
  C216     1.0000 0.76120  0.88810  0.23880  Biso   1.000  C
  C217     1.0000 0.21540  0.21540  0.84510  Biso   1.000  C
  C218     1.0000 0.23880  0.23880  0.88810  Biso   1.000  C
  C219     1.0000 0.78460  0.78460  0.84510  Biso   1.000  C
  C220     1.0000 0.76120  0.76120  0.88810  Biso   1.000  C
  C221     1.0000 0.21540  0.78460  0.15490  Biso   1.000  C
  C222     1.0000 0.23880  0.76120  0.11190  Biso   1.000  C
  C223     1.0000 0.78460  0.21540  0.15490  Biso   1.000  C
  C224     1.0000 0.76120  0.23880  0.11190  Biso   1.000  C
  C225     1.0000 0.21540  0.15490  0.78460  Biso   1.000  C
  C226     1.0000 0.23880  0.11190  0.76120  Biso   1.000  C
  C227     1.0000 0.78460  0.15490  0.21540  Biso   1.000  C
  C228     1.0000 0.76120  0.11190  0.23880  Biso   1.000  C
  C229     1.0000 0.78460  0.84510  0.78460  Biso   1.000  C
  C230     1.0000 0.76120  0.88810  0.76120  Biso   1.000  C
  C231     1.0000 0.21540  0.84510  0.21540  Biso   1.000  C
  C232     1.0000 0.23880  0.88810  0.23880  Biso   1.000  C
  C233     1.0000 0.15490  0.21540  0.78460  Biso   1.000  C
  C234     1.0000 0.11190  0.23880  0.76120  Biso   1.000  C
  C235     1.0000 0.15490  0.78460  0.21540  Biso   1.000  C
  C236     1.0000 0.11190  0.76120  0.23880  Biso   1.000  C
  C237     1.0000 0.84510  0.21540  0.21540  Biso   1.000  C
  C238     1.0000 0.88810  0.23880  0.23880  Biso   1.000  C
  C239     1.0000 0.84510  0.78460  0.78460  Biso   1.000  C
  C240     1.0000 0.88810  0.76120  0.76120  Biso   1.000  C
