data_image0
_cell_length_a       20.096
_cell_length_b       20.096
_cell_length_c       16.372
_cell_angle_alpha    90
_cell_angle_beta     90
_cell_angle_gamma    120

_symmetry_space_group_name_H-M    "P 1"
_symmetry_int_tables_number       1

loop_
  _symmetry_equiv_pos_as_xyz
  'x, y, z'

loop_
  _atom_site_label
  _atom_site_occupancy
  _atom_site_fract_x
  _atom_site_fract_y
  _atom_site_fract_z
  _atom_site_thermal_displace_type
  _atom_site_B_iso_or_equiv
  _atom_site_type_symbol
  O1       1.0000 0.22210  0.07830  0.05970  Biso   1.000  O
  C1       1.0000 0.38240  0.23230  0.94770  Biso   1.000  C
  H1       1.0000 0.35510  0.24710  0.91070  Biso   1.000  H
  C2       1.0000 0.46210  0.27240  0.94820  Biso   1.000  C
  H2       1.0000 0.48970  0.31470  0.91130  Biso   1.000  H
  C3       1.0000 0.06930  0.83910  0.30100  Biso   1.000  C
  H3       1.0000 0.11030  0.86320  0.26200  Biso   1.000  H
  C4       1.0000 0.07810  0.80430  0.37030  Biso   1.000  C
  H4       1.0000 0.12530  0.80440  0.37940  Biso   1.000  H
  C5       1.0000 0.01790  0.76810  0.42570  Biso   1.000  C
  C6       1.0000 0.94890  0.76650  0.41210  Biso   1.000  C
  H5       1.0000 0.90790  0.74240  0.45120  Biso   1.000  H
  C7       1.0000 0.93970  0.80120  0.34290  Biso   1.000  C
  H6       1.0000 0.89240  0.80110  0.33390  Biso   1.000  H
  O2       1.0000 0.92170  0.14380  0.05970  Biso   1.000  O
  C8       1.0000 0.76770  0.15010  0.94770  Biso   1.000  C
  H7       1.0000 0.75290  0.10800  0.91070  Biso   1.000  H
  C9       1.0000 0.72760  0.18970  0.94820  Biso   1.000  C
  H8       1.0000 0.68530  0.17500  0.91130  Biso   1.000  H
  C10      1.0000 0.16090  0.23020  0.30100  Biso   1.000  C
  H9       1.0000 0.13680  0.24710  0.26200  Biso   1.000  H
  C11      1.0000 0.19570  0.27380  0.37030  Biso   1.000  C
  H10      1.0000 0.19560  0.32090  0.37940  Biso   1.000  H
  C12      1.0000 0.23190  0.24980  0.42570  Biso   1.000  C
  C13      1.0000 0.23350  0.18240  0.41210  Biso   1.000  C
  H11      1.0000 0.25760  0.16550  0.45120  Biso   1.000  H
  C14      1.0000 0.19880  0.13850  0.34290  Biso   1.000  C
  H12      1.0000 0.19890  0.09130  0.33390  Biso   1.000  H
  O3       1.0000 0.85620  0.77790  0.05970  Biso   1.000  O
  C15      1.0000 0.84990  0.61760  0.94770  Biso   1.000  C
  H13      1.0000 0.89200  0.64490  0.91070  Biso   1.000  H
  C16      1.0000 0.81030  0.53790  0.94820  Biso   1.000  C
  H14      1.0000 0.82500  0.51030  0.91130  Biso   1.000  H
  C17      1.0000 0.76980  0.93070  0.30100  Biso   1.000  C
  H15      1.0000 0.75290  0.88970  0.26200  Biso   1.000  H
  C18      1.0000 0.72620  0.92190  0.37030  Biso   1.000  C
  H16      1.0000 0.67910  0.87470  0.37940  Biso   1.000  H
  C19      1.0000 0.75020  0.98210  0.42570  Biso   1.000  C
  C20      1.0000 0.81760  0.05110  0.41210  Biso   1.000  C
  H17      1.0000 0.83450  0.09210  0.45120  Biso   1.000  H
  C21      1.0000 0.86150  0.06030  0.34290  Biso   1.000  C
  H18      1.0000 0.90870  0.10760  0.33390  Biso   1.000  H
  O4       1.0000 0.77790  0.92170  0.05970  Biso   1.000  O
  C22      1.0000 0.61760  0.76770  0.94770  Biso   1.000  C
  H19      1.0000 0.64490  0.75290  0.91070  Biso   1.000  H
  C23      1.0000 0.53790  0.72760  0.94820  Biso   1.000  C
  H20      1.0000 0.51030  0.68530  0.91130  Biso   1.000  H
  C24      1.0000 0.93070  0.16090  0.30100  Biso   1.000  C
  H21      1.0000 0.88970  0.13680  0.26200  Biso   1.000  H
  C25      1.0000 0.92190  0.19570  0.37030  Biso   1.000  C
  H22      1.0000 0.87470  0.19560  0.37940  Biso   1.000  H
  C26      1.0000 0.98210  0.23190  0.42570  Biso   1.000  C
  C27      1.0000 0.05110  0.23350  0.41210  Biso   1.000  C
  H23      1.0000 0.09210  0.25760  0.45120  Biso   1.000  H
  C28      1.0000 0.06030  0.19880  0.34290  Biso   1.000  C
  H24      1.0000 0.10760  0.19890  0.33390  Biso   1.000  H
  O5       1.0000 0.07830  0.85620  0.05970  Biso   1.000  O
  C29      1.0000 0.23230  0.84990  0.94770  Biso   1.000  C
  H25      1.0000 0.24710  0.89200  0.91070  Biso   1.000  H
  C30      1.0000 0.27240  0.81030  0.94820  Biso   1.000  C
  H26      1.0000 0.31470  0.82500  0.91130  Biso   1.000  H
  C31      1.0000 0.83910  0.76980  0.30100  Biso   1.000  C
  H27      1.0000 0.86320  0.75290  0.26200  Biso   1.000  H
  C32      1.0000 0.80430  0.72620  0.37030  Biso   1.000  C
  H28      1.0000 0.80440  0.67910  0.37940  Biso   1.000  H
  C33      1.0000 0.76810  0.75020  0.42570  Biso   1.000  C
  C34      1.0000 0.76650  0.81760  0.41210  Biso   1.000  C
  H29      1.0000 0.74240  0.83450  0.45120  Biso   1.000  H
  C35      1.0000 0.80120  0.86150  0.34290  Biso   1.000  C
  H30      1.0000 0.80110  0.90870  0.33390  Biso   1.000  H
  O6       1.0000 0.14380  0.22210  0.05970  Biso   1.000  O
  C36      1.0000 0.15010  0.38240  0.94770  Biso   1.000  C
  H31      1.0000 0.10800  0.35510  0.91070  Biso   1.000  H
  C37      1.0000 0.18970  0.46210  0.94820  Biso   1.000  C
  H32      1.0000 0.17500  0.48970  0.91130  Biso   1.000  H
  C38      1.0000 0.23020  0.06930  0.30100  Biso   1.000  C
  H33      1.0000 0.24710  0.11030  0.26200  Biso   1.000  H
  C39      1.0000 0.27380  0.07810  0.37030  Biso   1.000  C
  H34      1.0000 0.32090  0.12530  0.37940  Biso   1.000  H
  C40      1.0000 0.24980  0.01790  0.42570  Biso   1.000  C
  C41      1.0000 0.18240  0.94890  0.41210  Biso   1.000  C
  H35      1.0000 0.16550  0.90790  0.45120  Biso   1.000  H
  C42      1.0000 0.13850  0.93970  0.34290  Biso   1.000  C
  H36      1.0000 0.09130  0.89240  0.33390  Biso   1.000  H
  O7       1.0000 0.07830  0.22210  0.94030  Biso   1.000  O
  C43      1.0000 0.23230  0.38240  0.05230  Biso   1.000  C
  H37      1.0000 0.24710  0.35510  0.08930  Biso   1.000  H
  C44      1.0000 0.27240  0.46210  0.05180  Biso   1.000  C
  H38      1.0000 0.31470  0.48970  0.08870  Biso   1.000  H
  C45      1.0000 0.83910  0.06930  0.69900  Biso   1.000  C
  H39      1.0000 0.86320  0.11030  0.73800  Biso   1.000  H
  C46      1.0000 0.80430  0.07810  0.62970  Biso   1.000  C
  H40      1.0000 0.80440  0.12530  0.62060  Biso   1.000  H
  C47      1.0000 0.76810  0.01790  0.57430  Biso   1.000  C
  C48      1.0000 0.76650  0.94890  0.58790  Biso   1.000  C
  H41      1.0000 0.74240  0.90790  0.54880  Biso   1.000  H
  C49      1.0000 0.80120  0.93970  0.65710  Biso   1.000  C
  H42      1.0000 0.80110  0.89240  0.66610  Biso   1.000  H
  O8       1.0000 0.14380  0.92170  0.94030  Biso   1.000  O
  C50      1.0000 0.15010  0.76770  0.05230  Biso   1.000  C
  H43      1.0000 0.10800  0.75290  0.08930  Biso   1.000  H
  C51      1.0000 0.18970  0.72760  0.05180  Biso   1.000  C
  H44      1.0000 0.17500  0.68530  0.08870  Biso   1.000  H
  C52      1.0000 0.23020  0.16090  0.69900  Biso   1.000  C
  H45      1.0000 0.24710  0.13680  0.73800  Biso   1.000  H
  C53      1.0000 0.27380  0.19570  0.62970  Biso   1.000  C
  H46      1.0000 0.32090  0.19560  0.62060  Biso   1.000  H
  C54      1.0000 0.24980  0.23190  0.57430  Biso   1.000  C
  C55      1.0000 0.18240  0.23350  0.58790  Biso   1.000  C
  H47      1.0000 0.16550  0.25760  0.54880  Biso   1.000  H
  C56      1.0000 0.13850  0.19880  0.65710  Biso   1.000  C
  H48      1.0000 0.09130  0.19890  0.66610  Biso   1.000  H
  O9       1.0000 0.77790  0.85620  0.94030  Biso   1.000  O
  C57      1.0000 0.61760  0.84990  0.05230  Biso   1.000  C
  H49      1.0000 0.64490  0.89200  0.08930  Biso   1.000  H
  C58      1.0000 0.53790  0.81030  0.05180  Biso   1.000  C
  H50      1.0000 0.51030  0.82500  0.08870  Biso   1.000  H
  C59      1.0000 0.93070  0.76980  0.69900  Biso   1.000  C
  H51      1.0000 0.88970  0.75290  0.73800  Biso   1.000  H
  C60      1.0000 0.92190  0.72620  0.62970  Biso   1.000  C
  H52      1.0000 0.87470  0.67910  0.62060  Biso   1.000  H
  C61      1.0000 0.98210  0.75020  0.57430  Biso   1.000  C
  C62      1.0000 0.05110  0.81760  0.58790  Biso   1.000  C
  H53      1.0000 0.09210  0.83450  0.54880  Biso   1.000  H
  C63      1.0000 0.06030  0.86150  0.65710  Biso   1.000  C
  H54      1.0000 0.10760  0.90870  0.66610  Biso   1.000  H
  O10      1.0000 0.92170  0.77790  0.94030  Biso   1.000  O
  C64      1.0000 0.76770  0.61760  0.05230  Biso   1.000  C
  H55      1.0000 0.75290  0.64490  0.08930  Biso   1.000  H
  C65      1.0000 0.72760  0.53790  0.05180  Biso   1.000  C
  H56      1.0000 0.68530  0.51030  0.08870  Biso   1.000  H
  C66      1.0000 0.16090  0.93070  0.69900  Biso   1.000  C
  H57      1.0000 0.13680  0.88970  0.73800  Biso   1.000  H
  C67      1.0000 0.19570  0.92190  0.62970  Biso   1.000  C
  H58      1.0000 0.19560  0.87470  0.62060  Biso   1.000  H
  C68      1.0000 0.23190  0.98210  0.57430  Biso   1.000  C
  C69      1.0000 0.23350  0.05110  0.58790  Biso   1.000  C
  H59      1.0000 0.25760  0.09210  0.54880  Biso   1.000  H
  C70      1.0000 0.19880  0.06030  0.65710  Biso   1.000  C
  H60      1.0000 0.19890  0.10760  0.66610  Biso   1.000  H
  O11      1.0000 0.85620  0.07830  0.94030  Biso   1.000  O
  C71      1.0000 0.84990  0.23230  0.05230  Biso   1.000  C
  H61      1.0000 0.89200  0.24710  0.08930  Biso   1.000  H
  C72      1.0000 0.81030  0.27240  0.05180  Biso   1.000  C
  H62      1.0000 0.82500  0.31470  0.08870  Biso   1.000  H
  C73      1.0000 0.76980  0.83910  0.69900  Biso   1.000  C
  H63      1.0000 0.75290  0.86320  0.73800  Biso   1.000  H
  C74      1.0000 0.72620  0.80430  0.62970  Biso   1.000  C
  H64      1.0000 0.67910  0.80440  0.62060  Biso   1.000  H
  C75      1.0000 0.75020  0.76810  0.57430  Biso   1.000  C
  C76      1.0000 0.81760  0.76650  0.58790  Biso   1.000  C
  H65      1.0000 0.83450  0.74240  0.54880  Biso   1.000  H
  C77      1.0000 0.86150  0.80120  0.65710  Biso   1.000  C
  H66      1.0000 0.90870  0.80110  0.66610  Biso   1.000  H
  O12      1.0000 0.22210  0.14380  0.94030  Biso   1.000  O
  C78      1.0000 0.38240  0.15010  0.05230  Biso   1.000  C
  H67      1.0000 0.35510  0.10800  0.08930  Biso   1.000  H
  C79      1.0000 0.46210  0.18970  0.05180  Biso   1.000  C
  H68      1.0000 0.48970  0.17500  0.08870  Biso   1.000  H
  C80      1.0000 0.06930  0.23020  0.69900  Biso   1.000  C
  H69      1.0000 0.11030  0.24710  0.73800  Biso   1.000  H
  C81      1.0000 0.07810  0.27380  0.62970  Biso   1.000  C
  H70      1.0000 0.12530  0.32090  0.62060  Biso   1.000  H
  C82      1.0000 0.01790  0.24980  0.57430  Biso   1.000  C
  C83      1.0000 0.94890  0.18240  0.58790  Biso   1.000  C
  H71      1.0000 0.90790  0.16550  0.54880  Biso   1.000  H
  C84      1.0000 0.93970  0.13850  0.65710  Biso   1.000  C
  H72      1.0000 0.89240  0.09130  0.66610  Biso   1.000  H
  O13      1.0000 0.77790  0.92170  0.94030  Biso   1.000  O
  C85      1.0000 0.61760  0.76770  0.05230  Biso   1.000  C
  H73      1.0000 0.64490  0.75290  0.08930  Biso   1.000  H
  C86      1.0000 0.53790  0.72760  0.05180  Biso   1.000  C
  H74      1.0000 0.51030  0.68530  0.08870  Biso   1.000  H
  C87      1.0000 0.93070  0.16090  0.69900  Biso   1.000  C
  H75      1.0000 0.88970  0.13680  0.73800  Biso   1.000  H
  C88      1.0000 0.92190  0.19570  0.62970  Biso   1.000  C
  H76      1.0000 0.87470  0.19560  0.62060  Biso   1.000  H
  C89      1.0000 0.98210  0.23190  0.57430  Biso   1.000  C
  C90      1.0000 0.05110  0.23350  0.58790  Biso   1.000  C
  H77      1.0000 0.09210  0.25760  0.54880  Biso   1.000  H
  C91      1.0000 0.06030  0.19880  0.65710  Biso   1.000  C
  H78      1.0000 0.10760  0.19890  0.66610  Biso   1.000  H
  O14      1.0000 0.07830  0.85620  0.94030  Biso   1.000  O
  C92      1.0000 0.23230  0.84990  0.05230  Biso   1.000  C
  H79      1.0000 0.24710  0.89200  0.08930  Biso   1.000  H
  C93      1.0000 0.27240  0.81030  0.05180  Biso   1.000  C
  H80      1.0000 0.31470  0.82500  0.08870  Biso   1.000  H
  C94      1.0000 0.83910  0.76980  0.69900  Biso   1.000  C
  H81      1.0000 0.86320  0.75290  0.73800  Biso   1.000  H
  C95      1.0000 0.80430  0.72620  0.62970  Biso   1.000  C
  H82      1.0000 0.80440  0.67910  0.62060  Biso   1.000  H
  C96      1.0000 0.76810  0.75020  0.57430  Biso   1.000  C
  C97      1.0000 0.76650  0.81760  0.58790  Biso   1.000  C
  H83      1.0000 0.74240  0.83450  0.54880  Biso   1.000  H
  C98      1.0000 0.80120  0.86150  0.65710  Biso   1.000  C
  H84      1.0000 0.80110  0.90870  0.66610  Biso   1.000  H
  O15      1.0000 0.14380  0.22210  0.94030  Biso   1.000  O
  C99      1.0000 0.15010  0.38240  0.05230  Biso   1.000  C
  H85      1.0000 0.10800  0.35510  0.08930  Biso   1.000  H
  C100     1.0000 0.18970  0.46210  0.05180  Biso   1.000  C
  H86      1.0000 0.17500  0.48970  0.08870  Biso   1.000  H
  C101     1.0000 0.23020  0.06930  0.69900  Biso   1.000  C
  H87      1.0000 0.24710  0.11030  0.73800  Biso   1.000  H
  C102     1.0000 0.27380  0.07810  0.62970  Biso   1.000  C
  H88      1.0000 0.32090  0.12530  0.62060  Biso   1.000  H
  C103     1.0000 0.24980  0.01790  0.57430  Biso   1.000  C
  C104     1.0000 0.18240  0.94890  0.58790  Biso   1.000  C
  H89      1.0000 0.16550  0.90790  0.54880  Biso   1.000  H
  C105     1.0000 0.13850  0.93970  0.65710  Biso   1.000  C
  H90      1.0000 0.09130  0.89240  0.66610  Biso   1.000  H
  O16      1.0000 0.22210  0.07830  0.94030  Biso   1.000  O
  C106     1.0000 0.38240  0.23230  0.05230  Biso   1.000  C
  H91      1.0000 0.35510  0.24710  0.08930  Biso   1.000  H
  C107     1.0000 0.46210  0.27240  0.05180  Biso   1.000  C
  H92      1.0000 0.48970  0.31470  0.08870  Biso   1.000  H
  C108     1.0000 0.06930  0.83910  0.69900  Biso   1.000  C
  H93      1.0000 0.11030  0.86320  0.73800  Biso   1.000  H
  C109     1.0000 0.07810  0.80430  0.62970  Biso   1.000  C
  H94      1.0000 0.12530  0.80440  0.62060  Biso   1.000  H
  C110     1.0000 0.01790  0.76810  0.57430  Biso   1.000  C
  C111     1.0000 0.94890  0.76650  0.58790  Biso   1.000  C
  H95      1.0000 0.90790  0.74240  0.54880  Biso   1.000  H
  C112     1.0000 0.93970  0.80120  0.65710  Biso   1.000  C
  H96      1.0000 0.89240  0.80110  0.66610  Biso   1.000  H
  O17      1.0000 0.92170  0.14380  0.94030  Biso   1.000  O
  C113     1.0000 0.76770  0.15010  0.05230  Biso   1.000  C
  H97      1.0000 0.75290  0.10800  0.08930  Biso   1.000  H
  C114     1.0000 0.72760  0.18970  0.05180  Biso   1.000  C
  H98      1.0000 0.68530  0.17500  0.08870  Biso   1.000  H
  C115     1.0000 0.16090  0.23020  0.69900  Biso   1.000  C
  H99      1.0000 0.13680  0.24710  0.73800  Biso   1.000  H
  C116     1.0000 0.19570  0.27380  0.62970  Biso   1.000  C
  H100     1.0000 0.19560  0.32090  0.62060  Biso   1.000  H
  C117     1.0000 0.23190  0.24980  0.57430  Biso   1.000  C
  C118     1.0000 0.23350  0.18240  0.58790  Biso   1.000  C
  H101     1.0000 0.25760  0.16550  0.54880  Biso   1.000  H
  C119     1.0000 0.19880  0.13850  0.65710  Biso   1.000  C
  H102     1.0000 0.19890  0.09130  0.66610  Biso   1.000  H
  O18      1.0000 0.85620  0.77790  0.94030  Biso   1.000  O
  C120     1.0000 0.84990  0.61760  0.05230  Biso   1.000  C
  H103     1.0000 0.89200  0.64490  0.08930  Biso   1.000  H
  C121     1.0000 0.81030  0.53790  0.05180  Biso   1.000  C
  H104     1.0000 0.82500  0.51030  0.08870  Biso   1.000  H
  C122     1.0000 0.76980  0.93070  0.69900  Biso   1.000  C
  H105     1.0000 0.75290  0.88970  0.73800  Biso   1.000  H
  C123     1.0000 0.72620  0.92190  0.62970  Biso   1.000  C
  H106     1.0000 0.67910  0.87470  0.62060  Biso   1.000  H
  C124     1.0000 0.75020  0.98210  0.57430  Biso   1.000  C
  C125     1.0000 0.81760  0.05110  0.58790  Biso   1.000  C
  H107     1.0000 0.83450  0.09210  0.54880  Biso   1.000  H
  C126     1.0000 0.86150  0.06030  0.65710  Biso   1.000  C
  H108     1.0000 0.90870  0.10760  0.66610  Biso   1.000  H
  O19      1.0000 0.92170  0.77790  0.05970  Biso   1.000  O
  C127     1.0000 0.76770  0.61760  0.94770  Biso   1.000  C
  H109     1.0000 0.75290  0.64490  0.91070  Biso   1.000  H
  C128     1.0000 0.72760  0.53790  0.94820  Biso   1.000  C
  H110     1.0000 0.68530  0.51030  0.91130  Biso   1.000  H
  C129     1.0000 0.16090  0.93070  0.30100  Biso   1.000  C
  H111     1.0000 0.13680  0.88970  0.26200  Biso   1.000  H
  C130     1.0000 0.19570  0.92190  0.37030  Biso   1.000  C
  H112     1.0000 0.19560  0.87470  0.37940  Biso   1.000  H
  C131     1.0000 0.23190  0.98210  0.42570  Biso   1.000  C
  C132     1.0000 0.23350  0.05110  0.41210  Biso   1.000  C
  H113     1.0000 0.25760  0.09210  0.45120  Biso   1.000  H
  C133     1.0000 0.19880  0.06030  0.34290  Biso   1.000  C
  H114     1.0000 0.19890  0.10760  0.33390  Biso   1.000  H
  O20      1.0000 0.85620  0.07830  0.05970  Biso   1.000  O
  C134     1.0000 0.84990  0.23230  0.94770  Biso   1.000  C
  H115     1.0000 0.89200  0.24710  0.91070  Biso   1.000  H
  C135     1.0000 0.81030  0.27240  0.94820  Biso   1.000  C
  H116     1.0000 0.82500  0.31470  0.91130  Biso   1.000  H
  C136     1.0000 0.76980  0.83910  0.30100  Biso   1.000  C
  H117     1.0000 0.75290  0.86320  0.26200  Biso   1.000  H
  C137     1.0000 0.72620  0.80430  0.37030  Biso   1.000  C
  H118     1.0000 0.67910  0.80440  0.37940  Biso   1.000  H
  C138     1.0000 0.75020  0.76810  0.42570  Biso   1.000  C
  C139     1.0000 0.81760  0.76650  0.41210  Biso   1.000  C
  H119     1.0000 0.83450  0.74240  0.45120  Biso   1.000  H
  C140     1.0000 0.86150  0.80120  0.34290  Biso   1.000  C
  H120     1.0000 0.90870  0.80110  0.33390  Biso   1.000  H
  O21      1.0000 0.22210  0.14380  0.05970  Biso   1.000  O
  C141     1.0000 0.38240  0.15010  0.94770  Biso   1.000  C
  H121     1.0000 0.35510  0.10800  0.91070  Biso   1.000  H
  C142     1.0000 0.46210  0.18970  0.94820  Biso   1.000  C
  H122     1.0000 0.48970  0.17500  0.91130  Biso   1.000  H
  C143     1.0000 0.06930  0.23020  0.30100  Biso   1.000  C
  H123     1.0000 0.11030  0.24710  0.26200  Biso   1.000  H
  C144     1.0000 0.07810  0.27380  0.37030  Biso   1.000  C
  H124     1.0000 0.12530  0.32090  0.37940  Biso   1.000  H
  C145     1.0000 0.01790  0.24980  0.42570  Biso   1.000  C
  C146     1.0000 0.94890  0.18240  0.41210  Biso   1.000  C
  H125     1.0000 0.90790  0.16550  0.45120  Biso   1.000  H
  C147     1.0000 0.93970  0.13850  0.34290  Biso   1.000  C
  H126     1.0000 0.89240  0.09130  0.33390  Biso   1.000  H
  O22      1.0000 0.07830  0.22210  0.05970  Biso   1.000  O
  C148     1.0000 0.23230  0.38240  0.94770  Biso   1.000  C
  H127     1.0000 0.24710  0.35510  0.91070  Biso   1.000  H
  C149     1.0000 0.27240  0.46210  0.94820  Biso   1.000  C
  H128     1.0000 0.31470  0.48970  0.91130  Biso   1.000  H
  C150     1.0000 0.83910  0.06930  0.30100  Biso   1.000  C
  H129     1.0000 0.86320  0.11030  0.26200  Biso   1.000  H
  C151     1.0000 0.80430  0.07810  0.37030  Biso   1.000  C
  H130     1.0000 0.80440  0.12530  0.37940  Biso   1.000  H
  C152     1.0000 0.76810  0.01790  0.42570  Biso   1.000  C
  C153     1.0000 0.76650  0.94890  0.41210  Biso   1.000  C
  H131     1.0000 0.74240  0.90790  0.45120  Biso   1.000  H
  C154     1.0000 0.80120  0.93970  0.34290  Biso   1.000  C
  H132     1.0000 0.80110  0.89240  0.33390  Biso   1.000  H
  O23      1.0000 0.14380  0.92170  0.05970  Biso   1.000  O
  C155     1.0000 0.15010  0.76770  0.94770  Biso   1.000  C
  H133     1.0000 0.10800  0.75290  0.91070  Biso   1.000  H
  C156     1.0000 0.18970  0.72760  0.94820  Biso   1.000  C
  H134     1.0000 0.17500  0.68530  0.91130  Biso   1.000  H
  C157     1.0000 0.23020  0.16090  0.30100  Biso   1.000  C
  H135     1.0000 0.24710  0.13680  0.26200  Biso   1.000  H
  C158     1.0000 0.27380  0.19570  0.37030  Biso   1.000  C
  H136     1.0000 0.32090  0.19560  0.37940  Biso   1.000  H
  C159     1.0000 0.24980  0.23190  0.42570  Biso   1.000  C
  C160     1.0000 0.18240  0.23350  0.41210  Biso   1.000  C
  H137     1.0000 0.16550  0.25760  0.45120  Biso   1.000  H
  C161     1.0000 0.13850  0.19880  0.34290  Biso   1.000  C
  H138     1.0000 0.09130  0.19890  0.33390  Biso   1.000  H
  O24      1.0000 0.77790  0.85620  0.05970  Biso   1.000  O
  C162     1.0000 0.61760  0.84990  0.94770  Biso   1.000  C
  H139     1.0000 0.64490  0.89200  0.91070  Biso   1.000  H
  C163     1.0000 0.53790  0.81030  0.94820  Biso   1.000  C
  H140     1.0000 0.51030  0.82500  0.91130  Biso   1.000  H
  C164     1.0000 0.93070  0.76980  0.30100  Biso   1.000  C
  H141     1.0000 0.88970  0.75290  0.26200  Biso   1.000  H
  C165     1.0000 0.92190  0.72620  0.37030  Biso   1.000  C
  H142     1.0000 0.87470  0.67910  0.37940  Biso   1.000  H
  C166     1.0000 0.98210  0.75020  0.42570  Biso   1.000  C
  C167     1.0000 0.05110  0.81760  0.41210  Biso   1.000  C
  H143     1.0000 0.09210  0.83450  0.45120  Biso   1.000  H
  C168     1.0000 0.06030  0.86150  0.34290  Biso   1.000  C
  H144     1.0000 0.10760  0.90870  0.33390  Biso   1.000  H
  Zr1      1.0000 0.10260  0.00000  0.08530  Biso   1.000  Zr
  O25      1.0000 0.09320  0.00000  0.04430  Biso   1.000  O
  Zr2      1.0000 0.00000  0.10260  0.08530  Biso   1.000  Zr
  O26      1.0000 0.00000  0.09320  0.04430  Biso   1.000  O
  Zr3      1.0000 0.89740  0.89740  0.08530  Biso   1.000  Zr
  O27      1.0000 0.90680  0.90680  0.04430  Biso   1.000  O
  Zr4      1.0000 0.89740  0.00000  0.08530  Biso   1.000  Zr
  O28      1.0000 0.90680  0.00000  0.04430  Biso   1.000  O
  Zr5      1.0000 0.00000  0.89740  0.08530  Biso   1.000  Zr
  O29      1.0000 0.00000  0.90680  0.04430  Biso   1.000  O
  Zr6      1.0000 0.10260  0.10260  0.08530  Biso   1.000  Zr
  O30      1.0000 0.09320  0.09320  0.04430  Biso   1.000  O
  Zr7      1.0000 0.00000  0.10260  0.91470  Biso   1.000  Zr
  O31      1.0000 0.00000  0.09320  0.95570  Biso   1.000  O
  Zr8      1.0000 0.10260  0.00000  0.91470  Biso   1.000  Zr
  O32      1.0000 0.09320  0.00000  0.95570  Biso   1.000  O
  Zr9      1.0000 0.89740  0.89740  0.91470  Biso   1.000  Zr
  O33      1.0000 0.90680  0.90680  0.95570  Biso   1.000  O
  Zr10     1.0000 0.00000  0.89740  0.91470  Biso   1.000  Zr
  O34      1.0000 0.00000  0.90680  0.95570  Biso   1.000  O
  Zr11     1.0000 0.89740  0.00000  0.91470  Biso   1.000  Zr
  O35      1.0000 0.90680  0.00000  0.95570  Biso   1.000  O
  Zr12     1.0000 0.10260  0.10260  0.91470  Biso   1.000  Zr
  O36      1.0000 0.09320  0.09320  0.95570  Biso   1.000  O
  O37      1.0000 0.00000  0.00000  0.12500  Biso   1.000  O
  O38      1.0000 0.00000  0.00000  0.87500  Biso   1.000  O
  C169     1.0000 0.25330  0.12665  0.00000  Biso   1.000  C
  C170     1.0000 0.34170  0.17085  0.00000  Biso   1.000  C
  C171     1.0000 0.50280  0.25140  0.00000  Biso   1.000  C
  C172     1.0000 0.58640  0.29320  0.00000  Biso   1.000  C
  C173     1.0000 0.87335  0.12665  0.00000  Biso   1.000  C
  C174     1.0000 0.82915  0.17085  0.00000  Biso   1.000  C
  C175     1.0000 0.74860  0.25140  0.00000  Biso   1.000  C
  C176     1.0000 0.70680  0.29320  0.00000  Biso   1.000  C
  C177     1.0000 0.87335  0.74670  0.00000  Biso   1.000  C
  C178     1.0000 0.82915  0.65830  0.00000  Biso   1.000  C
  C179     1.0000 0.74860  0.49720  0.00000  Biso   1.000  C
  C180     1.0000 0.70680  0.41360  0.00000  Biso   1.000  C
  C181     1.0000 0.74670  0.87335  0.00000  Biso   1.000  C
  C182     1.0000 0.65830  0.82915  0.00000  Biso   1.000  C
  C183     1.0000 0.49720  0.74860  0.00000  Biso   1.000  C
  C184     1.0000 0.41360  0.70680  0.00000  Biso   1.000  C
  C185     1.0000 0.12665  0.87335  0.00000  Biso   1.000  C
  C186     1.0000 0.17085  0.82915  0.00000  Biso   1.000  C
  C187     1.0000 0.25140  0.74860  0.00000  Biso   1.000  C
  C188     1.0000 0.29320  0.70680  0.00000  Biso   1.000  C
  C189     1.0000 0.12665  0.25330  0.00000  Biso   1.000  C
  C190     1.0000 0.17085  0.34170  0.00000  Biso   1.000  C
  C191     1.0000 0.25140  0.50280  0.00000  Biso   1.000  C
  C192     1.0000 0.29320  0.58640  0.00000  Biso   1.000  C
  C193     1.0000 0.62675  0.25350  0.00000  Biso   1.000  C
  H145     1.0000 0.59915  0.19830  0.00000  Biso   1.000  H
  C194     1.0000 0.74650  0.37325  0.00000  Biso   1.000  C
  H146     1.0000 0.80170  0.40085  0.00000  Biso   1.000  H
  C195     1.0000 0.62675  0.37325  0.00000  Biso   1.000  C
  H147     1.0000 0.59915  0.40085  0.00000  Biso   1.000  H
  C196     1.0000 0.37325  0.74650  0.00000  Biso   1.000  C
  H148     1.0000 0.40085  0.80170  0.00000  Biso   1.000  H
  C197     1.0000 0.25350  0.62675  0.00000  Biso   1.000  C
  H149     1.0000 0.19830  0.59915  0.00000  Biso   1.000  H
  C198     1.0000 0.37325  0.62675  0.00000  Biso   1.000  C
  H150     1.0000 0.40085  0.59915  0.00000  Biso   1.000  H
  O39      1.0000 0.07260  0.92740  0.18350  Biso   1.000  O
  O40      1.0000 0.07260  0.14520  0.18350  Biso   1.000  O
  O41      1.0000 0.85480  0.92740  0.18350  Biso   1.000  O
  O42      1.0000 0.92740  0.07260  0.18350  Biso   1.000  O
  O43      1.0000 0.92740  0.85480  0.18350  Biso   1.000  O
  O44      1.0000 0.14520  0.07260  0.18350  Biso   1.000  O
  O45      1.0000 0.92740  0.07260  0.81650  Biso   1.000  O
  O46      1.0000 0.14520  0.07260  0.81650  Biso   1.000  O
  O47      1.0000 0.92740  0.85480  0.81650  Biso   1.000  O
  O48      1.0000 0.07260  0.92740  0.81650  Biso   1.000  O
  O49      1.0000 0.85480  0.92740  0.81650  Biso   1.000  O
  O50      1.0000 0.07260  0.14520  0.81650  Biso   1.000  O
  C199     1.0000 0.00000  0.88123  0.20290  Biso   1.000  C
  C200     1.0000 0.00000  0.83743  0.28750  Biso   1.000  C
  C201     1.0000 0.11877  0.11877  0.20290  Biso   1.000  C
  C202     1.0000 0.16257  0.16257  0.28750  Biso   1.000  C
  C203     1.0000 0.88123  0.00000  0.20290  Biso   1.000  C
  C204     1.0000 0.83743  0.00000  0.28750  Biso   1.000  C
  C205     1.0000 0.00000  0.11877  0.20290  Biso   1.000  C
  C206     1.0000 0.00000  0.16257  0.28750  Biso   1.000  C
  C207     1.0000 0.88123  0.88123  0.20290  Biso   1.000  C
  C208     1.0000 0.83743  0.83743  0.28750  Biso   1.000  C
  C209     1.0000 0.11877  0.00000  0.20290  Biso   1.000  C
  C210     1.0000 0.16257  0.00000  0.28750  Biso   1.000  C
  C211     1.0000 0.88123  0.00000  0.79710  Biso   1.000  C
  C212     1.0000 0.83743  0.00000  0.71250  Biso   1.000  C
  C213     1.0000 0.11877  0.11877  0.79710  Biso   1.000  C
  C214     1.0000 0.16257  0.16257  0.71250  Biso   1.000  C
  C215     1.0000 0.00000  0.88123  0.79710  Biso   1.000  C
  C216     1.0000 0.00000  0.83743  0.71250  Biso   1.000  C
  C217     1.0000 0.11877  0.00000  0.79710  Biso   1.000  C
  C218     1.0000 0.16257  0.00000  0.71250  Biso   1.000  C
  C219     1.0000 0.88123  0.88123  0.79710  Biso   1.000  C
  C220     1.0000 0.83743  0.83743  0.71250  Biso   1.000  C
  C221     1.0000 0.00000  0.11877  0.79710  Biso   1.000  C
  C222     1.0000 0.00000  0.16257  0.71250  Biso   1.000  C
  S1       1.0000 0.02640  0.71520  0.50000  Biso   1.000  S
  O51      1.0000 0.10400  0.71500  0.50000  Biso   1.000  O
  O52      1.0000 0.96200  0.62900  0.50000  Biso   1.000  O
  S2       1.0000 0.28480  0.31120  0.50000  Biso   1.000  S
  O53      1.0000 0.28500  0.38900  0.50000  Biso   1.000  O
  O54      1.0000 0.37100  0.33300  0.50000  Biso   1.000  O
  S3       1.0000 0.68880  0.97360  0.50000  Biso   1.000  S
  O55      1.0000 0.61100  0.89600  0.50000  Biso   1.000  O
  O56      1.0000 0.66700  0.03800  0.50000  Biso   1.000  O
  S4       1.0000 0.97360  0.28480  0.50000  Biso   1.000  S
  O57      1.0000 0.89600  0.28500  0.50000  Biso   1.000  O
  O58      1.0000 0.03800  0.37100  0.50000  Biso   1.000  O
  S5       1.0000 0.71520  0.68880  0.50000  Biso   1.000  S
  O59      1.0000 0.71500  0.61100  0.50000  Biso   1.000  O
  O60      1.0000 0.62900  0.66700  0.50000  Biso   1.000  O
  S6       1.0000 0.31120  0.02640  0.50000  Biso   1.000  S
  O61      1.0000 0.38900  0.10400  0.50000  Biso   1.000  O
  O62      1.0000 0.33300  0.96200  0.50000  Biso   1.000  O
  S7       1.0000 0.71520  0.02640  0.50000  Biso   1.000  S
  O63      1.0000 0.71500  0.10400  0.50000  Biso   1.000  O
  O64      1.0000 0.62900  0.96200  0.50000  Biso   1.000  O
  S8       1.0000 0.31120  0.28480  0.50000  Biso   1.000  S
  O65      1.0000 0.38900  0.28500  0.50000  Biso   1.000  O
  O66      1.0000 0.33300  0.37100  0.50000  Biso   1.000  O
  S9       1.0000 0.97360  0.68880  0.50000  Biso   1.000  S
  O67      1.0000 0.89600  0.61100  0.50000  Biso   1.000  O
  O68      1.0000 0.03800  0.66700  0.50000  Biso   1.000  O
  S10      1.0000 0.28480  0.97360  0.50000  Biso   1.000  S
  O69      1.0000 0.28500  0.89600  0.50000  Biso   1.000  O
  O70      1.0000 0.37100  0.03800  0.50000  Biso   1.000  O
  S11      1.0000 0.68880  0.71520  0.50000  Biso   1.000  S
  O71      1.0000 0.61100  0.71500  0.50000  Biso   1.000  O
  O72      1.0000 0.66700  0.62900  0.50000  Biso   1.000  O
  S12      1.0000 0.02640  0.31120  0.50000  Biso   1.000  S
  O73      1.0000 0.10400  0.38900  0.50000  Biso   1.000  O
  O74      1.0000 0.96200  0.33300  0.50000  Biso   1.000  O
