data_image0
_cell_length_a       22.9511
_cell_length_b       22.9511
_cell_length_c       15.8965
_cell_angle_alpha    90
_cell_angle_beta     90
_cell_angle_gamma    120

_symmetry_space_group_name_H-M    "P 1"
_symmetry_int_tables_number       1

loop_
  _symmetry_equiv_pos_as_xyz
  'x, y, z'

loop_
  _atom_site_label
  _atom_site_occupancy
  _atom_site_fract_x
  _atom_site_fract_y
  _atom_site_fract_z
  _atom_site_thermal_displace_type
  _atom_site_B_iso_or_equiv
  _atom_site_type_symbol
  Zn1      1.0000 0.64116  0.88155  0.07530  Biso   1.000  Zn
  O1       1.0000 0.68280  0.83410  0.00570  Biso   1.000  O
  O2       1.0000 0.59420  0.67850  0.04500  Biso   1.000  O
  C1       1.0000 0.69000  0.89170  0.87810  Biso   1.000  C
  O3       1.0000 0.63490  0.93140  0.17060  Biso   1.000  O
  C2       1.0000 0.65300  0.77710  0.87510  Biso   1.000  C
  H1       1.0000 0.64310  0.73750  0.90270  Biso   1.000  H
  C3       1.0000 0.67620  0.83470  0.92160  Biso   1.000  C
  C4       1.0000 0.57640  0.62780  0.08620  Biso   1.000  C
  O4       1.0000 0.53820  0.84260  0.03220  Biso   1.000  O
  C5       1.0000 0.51640  0.84570  0.95710  Biso   1.000  C
  Zn2      1.0000 0.30783  0.21488  0.40863  Biso   1.000  Zn
  O5       1.0000 0.34947  0.16743  0.33903  Biso   1.000  O
  O6       1.0000 0.26087  0.01183  0.37833  Biso   1.000  O
  C6       1.0000 0.35667  0.22503  0.21143  Biso   1.000  C
  O7       1.0000 0.30157  0.26473  0.50393  Biso   1.000  O
  C7       1.0000 0.31967  0.11043  0.20843  Biso   1.000  C
  H2       1.0000 0.30977  0.07083  0.23603  Biso   1.000  H
  C8       1.0000 0.34287  0.16803  0.25493  Biso   1.000  C
  C9       1.0000 0.24307  0.96113  0.41953  Biso   1.000  C
  O8       1.0000 0.20487  0.17593  0.36553  Biso   1.000  O
  C10      1.0000 0.18307  0.17903  0.29043  Biso   1.000  C
  Zn3      1.0000 0.97449  0.54822  0.74197  Biso   1.000  Zn
  O9       1.0000 0.01613  0.50077  0.67237  Biso   1.000  O
  O10      1.0000 0.92753  0.34517  0.71167  Biso   1.000  O
  C11      1.0000 0.02333  0.55837  0.54477  Biso   1.000  C
  O11      1.0000 0.96823  0.59807  0.83727  Biso   1.000  O
  C12      1.0000 0.98633  0.44377  0.54177  Biso   1.000  C
  H3       1.0000 0.97643  0.40417  0.56937  Biso   1.000  H
  C13      1.0000 0.00953  0.50137  0.58827  Biso   1.000  C
  C14      1.0000 0.90973  0.29447  0.75287  Biso   1.000  C
  O12      1.0000 0.87153  0.50927  0.69887  Biso   1.000  O
  C15      1.0000 0.84973  0.51237  0.62377  Biso   1.000  C
  Zn4      1.0000 0.11845  0.75961  0.07530  Biso   1.000  Zn
  O13      1.0000 0.16590  0.84870  0.00570  Biso   1.000  O
  O14      1.0000 0.32150  0.91570  0.04500  Biso   1.000  O
  C16      1.0000 0.10830  0.79830  0.87810  Biso   1.000  C
  O15      1.0000 0.06860  0.70350  0.17060  Biso   1.000  O
  C17      1.0000 0.22290  0.87590  0.87510  Biso   1.000  C
  H4       1.0000 0.26250  0.90560  0.90270  Biso   1.000  H
  C18      1.0000 0.16530  0.84150  0.92160  Biso   1.000  C
  C19      1.0000 0.37220  0.94860  0.08620  Biso   1.000  C
  O16      1.0000 0.15740  0.69560  0.03220  Biso   1.000  O
  C20      1.0000 0.15430  0.67070  0.95710  Biso   1.000  C
  Zn5      1.0000 0.78512  0.09294  0.40863  Biso   1.000  Zn
  O17      1.0000 0.83257  0.18203  0.33903  Biso   1.000  O
  O18      1.0000 0.98817  0.24903  0.37833  Biso   1.000  O
  C21      1.0000 0.77497  0.13163  0.21143  Biso   1.000  C
  O19      1.0000 0.73527  0.03683  0.50393  Biso   1.000  O
  C22      1.0000 0.88957  0.20923  0.20843  Biso   1.000  C
  H5       1.0000 0.92917  0.23893  0.23603  Biso   1.000  H
  C23      1.0000 0.83197  0.17483  0.25493  Biso   1.000  C
  C24      1.0000 0.03887  0.28193  0.41953  Biso   1.000  C
  O20      1.0000 0.82407  0.02893  0.36553  Biso   1.000  O
  C25      1.0000 0.82097  0.00403  0.29043  Biso   1.000  C
  Zn6      1.0000 0.45178  0.42628  0.74197  Biso   1.000  Zn
  O21      1.0000 0.49923  0.51537  0.67237  Biso   1.000  O
  O22      1.0000 0.65483  0.58237  0.71167  Biso   1.000  O
  C26      1.0000 0.44163  0.46497  0.54477  Biso   1.000  C
  O23      1.0000 0.40193  0.37017  0.83727  Biso   1.000  O
  C27      1.0000 0.55623  0.54257  0.54177  Biso   1.000  C
  H6       1.0000 0.59583  0.57227  0.56937  Biso   1.000  H
  C28      1.0000 0.49863  0.50817  0.58827  Biso   1.000  C
  C29      1.0000 0.70553  0.61527  0.75287  Biso   1.000  C
  O24      1.0000 0.49073  0.36227  0.69887  Biso   1.000  O
  C30      1.0000 0.48763  0.33737  0.62377  Biso   1.000  C
  Zn7      1.0000 0.24039  0.35884  0.07530  Biso   1.000  Zn
  O25      1.0000 0.15130  0.31720  0.00570  Biso   1.000  O
  O26      1.0000 0.08430  0.40580  0.04500  Biso   1.000  O
  C31      1.0000 0.20170  0.31000  0.87810  Biso   1.000  C
  O27      1.0000 0.29650  0.36510  0.17060  Biso   1.000  O
  C32      1.0000 0.12410  0.34700  0.87510  Biso   1.000  C
  H7       1.0000 0.09440  0.35690  0.90270  Biso   1.000  H
  C33      1.0000 0.15850  0.32380  0.92160  Biso   1.000  C
  C34      1.0000 0.05140  0.42360  0.08620  Biso   1.000  C
  O28      1.0000 0.30440  0.46180  0.03220  Biso   1.000  O
  C35      1.0000 0.32930  0.48360  0.95710  Biso   1.000  C
  Zn8      1.0000 0.90706  0.69217  0.40863  Biso   1.000  Zn
  O29      1.0000 0.81797  0.65053  0.33903  Biso   1.000  O
  O30      1.0000 0.75097  0.73913  0.37833  Biso   1.000  O
  C36      1.0000 0.86837  0.64333  0.21143  Biso   1.000  C
  O31      1.0000 0.96317  0.69843  0.50393  Biso   1.000  O
  C37      1.0000 0.79077  0.68033  0.20843  Biso   1.000  C
  H8       1.0000 0.76107  0.69023  0.23603  Biso   1.000  H
  C38      1.0000 0.82517  0.65713  0.25493  Biso   1.000  C
  C39      1.0000 0.71807  0.75693  0.41953  Biso   1.000  C
  O32      1.0000 0.97107  0.79513  0.36553  Biso   1.000  O
  C40      1.0000 0.99597  0.81693  0.29043  Biso   1.000  C
  Zn9      1.0000 0.57372  0.02551  0.74197  Biso   1.000  Zn
  O33      1.0000 0.48463  0.98387  0.67237  Biso   1.000  O
  O34      1.0000 0.41763  0.07247  0.71167  Biso   1.000  O
  C41      1.0000 0.53503  0.97667  0.54477  Biso   1.000  C
  O35      1.0000 0.62983  0.03177  0.83727  Biso   1.000  O
  C42      1.0000 0.45743  0.01367  0.54177  Biso   1.000  C
  H9       1.0000 0.42773  0.02357  0.56937  Biso   1.000  H
  C43      1.0000 0.49183  0.99047  0.58827  Biso   1.000  C
  C44      1.0000 0.38473  0.09027  0.75287  Biso   1.000  C
  O36      1.0000 0.63773  0.12847  0.69887  Biso   1.000  O
  C45      1.0000 0.66263  0.15027  0.62377  Biso   1.000  C
  Zn10     1.0000 0.88155  0.64116  0.42470  Biso   1.000  Zn
  O37      1.0000 0.83410  0.68280  0.49430  Biso   1.000  O
  O38      1.0000 0.67850  0.59420  0.45500  Biso   1.000  O
  C46      1.0000 0.89170  0.69000  0.62190  Biso   1.000  C
  O39      1.0000 0.93140  0.63490  0.32940  Biso   1.000  O
  C47      1.0000 0.77710  0.65300  0.62490  Biso   1.000  C
  H10      1.0000 0.73750  0.64310  0.59730  Biso   1.000  H
  C48      1.0000 0.83470  0.67620  0.57840  Biso   1.000  C
  C49      1.0000 0.62780  0.57640  0.41380  Biso   1.000  C
  O40      1.0000 0.84260  0.53820  0.46780  Biso   1.000  O
  C50      1.0000 0.84570  0.51640  0.54290  Biso   1.000  C
  Zn11     1.0000 0.54822  0.97449  0.75803  Biso   1.000  Zn
  O41      1.0000 0.50077  0.01613  0.82763  Biso   1.000  O
  O42      1.0000 0.34517  0.92753  0.78833  Biso   1.000  O
  C51      1.0000 0.55837  0.02333  0.95523  Biso   1.000  C
  O43      1.0000 0.59807  0.96823  0.66273  Biso   1.000  O
  C52      1.0000 0.44377  0.98633  0.95823  Biso   1.000  C
  H11      1.0000 0.40417  0.97643  0.93063  Biso   1.000  H
  C53      1.0000 0.50137  0.00953  0.91173  Biso   1.000  C
  C54      1.0000 0.29447  0.90973  0.74713  Biso   1.000  C
  O44      1.0000 0.50927  0.87153  0.80113  Biso   1.000  O
  C55      1.0000 0.51237  0.84973  0.87623  Biso   1.000  C
  Zn12     1.0000 0.21488  0.30783  0.09137  Biso   1.000  Zn
  O45      1.0000 0.16743  0.34947  0.16097  Biso   1.000  O
  O46      1.0000 0.01183  0.26087  0.12167  Biso   1.000  O
  C56      1.0000 0.22503  0.35667  0.28857  Biso   1.000  C
  O47      1.0000 0.26473  0.30157  0.99607  Biso   1.000  O
  C57      1.0000 0.11043  0.31967  0.29157  Biso   1.000  C
  H12      1.0000 0.07083  0.30977  0.26397  Biso   1.000  H
  C58      1.0000 0.16803  0.34287  0.24507  Biso   1.000  C
  C59      1.0000 0.96113  0.24307  0.08047  Biso   1.000  C
  O48      1.0000 0.17593  0.20487  0.13447  Biso   1.000  O
  C60      1.0000 0.17903  0.18307  0.20957  Biso   1.000  C
  Zn13     1.0000 0.75961  0.11845  0.42470  Biso   1.000  Zn
  O49      1.0000 0.84870  0.16590  0.49430  Biso   1.000  O
  O50      1.0000 0.91570  0.32150  0.45500  Biso   1.000  O
  C61      1.0000 0.79830  0.10830  0.62190  Biso   1.000  C
  O51      1.0000 0.70350  0.06860  0.32940  Biso   1.000  O
  C62      1.0000 0.87590  0.22290  0.62490  Biso   1.000  C
  H13      1.0000 0.90560  0.26250  0.59730  Biso   1.000  H
  C63      1.0000 0.84150  0.16530  0.57840  Biso   1.000  C
  C64      1.0000 0.94860  0.37220  0.41380  Biso   1.000  C
  O52      1.0000 0.69560  0.15740  0.46780  Biso   1.000  O
  C65      1.0000 0.67070  0.15430  0.54290  Biso   1.000  C
  Zn14     1.0000 0.42628  0.45178  0.75803  Biso   1.000  Zn
  O53      1.0000 0.51537  0.49923  0.82763  Biso   1.000  O
  O54      1.0000 0.58237  0.65483  0.78833  Biso   1.000  O
  C66      1.0000 0.46497  0.44163  0.95523  Biso   1.000  C
  O55      1.0000 0.37017  0.40193  0.66273  Biso   1.000  O
  C67      1.0000 0.54257  0.55623  0.95823  Biso   1.000  C
  H14      1.0000 0.57227  0.59583  0.93063  Biso   1.000  H
  C68      1.0000 0.50817  0.49863  0.91173  Biso   1.000  C
  C69      1.0000 0.61527  0.70553  0.74713  Biso   1.000  C
  O56      1.0000 0.36227  0.49073  0.80113  Biso   1.000  O
  C70      1.0000 0.33737  0.48763  0.87623  Biso   1.000  C
  Zn15     1.0000 0.09294  0.78512  0.09137  Biso   1.000  Zn
  O57      1.0000 0.18203  0.83257  0.16097  Biso   1.000  O
  O58      1.0000 0.24903  0.98817  0.12167  Biso   1.000  O
  C71      1.0000 0.13163  0.77497  0.28857  Biso   1.000  C
  O59      1.0000 0.03683  0.73527  0.99607  Biso   1.000  O
  C72      1.0000 0.20923  0.88957  0.29157  Biso   1.000  C
  H15      1.0000 0.23893  0.92917  0.26397  Biso   1.000  H
  C73      1.0000 0.17483  0.83197  0.24507  Biso   1.000  C
  C74      1.0000 0.28193  0.03887  0.08047  Biso   1.000  C
  O60      1.0000 0.02893  0.82407  0.13447  Biso   1.000  O
  C75      1.0000 0.00403  0.82097  0.20957  Biso   1.000  C
  Zn16     1.0000 0.35884  0.24039  0.42470  Biso   1.000  Zn
  O61      1.0000 0.31720  0.15130  0.49430  Biso   1.000  O
  O62      1.0000 0.40580  0.08430  0.45500  Biso   1.000  O
  C76      1.0000 0.31000  0.20170  0.62190  Biso   1.000  C
  O63      1.0000 0.36510  0.29650  0.32940  Biso   1.000  O
  C77      1.0000 0.34700  0.12410  0.62490  Biso   1.000  C
  H16      1.0000 0.35690  0.09440  0.59730  Biso   1.000  H
  C78      1.0000 0.32380  0.15850  0.57840  Biso   1.000  C
  C79      1.0000 0.42360  0.05140  0.41380  Biso   1.000  C
  O64      1.0000 0.46180  0.30440  0.46780  Biso   1.000  O
  C80      1.0000 0.48360  0.32930  0.54290  Biso   1.000  C
  Zn17     1.0000 0.02551  0.57372  0.75803  Biso   1.000  Zn
  O65      1.0000 0.98387  0.48463  0.82763  Biso   1.000  O
  O66      1.0000 0.07247  0.41763  0.78833  Biso   1.000  O
  C81      1.0000 0.97667  0.53503  0.95523  Biso   1.000  C
  O67      1.0000 0.03177  0.62983  0.66273  Biso   1.000  O
  C82      1.0000 0.01367  0.45743  0.95823  Biso   1.000  C
  H17      1.0000 0.02357  0.42773  0.93063  Biso   1.000  H
  C83      1.0000 0.99047  0.49183  0.91173  Biso   1.000  C
  C84      1.0000 0.09027  0.38473  0.74713  Biso   1.000  C
  O68      1.0000 0.12847  0.63773  0.80113  Biso   1.000  O
  C85      1.0000 0.15027  0.66263  0.87623  Biso   1.000  C
  Zn18     1.0000 0.69217  0.90706  0.09137  Biso   1.000  Zn
  O69      1.0000 0.65053  0.81797  0.16097  Biso   1.000  O
  O70      1.0000 0.73913  0.75097  0.12167  Biso   1.000  O
  C86      1.0000 0.64333  0.86837  0.28857  Biso   1.000  C
  O71      1.0000 0.69843  0.96317  0.99607  Biso   1.000  O
  C87      1.0000 0.68033  0.79077  0.29157  Biso   1.000  C
  H18      1.0000 0.69023  0.76107  0.26397  Biso   1.000  H
  C88      1.0000 0.65713  0.82517  0.24507  Biso   1.000  C
  C89      1.0000 0.75693  0.71807  0.08047  Biso   1.000  C
  O72      1.0000 0.79513  0.97107  0.13447  Biso   1.000  O
  C90      1.0000 0.81693  0.99597  0.20957  Biso   1.000  C
  Zn19     1.0000 0.35884  0.11845  0.92470  Biso   1.000  Zn
  O73      1.0000 0.31720  0.16590  0.99430  Biso   1.000  O
  O74      1.0000 0.40580  0.32150  0.95500  Biso   1.000  O
  C91      1.0000 0.31000  0.10830  0.12190  Biso   1.000  C
  O75      1.0000 0.36510  0.06860  0.82940  Biso   1.000  O
  C92      1.0000 0.34700  0.22290  0.12490  Biso   1.000  C
  H19      1.0000 0.35690  0.26250  0.09730  Biso   1.000  H
  C93      1.0000 0.32380  0.16530  0.07840  Biso   1.000  C
  C94      1.0000 0.42360  0.37220  0.91380  Biso   1.000  C
  O76      1.0000 0.46180  0.15740  0.96780  Biso   1.000  O
  C95      1.0000 0.48360  0.15430  0.04290  Biso   1.000  C
  Zn20     1.0000 0.02551  0.45178  0.25803  Biso   1.000  Zn
  O77      1.0000 0.98387  0.49923  0.32763  Biso   1.000  O
  O78      1.0000 0.07247  0.65483  0.28833  Biso   1.000  O
  C96      1.0000 0.97667  0.44163  0.45523  Biso   1.000  C
  O79      1.0000 0.03177  0.40193  0.16273  Biso   1.000  O
  C97      1.0000 0.01367  0.55623  0.45823  Biso   1.000  C
  H20      1.0000 0.02357  0.59583  0.43063  Biso   1.000  H
  C98      1.0000 0.99047  0.49863  0.41173  Biso   1.000  C
  C99      1.0000 0.09027  0.70553  0.24713  Biso   1.000  C
  O80      1.0000 0.12847  0.49073  0.30113  Biso   1.000  O
  C100     1.0000 0.15027  0.48763  0.37623  Biso   1.000  C
  Zn21     1.0000 0.69217  0.78512  0.59137  Biso   1.000  Zn
  O81      1.0000 0.65053  0.83257  0.66097  Biso   1.000  O
  O82      1.0000 0.73913  0.98817  0.62167  Biso   1.000  O
  C101     1.0000 0.64333  0.77497  0.78857  Biso   1.000  C
  O83      1.0000 0.69843  0.73527  0.49607  Biso   1.000  O
  C102     1.0000 0.68033  0.88957  0.79157  Biso   1.000  C
  H21      1.0000 0.69023  0.92917  0.76397  Biso   1.000  H
  C103     1.0000 0.65713  0.83197  0.74507  Biso   1.000  C
  C104     1.0000 0.75693  0.03887  0.58047  Biso   1.000  C
  O84      1.0000 0.79513  0.82407  0.63447  Biso   1.000  O
  C105     1.0000 0.81693  0.82097  0.70957  Biso   1.000  C
  Zn22     1.0000 0.88155  0.24039  0.92470  Biso   1.000  Zn
  O85      1.0000 0.83410  0.15130  0.99430  Biso   1.000  O
  O86      1.0000 0.67850  0.08430  0.95500  Biso   1.000  O
  C106     1.0000 0.89170  0.20170  0.12190  Biso   1.000  C
  O87      1.0000 0.93140  0.29650  0.82940  Biso   1.000  O
  C107     1.0000 0.77710  0.12410  0.12490  Biso   1.000  C
  H22      1.0000 0.73750  0.09440  0.09730  Biso   1.000  H
  C108     1.0000 0.83470  0.15850  0.07840  Biso   1.000  C
  C109     1.0000 0.62780  0.05140  0.91380  Biso   1.000  C
  O88      1.0000 0.84260  0.30440  0.96780  Biso   1.000  O
  C110     1.0000 0.84570  0.32930  0.04290  Biso   1.000  C
  Zn23     1.0000 0.54822  0.57372  0.25803  Biso   1.000  Zn
  O89      1.0000 0.50077  0.48463  0.32763  Biso   1.000  O
  O90      1.0000 0.34517  0.41763  0.28833  Biso   1.000  O
  C111     1.0000 0.55837  0.53503  0.45523  Biso   1.000  C
  O91      1.0000 0.59807  0.62983  0.16273  Biso   1.000  O
  C112     1.0000 0.44377  0.45743  0.45823  Biso   1.000  C
  H23      1.0000 0.40417  0.42773  0.43063  Biso   1.000  H
  C113     1.0000 0.50137  0.49183  0.41173  Biso   1.000  C
  C114     1.0000 0.29447  0.38473  0.24713  Biso   1.000  C
  O92      1.0000 0.50927  0.63773  0.30113  Biso   1.000  O
  C115     1.0000 0.51237  0.66263  0.37623  Biso   1.000  C
  Zn24     1.0000 0.21488  0.90706  0.59137  Biso   1.000  Zn
  O93      1.0000 0.16743  0.81797  0.66097  Biso   1.000  O
  O94      1.0000 0.01183  0.75097  0.62167  Biso   1.000  O
  C116     1.0000 0.22503  0.86837  0.78857  Biso   1.000  C
  O95      1.0000 0.26473  0.96317  0.49607  Biso   1.000  O
  C117     1.0000 0.11043  0.79077  0.79157  Biso   1.000  C
  H24      1.0000 0.07083  0.76107  0.76397  Biso   1.000  H
  C118     1.0000 0.16803  0.82517  0.74507  Biso   1.000  C
  C119     1.0000 0.96113  0.71807  0.58047  Biso   1.000  C
  O96      1.0000 0.17593  0.97107  0.63447  Biso   1.000  O
  C120     1.0000 0.17903  0.99597  0.70957  Biso   1.000  C
  Zn25     1.0000 0.75961  0.64116  0.92470  Biso   1.000  Zn
  O97      1.0000 0.84870  0.68280  0.99430  Biso   1.000  O
  O98      1.0000 0.91570  0.59420  0.95500  Biso   1.000  O
  C121     1.0000 0.79830  0.69000  0.12190  Biso   1.000  C
  O99      1.0000 0.70350  0.63490  0.82940  Biso   1.000  O
  C122     1.0000 0.87590  0.65300  0.12490  Biso   1.000  C
  H25      1.0000 0.90560  0.64310  0.09730  Biso   1.000  H
  C123     1.0000 0.84150  0.67620  0.07840  Biso   1.000  C
  C124     1.0000 0.94860  0.57640  0.91380  Biso   1.000  C
  O100     1.0000 0.69560  0.53820  0.96780  Biso   1.000  O
  C125     1.0000 0.67070  0.51640  0.04290  Biso   1.000  C
  Zn26     1.0000 0.42628  0.97449  0.25803  Biso   1.000  Zn
  O101     1.0000 0.51537  0.01613  0.32763  Biso   1.000  O
  O102     1.0000 0.58237  0.92753  0.28833  Biso   1.000  O
  C126     1.0000 0.46497  0.02333  0.45523  Biso   1.000  C
  O103     1.0000 0.37017  0.96823  0.16273  Biso   1.000  O
  C127     1.0000 0.54257  0.98633  0.45823  Biso   1.000  C
  H26      1.0000 0.57227  0.97643  0.43063  Biso   1.000  H
  C128     1.0000 0.50817  0.00953  0.41173  Biso   1.000  C
  C129     1.0000 0.61527  0.90973  0.24713  Biso   1.000  C
  O104     1.0000 0.36227  0.87153  0.30113  Biso   1.000  O
  C130     1.0000 0.33737  0.84973  0.37623  Biso   1.000  C
  Zn27     1.0000 0.09294  0.30783  0.59137  Biso   1.000  Zn
  O105     1.0000 0.18203  0.34947  0.66097  Biso   1.000  O
  O106     1.0000 0.24903  0.26087  0.62167  Biso   1.000  O
  C131     1.0000 0.13163  0.35667  0.78857  Biso   1.000  C
  O107     1.0000 0.03683  0.30157  0.49607  Biso   1.000  O
  C132     1.0000 0.20923  0.31967  0.79157  Biso   1.000  C
  H27      1.0000 0.23893  0.30977  0.76397  Biso   1.000  H
  C133     1.0000 0.17483  0.34287  0.74507  Biso   1.000  C
  C134     1.0000 0.28193  0.24307  0.58047  Biso   1.000  C
  O108     1.0000 0.02893  0.20487  0.63447  Biso   1.000  O
  C135     1.0000 0.00403  0.18307  0.70957  Biso   1.000  C
  Zn28     1.0000 0.11845  0.35884  0.57530  Biso   1.000  Zn
  O109     1.0000 0.16590  0.31720  0.50570  Biso   1.000  O
  O110     1.0000 0.32150  0.40580  0.54500  Biso   1.000  O
  C136     1.0000 0.10830  0.31000  0.37810  Biso   1.000  C
  O111     1.0000 0.06860  0.36510  0.67060  Biso   1.000  O
  C137     1.0000 0.22290  0.34700  0.37510  Biso   1.000  C
  H28      1.0000 0.26250  0.35690  0.40270  Biso   1.000  H
  C138     1.0000 0.16530  0.32380  0.42160  Biso   1.000  C
  C139     1.0000 0.37220  0.42360  0.58620  Biso   1.000  C
  O112     1.0000 0.15740  0.46180  0.53220  Biso   1.000  O
  C140     1.0000 0.15430  0.48360  0.45710  Biso   1.000  C
  Zn29     1.0000 0.78512  0.69217  0.90863  Biso   1.000  Zn
  O113     1.0000 0.83257  0.65053  0.83903  Biso   1.000  O
  O114     1.0000 0.98817  0.73913  0.87833  Biso   1.000  O
  C141     1.0000 0.77497  0.64333  0.71143  Biso   1.000  C
  O115     1.0000 0.73527  0.69843  0.00393  Biso   1.000  O
  C142     1.0000 0.88957  0.68033  0.70843  Biso   1.000  C
  H29      1.0000 0.92917  0.69023  0.73603  Biso   1.000  H
  C143     1.0000 0.83197  0.65713  0.75493  Biso   1.000  C
  C144     1.0000 0.03887  0.75693  0.91953  Biso   1.000  C
  O116     1.0000 0.82407  0.79513  0.86553  Biso   1.000  O
  C145     1.0000 0.82097  0.81693  0.79043  Biso   1.000  C
  Zn30     1.0000 0.45178  0.02551  0.24197  Biso   1.000  Zn
  O117     1.0000 0.49923  0.98387  0.17237  Biso   1.000  O
  O118     1.0000 0.65483  0.07247  0.21167  Biso   1.000  O
  C146     1.0000 0.44163  0.97667  0.04477  Biso   1.000  C
  O119     1.0000 0.40193  0.03177  0.33727  Biso   1.000  O
  C147     1.0000 0.55623  0.01367  0.04177  Biso   1.000  C
  H30      1.0000 0.59583  0.02357  0.06937  Biso   1.000  H
  C148     1.0000 0.49863  0.99047  0.08827  Biso   1.000  C
  C149     1.0000 0.70553  0.09027  0.25287  Biso   1.000  C
  O120     1.0000 0.49073  0.12847  0.19887  Biso   1.000  O
  C150     1.0000 0.48763  0.15027  0.12377  Biso   1.000  C
  Zn31     1.0000 0.24039  0.88155  0.57530  Biso   1.000  Zn
  O121     1.0000 0.15130  0.83410  0.50570  Biso   1.000  O
  O122     1.0000 0.08430  0.67850  0.54500  Biso   1.000  O
  C151     1.0000 0.20170  0.89170  0.37810  Biso   1.000  C
  O123     1.0000 0.29650  0.93140  0.67060  Biso   1.000  O
  C152     1.0000 0.12410  0.77710  0.37510  Biso   1.000  C
  H31      1.0000 0.09440  0.73750  0.40270  Biso   1.000  H
  C153     1.0000 0.15850  0.83470  0.42160  Biso   1.000  C
  C154     1.0000 0.05140  0.62780  0.58620  Biso   1.000  C
  O124     1.0000 0.30440  0.84260  0.53220  Biso   1.000  O
  C155     1.0000 0.32930  0.84570  0.45710  Biso   1.000  C
  Zn32     1.0000 0.90706  0.21488  0.90863  Biso   1.000  Zn
  O125     1.0000 0.81797  0.16743  0.83903  Biso   1.000  O
  O126     1.0000 0.75097  0.01183  0.87833  Biso   1.000  O
  C156     1.0000 0.86837  0.22503  0.71143  Biso   1.000  C
  O127     1.0000 0.96317  0.26473  0.00393  Biso   1.000  O
  C157     1.0000 0.79077  0.11043  0.70843  Biso   1.000  C
  H32      1.0000 0.76107  0.07083  0.73603  Biso   1.000  H
  C158     1.0000 0.82517  0.16803  0.75493  Biso   1.000  C
  C159     1.0000 0.71807  0.96113  0.91953  Biso   1.000  C
  O128     1.0000 0.97107  0.17593  0.86553  Biso   1.000  O
  C160     1.0000 0.99597  0.17903  0.79043  Biso   1.000  C
  Zn33     1.0000 0.57372  0.54822  0.24197  Biso   1.000  Zn
  O129     1.0000 0.48463  0.50077  0.17237  Biso   1.000  O
  O130     1.0000 0.41763  0.34517  0.21167  Biso   1.000  O
  C161     1.0000 0.53503  0.55837  0.04477  Biso   1.000  C
  O131     1.0000 0.62983  0.59807  0.33727  Biso   1.000  O
  C162     1.0000 0.45743  0.44377  0.04177  Biso   1.000  C
  H33      1.0000 0.42773  0.40417  0.06937  Biso   1.000  H
  C163     1.0000 0.49183  0.50137  0.08827  Biso   1.000  C
  C164     1.0000 0.38473  0.29447  0.25287  Biso   1.000  C
  O132     1.0000 0.63773  0.50927  0.19887  Biso   1.000  O
  C165     1.0000 0.66263  0.51237  0.12377  Biso   1.000  C
  Zn34     1.0000 0.64116  0.75961  0.57530  Biso   1.000  Zn
  O133     1.0000 0.68280  0.84870  0.50570  Biso   1.000  O
  O134     1.0000 0.59420  0.91570  0.54500  Biso   1.000  O
  C166     1.0000 0.69000  0.79830  0.37810  Biso   1.000  C
  O135     1.0000 0.63490  0.70350  0.67060  Biso   1.000  O
  C167     1.0000 0.65300  0.87590  0.37510  Biso   1.000  C
  H34      1.0000 0.64310  0.90560  0.40270  Biso   1.000  H
  C168     1.0000 0.67620  0.84150  0.42160  Biso   1.000  C
  C169     1.0000 0.57640  0.94860  0.58620  Biso   1.000  C
  O136     1.0000 0.53820  0.69560  0.53220  Biso   1.000  O
  C170     1.0000 0.51640  0.67070  0.45710  Biso   1.000  C
  Zn35     1.0000 0.30783  0.09294  0.90863  Biso   1.000  Zn
  O137     1.0000 0.34947  0.18203  0.83903  Biso   1.000  O
  O138     1.0000 0.26087  0.24903  0.87833  Biso   1.000  O
  C171     1.0000 0.35667  0.13163  0.71143  Biso   1.000  C
  O139     1.0000 0.30157  0.03683  0.00393  Biso   1.000  O
  C172     1.0000 0.31967  0.20923  0.70843  Biso   1.000  C
  H35      1.0000 0.30977  0.23893  0.73603  Biso   1.000  H
  C173     1.0000 0.34287  0.17483  0.75493  Biso   1.000  C
  C174     1.0000 0.24307  0.28193  0.91953  Biso   1.000  C
  O140     1.0000 0.20487  0.02893  0.86553  Biso   1.000  O
  C175     1.0000 0.18307  0.00403  0.79043  Biso   1.000  C
  Zn36     1.0000 0.97449  0.42628  0.24197  Biso   1.000  Zn
  O141     1.0000 0.01613  0.51537  0.17237  Biso   1.000  O
  O142     1.0000 0.92753  0.58237  0.21167  Biso   1.000  O
  C176     1.0000 0.02333  0.46497  0.04477  Biso   1.000  C
  O143     1.0000 0.96823  0.37017  0.33727  Biso   1.000  O
  C177     1.0000 0.98633  0.54257  0.04177  Biso   1.000  C
  H36      1.0000 0.97643  0.57227  0.06937  Biso   1.000  H
  C178     1.0000 0.00953  0.50817  0.08827  Biso   1.000  C
  C179     1.0000 0.90973  0.61527  0.25287  Biso   1.000  C
  O144     1.0000 0.87153  0.36227  0.19887  Biso   1.000  O
  C180     1.0000 0.84973  0.33737  0.12377  Biso   1.000  C
  Zn37     1.0000 0.66667  0.76196  0.08333  Biso   1.000  Zn
  Zn38     1.0000 0.23804  0.90470  0.08333  Biso   1.000  Zn
  Zn39     1.0000 0.09530  0.33333  0.08333  Biso   1.000  Zn
  Zn40     1.0000 0.76196  0.66667  0.41667  Biso   1.000  Zn
  Zn41     1.0000 0.42863  0.00000  0.75000  Biso   1.000  Zn
  Zn42     1.0000 0.90470  0.23804  0.41667  Biso   1.000  Zn
  Zn43     1.0000 0.57137  0.57137  0.75000  Biso   1.000  Zn
  Zn44     1.0000 0.33333  0.09530  0.41667  Biso   1.000  Zn
  Zn45     1.0000 0.00000  0.42863  0.75000  Biso   1.000  Zn
  Zn46     1.0000 0.33333  0.23804  0.91667  Biso   1.000  Zn
  Zn47     1.0000 0.00000  0.57137  0.25000  Biso   1.000  Zn
  Zn48     1.0000 0.76196  0.09530  0.91667  Biso   1.000  Zn
  Zn49     1.0000 0.42863  0.42863  0.25000  Biso   1.000  Zn
  Zn50     1.0000 0.90470  0.66667  0.91667  Biso   1.000  Zn
  Zn51     1.0000 0.57137  0.00000  0.25000  Biso   1.000  Zn
  Zn52     1.0000 0.23804  0.33333  0.58333  Biso   1.000  Zn
  Zn53     1.0000 0.09530  0.76196  0.58333  Biso   1.000  Zn
  Zn54     1.0000 0.66667  0.90470  0.58333  Biso   1.000  Zn
