data_image0
_cell_length_a       31.35
_cell_length_b       31.35
_cell_length_c       16.9103
_cell_angle_alpha    90
_cell_angle_beta     90
_cell_angle_gamma    120

_symmetry_space_group_name_H-M    "P 1"
_symmetry_int_tables_number       1

loop_
  _symmetry_equiv_pos_as_xyz
  'x, y, z'

loop_
  _atom_site_label
  _atom_site_occupancy
  _atom_site_fract_x
  _atom_site_fract_y
  _atom_site_fract_z
  _atom_site_thermal_displace_type
  _atom_site_B_iso_or_equiv
  _atom_site_type_symbol
  O1       1.0000 0.25030  0.66050  0.41530  Biso   1.000  O
  C1       1.0000 0.14590  0.53530  0.23620  Biso   1.000  C
  H1       1.0000 0.13440  0.50380  0.21580  Biso   1.000  H
  C2       1.0000 0.18070  0.55250  0.29490  Biso   1.000  C
  H2       1.0000 0.19250  0.53270  0.31490  Biso   1.000  H
  O2       1.0000 0.33950  0.58980  0.41530  Biso   1.000  O
  C3       1.0000 0.46470  0.61060  0.23620  Biso   1.000  C
  H3       1.0000 0.49620  0.63060  0.21580  Biso   1.000  H
  C4       1.0000 0.44750  0.62820  0.29490  Biso   1.000  C
  H4       1.0000 0.46730  0.65980  0.31490  Biso   1.000  H
  O3       1.0000 0.41020  0.74970  0.41530  Biso   1.000  O
  C5       1.0000 0.38940  0.85410  0.23620  Biso   1.000  C
  H5       1.0000 0.36940  0.86560  0.21580  Biso   1.000  H
  C6       1.0000 0.37180  0.81930  0.29490  Biso   1.000  C
  H6       1.0000 0.34020  0.80750  0.31490  Biso   1.000  H
  O4       1.0000 0.74970  0.33950  0.41530  Biso   1.000  O
  C7       1.0000 0.85410  0.46470  0.23620  Biso   1.000  C
  H7       1.0000 0.86560  0.49620  0.21580  Biso   1.000  H
  C8       1.0000 0.81930  0.44750  0.29490  Biso   1.000  C
  H8       1.0000 0.80750  0.46730  0.31490  Biso   1.000  H
  O5       1.0000 0.66050  0.41020  0.41530  Biso   1.000  O
  C9       1.0000 0.53530  0.38940  0.23620  Biso   1.000  C
  H9       1.0000 0.50380  0.36940  0.21580  Biso   1.000  H
  C10      1.0000 0.55250  0.37180  0.29490  Biso   1.000  C
  H10      1.0000 0.53270  0.34020  0.31490  Biso   1.000  H
  O6       1.0000 0.58980  0.25030  0.41530  Biso   1.000  O
  C11      1.0000 0.61060  0.14590  0.23620  Biso   1.000  C
  H11      1.0000 0.63060  0.13440  0.21580  Biso   1.000  H
  C12      1.0000 0.62820  0.18070  0.29490  Biso   1.000  C
  H12      1.0000 0.65980  0.19250  0.31490  Biso   1.000  H
  O7       1.0000 0.66050  0.25030  0.58470  Biso   1.000  O
  C13      1.0000 0.53530  0.14590  0.76380  Biso   1.000  C
  H13      1.0000 0.50380  0.13440  0.78420  Biso   1.000  H
  C14      1.0000 0.55250  0.18070  0.70510  Biso   1.000  C
  H14      1.0000 0.53270  0.19250  0.68510  Biso   1.000  H
  O8       1.0000 0.58980  0.33950  0.58470  Biso   1.000  O
  C15      1.0000 0.61060  0.46470  0.76380  Biso   1.000  C
  H15      1.0000 0.63060  0.49620  0.78420  Biso   1.000  H
  C16      1.0000 0.62820  0.44750  0.70510  Biso   1.000  C
  H16      1.0000 0.65980  0.46730  0.68510  Biso   1.000  H
  O9       1.0000 0.74970  0.41020  0.58470  Biso   1.000  O
  C17      1.0000 0.85410  0.38940  0.76380  Biso   1.000  C
  H17      1.0000 0.86560  0.36940  0.78420  Biso   1.000  H
  C18      1.0000 0.81930  0.37180  0.70510  Biso   1.000  C
  H18      1.0000 0.80750  0.34020  0.68510  Biso   1.000  H
  O10      1.0000 0.33950  0.74970  0.58470  Biso   1.000  O
  C19      1.0000 0.46470  0.85410  0.76380  Biso   1.000  C
  H19      1.0000 0.49620  0.86560  0.78420  Biso   1.000  H
  C20      1.0000 0.44750  0.81930  0.70510  Biso   1.000  C
  H20      1.0000 0.46730  0.80750  0.68510  Biso   1.000  H
  O11      1.0000 0.41020  0.66050  0.58470  Biso   1.000  O
  C21      1.0000 0.38940  0.53530  0.76380  Biso   1.000  C
  H21      1.0000 0.36940  0.50380  0.78420  Biso   1.000  H
  C22      1.0000 0.37180  0.55250  0.70510  Biso   1.000  C
  H22      1.0000 0.34020  0.53270  0.68510  Biso   1.000  H
  O12      1.0000 0.25030  0.58980  0.58470  Biso   1.000  O
  C23      1.0000 0.14590  0.61060  0.76380  Biso   1.000  C
  H23      1.0000 0.13440  0.63060  0.78420  Biso   1.000  H
  C24      1.0000 0.18070  0.62820  0.70510  Biso   1.000  C
  H24      1.0000 0.19250  0.65980  0.68510  Biso   1.000  H
  O13      1.0000 0.74970  0.33950  0.58470  Biso   1.000  O
  C25      1.0000 0.85410  0.46470  0.76380  Biso   1.000  C
  H25      1.0000 0.86560  0.49620  0.78420  Biso   1.000  H
  C26      1.0000 0.81930  0.44750  0.70510  Biso   1.000  C
  H26      1.0000 0.80750  0.46730  0.68510  Biso   1.000  H
  O14      1.0000 0.66050  0.41020  0.58470  Biso   1.000  O
  C27      1.0000 0.53530  0.38940  0.76380  Biso   1.000  C
  H27      1.0000 0.50380  0.36940  0.78420  Biso   1.000  H
  C28      1.0000 0.55250  0.37180  0.70510  Biso   1.000  C
  H28      1.0000 0.53270  0.34020  0.68510  Biso   1.000  H
  O15      1.0000 0.58980  0.25030  0.58470  Biso   1.000  O
  C29      1.0000 0.61060  0.14590  0.76380  Biso   1.000  C
  H29      1.0000 0.63060  0.13440  0.78420  Biso   1.000  H
  C30      1.0000 0.62820  0.18070  0.70510  Biso   1.000  C
  H30      1.0000 0.65980  0.19250  0.68510  Biso   1.000  H
  O16      1.0000 0.25030  0.66050  0.58470  Biso   1.000  O
  C31      1.0000 0.14590  0.53530  0.76380  Biso   1.000  C
  H31      1.0000 0.13440  0.50380  0.78420  Biso   1.000  H
  C32      1.0000 0.18070  0.55250  0.70510  Biso   1.000  C
  H32      1.0000 0.19250  0.53270  0.68510  Biso   1.000  H
  O17      1.0000 0.33950  0.58980  0.58470  Biso   1.000  O
  C33      1.0000 0.46470  0.61060  0.76380  Biso   1.000  C
  H33      1.0000 0.49620  0.63060  0.78420  Biso   1.000  H
  C34      1.0000 0.44750  0.62820  0.70510  Biso   1.000  C
  H34      1.0000 0.46730  0.65980  0.68510  Biso   1.000  H
  O18      1.0000 0.41020  0.74970  0.58470  Biso   1.000  O
  C35      1.0000 0.38940  0.85410  0.76380  Biso   1.000  C
  H35      1.0000 0.36940  0.86560  0.78420  Biso   1.000  H
  C36      1.0000 0.37180  0.81930  0.70510  Biso   1.000  C
  H36      1.0000 0.34020  0.80750  0.68510  Biso   1.000  H
  O19      1.0000 0.33950  0.74970  0.41530  Biso   1.000  O
  C37      1.0000 0.46470  0.85410  0.23620  Biso   1.000  C
  H37      1.0000 0.49620  0.86560  0.21580  Biso   1.000  H
  C38      1.0000 0.44750  0.81930  0.29490  Biso   1.000  C
  H38      1.0000 0.46730  0.80750  0.31490  Biso   1.000  H
  O20      1.0000 0.41020  0.66050  0.41530  Biso   1.000  O
  C39      1.0000 0.38940  0.53530  0.23620  Biso   1.000  C
  H39      1.0000 0.36940  0.50380  0.21580  Biso   1.000  H
  C40      1.0000 0.37180  0.55250  0.29490  Biso   1.000  C
  H40      1.0000 0.34020  0.53270  0.31490  Biso   1.000  H
  O21      1.0000 0.25030  0.58980  0.41530  Biso   1.000  O
  C41      1.0000 0.14590  0.61060  0.23620  Biso   1.000  C
  H41      1.0000 0.13440  0.63060  0.21580  Biso   1.000  H
  C42      1.0000 0.18070  0.62820  0.29490  Biso   1.000  C
  H42      1.0000 0.19250  0.65980  0.31490  Biso   1.000  H
  O22      1.0000 0.66050  0.25030  0.41530  Biso   1.000  O
  C43      1.0000 0.53530  0.14590  0.23620  Biso   1.000  C
  H43      1.0000 0.50380  0.13440  0.21580  Biso   1.000  H
  C44      1.0000 0.55250  0.18070  0.29490  Biso   1.000  C
  H44      1.0000 0.53270  0.19250  0.31490  Biso   1.000  H
  O23      1.0000 0.58980  0.33950  0.41530  Biso   1.000  O
  C45      1.0000 0.61060  0.46470  0.23620  Biso   1.000  C
  H45      1.0000 0.63060  0.49620  0.21580  Biso   1.000  H
  C46      1.0000 0.62820  0.44750  0.29490  Biso   1.000  C
  H46      1.0000 0.65980  0.46730  0.31490  Biso   1.000  H
  O24      1.0000 0.74970  0.41020  0.41530  Biso   1.000  O
  C47      1.0000 0.85410  0.38940  0.23620  Biso   1.000  C
  H47      1.0000 0.86560  0.36940  0.21580  Biso   1.000  H
  C48      1.0000 0.81930  0.37180  0.29490  Biso   1.000  C
  H48      1.0000 0.80750  0.34020  0.31490  Biso   1.000  H
  Fe1      1.0000 0.29796  0.70204  0.50000  Biso   1.000  Fe
  Fe2      1.0000 0.29796  0.59592  0.50000  Biso   1.000  Fe
  Fe3      1.0000 0.40408  0.70204  0.50000  Biso   1.000  Fe
  Fe4      1.0000 0.70204  0.29796  0.50000  Biso   1.000  Fe
  Fe5      1.0000 0.70204  0.40408  0.50000  Biso   1.000  Fe
  Fe6      1.0000 0.59592  0.29796  0.50000  Biso   1.000  Fe
  Co1      1.0000 0.00000  0.49230  0.00000  Biso   1.000  Co
  Co2      1.0000 0.50770  0.50770  0.00000  Biso   1.000  Co
  Co3      1.0000 0.49230  0.00000  0.00000  Biso   1.000  Co
  Co4      1.0000 0.00000  0.50770  0.00000  Biso   1.000  Co
  Co5      1.0000 0.49230  0.49230  0.00000  Biso   1.000  Co
  Co6      1.0000 0.50770  0.00000  0.00000  Biso   1.000  Co
  O25      1.0000 0.33333  0.66667  0.50000  Biso   1.000  O
  O26      1.0000 0.66667  0.33333  0.50000  Biso   1.000  O
  C49      1.0000 0.04000  0.52000  0.16560  Biso   1.000  C
  C50      1.0000 0.10270  0.55135  0.06460  Biso   1.000  C
  C51      1.0000 0.08840  0.54420  0.14240  Biso   1.000  C
  C52      1.0000 0.02440  0.51220  0.24570  Biso   1.000  C
  H49      1.0000 0.04470  0.52235  0.29000  Biso   1.000  H
  C53      1.0000 0.15350  0.57675  0.03910  Biso   1.000  C
  H50      1.0000 0.18110  0.59055  0.07170  Biso   1.000  H
  C54      1.0000 0.12770  0.56385  0.20730  Biso   1.000  C
  C55      1.0000 0.19790  0.59895  0.32390  Biso   1.000  C
  C56      1.0000 0.23590  0.61795  0.38970  Biso   1.000  C
  C57      1.0000 0.48000  0.52000  0.16560  Biso   1.000  C
  C58      1.0000 0.44865  0.55135  0.06460  Biso   1.000  C
  C59      1.0000 0.45580  0.54420  0.14240  Biso   1.000  C
  C60      1.0000 0.48780  0.51220  0.24570  Biso   1.000  C
  H51      1.0000 0.47765  0.52235  0.29000  Biso   1.000  H
  C61      1.0000 0.42325  0.57675  0.03910  Biso   1.000  C
  H52      1.0000 0.40945  0.59055  0.07170  Biso   1.000  H
  C62      1.0000 0.43615  0.56385  0.20730  Biso   1.000  C
  C63      1.0000 0.40105  0.59895  0.32390  Biso   1.000  C
  C64      1.0000 0.38205  0.61795  0.38970  Biso   1.000  C
  C65      1.0000 0.48000  0.96000  0.16560  Biso   1.000  C
  C66      1.0000 0.44865  0.89730  0.06460  Biso   1.000  C
  C67      1.0000 0.45580  0.91160  0.14240  Biso   1.000  C
  C68      1.0000 0.48780  0.97560  0.24570  Biso   1.000  C
  H53      1.0000 0.47765  0.95530  0.29000  Biso   1.000  H
  C69      1.0000 0.42325  0.84650  0.03910  Biso   1.000  C
  H54      1.0000 0.40945  0.81890  0.07170  Biso   1.000  H
  C70      1.0000 0.43615  0.87230  0.20730  Biso   1.000  C
  C71      1.0000 0.40105  0.80210  0.32390  Biso   1.000  C
  C72      1.0000 0.38205  0.76410  0.38970  Biso   1.000  C
  C73      1.0000 0.96000  0.48000  0.16560  Biso   1.000  C
  C74      1.0000 0.89730  0.44865  0.06460  Biso   1.000  C
  C75      1.0000 0.91160  0.45580  0.14240  Biso   1.000  C
  C76      1.0000 0.97560  0.48780  0.24570  Biso   1.000  C
  H55      1.0000 0.95530  0.47765  0.29000  Biso   1.000  H
  C77      1.0000 0.84650  0.42325  0.03910  Biso   1.000  C
  H56      1.0000 0.81890  0.40945  0.07170  Biso   1.000  H
  C78      1.0000 0.87230  0.43615  0.20730  Biso   1.000  C
  C79      1.0000 0.80210  0.40105  0.32390  Biso   1.000  C
  C80      1.0000 0.76410  0.38205  0.38970  Biso   1.000  C
  C81      1.0000 0.52000  0.48000  0.16560  Biso   1.000  C
  C82      1.0000 0.55135  0.44865  0.06460  Biso   1.000  C
  C83      1.0000 0.54420  0.45580  0.14240  Biso   1.000  C
  C84      1.0000 0.51220  0.48780  0.24570  Biso   1.000  C
  H57      1.0000 0.52235  0.47765  0.29000  Biso   1.000  H
  C85      1.0000 0.57675  0.42325  0.03910  Biso   1.000  C
  H58      1.0000 0.59055  0.40945  0.07170  Biso   1.000  H
  C86      1.0000 0.56385  0.43615  0.20730  Biso   1.000  C
  C87      1.0000 0.59895  0.40105  0.32390  Biso   1.000  C
  C88      1.0000 0.61795  0.38205  0.38970  Biso   1.000  C
  C89      1.0000 0.52000  0.04000  0.16560  Biso   1.000  C
  C90      1.0000 0.55135  0.10270  0.06460  Biso   1.000  C
  C91      1.0000 0.54420  0.08840  0.14240  Biso   1.000  C
  C92      1.0000 0.51220  0.02440  0.24570  Biso   1.000  C
  H59      1.0000 0.52235  0.04470  0.29000  Biso   1.000  H
  C93      1.0000 0.57675  0.15350  0.03910  Biso   1.000  C
  H60      1.0000 0.59055  0.18110  0.07170  Biso   1.000  H
  C94      1.0000 0.56385  0.12770  0.20730  Biso   1.000  C
  C95      1.0000 0.59895  0.19790  0.32390  Biso   1.000  C
  C96      1.0000 0.61795  0.23590  0.38970  Biso   1.000  C
  C97      1.0000 0.52000  0.04000  0.83440  Biso   1.000  C
  C98      1.0000 0.55135  0.10270  0.93540  Biso   1.000  C
  C99      1.0000 0.54420  0.08840  0.85760  Biso   1.000  C
  C100     1.0000 0.51220  0.02440  0.75430  Biso   1.000  C
  H61      1.0000 0.52235  0.04470  0.71000  Biso   1.000  H
  C101     1.0000 0.57675  0.15350  0.96090  Biso   1.000  C
  H62      1.0000 0.59055  0.18110  0.92830  Biso   1.000  H
  C102     1.0000 0.56385  0.12770  0.79270  Biso   1.000  C
  C103     1.0000 0.59895  0.19790  0.67610  Biso   1.000  C
  C104     1.0000 0.61795  0.23590  0.61030  Biso   1.000  C
  C105     1.0000 0.52000  0.48000  0.83440  Biso   1.000  C
  C106     1.0000 0.55135  0.44865  0.93540  Biso   1.000  C
  C107     1.0000 0.54420  0.45580  0.85760  Biso   1.000  C
  C108     1.0000 0.51220  0.48780  0.75430  Biso   1.000  C
  H63      1.0000 0.52235  0.47765  0.71000  Biso   1.000  H
  C109     1.0000 0.57675  0.42325  0.96090  Biso   1.000  C
  H64      1.0000 0.59055  0.40945  0.92830  Biso   1.000  H
  C110     1.0000 0.56385  0.43615  0.79270  Biso   1.000  C
  C111     1.0000 0.59895  0.40105  0.67610  Biso   1.000  C
  C112     1.0000 0.61795  0.38205  0.61030  Biso   1.000  C
  C113     1.0000 0.96000  0.48000  0.83440  Biso   1.000  C
  C114     1.0000 0.89730  0.44865  0.93540  Biso   1.000  C
  C115     1.0000 0.91160  0.45580  0.85760  Biso   1.000  C
  C116     1.0000 0.97560  0.48780  0.75430  Biso   1.000  C
  H65      1.0000 0.95530  0.47765  0.71000  Biso   1.000  H
  C117     1.0000 0.84650  0.42325  0.96090  Biso   1.000  C
  H66      1.0000 0.81890  0.40945  0.92830  Biso   1.000  H
  C118     1.0000 0.87230  0.43615  0.79270  Biso   1.000  C
  C119     1.0000 0.80210  0.40105  0.67610  Biso   1.000  C
  C120     1.0000 0.76410  0.38205  0.61030  Biso   1.000  C
  C121     1.0000 0.48000  0.96000  0.83440  Biso   1.000  C
  C122     1.0000 0.44865  0.89730  0.93540  Biso   1.000  C
  C123     1.0000 0.45580  0.91160  0.85760  Biso   1.000  C
  C124     1.0000 0.48780  0.97560  0.75430  Biso   1.000  C
  H67      1.0000 0.47765  0.95530  0.71000  Biso   1.000  H
  C125     1.0000 0.42325  0.84650  0.96090  Biso   1.000  C
  H68      1.0000 0.40945  0.81890  0.92830  Biso   1.000  H
  C126     1.0000 0.43615  0.87230  0.79270  Biso   1.000  C
  C127     1.0000 0.40105  0.80210  0.67610  Biso   1.000  C
  C128     1.0000 0.38205  0.76410  0.61030  Biso   1.000  C
  C129     1.0000 0.48000  0.52000  0.83440  Biso   1.000  C
  C130     1.0000 0.44865  0.55135  0.93540  Biso   1.000  C
  C131     1.0000 0.45580  0.54420  0.85760  Biso   1.000  C
  C132     1.0000 0.48780  0.51220  0.75430  Biso   1.000  C
  H69      1.0000 0.47765  0.52235  0.71000  Biso   1.000  H
  C133     1.0000 0.42325  0.57675  0.96090  Biso   1.000  C
  H70      1.0000 0.40945  0.59055  0.92830  Biso   1.000  H
  C134     1.0000 0.43615  0.56385  0.79270  Biso   1.000  C
  C135     1.0000 0.40105  0.59895  0.67610  Biso   1.000  C
  C136     1.0000 0.38205  0.61795  0.61030  Biso   1.000  C
  C137     1.0000 0.04000  0.52000  0.83440  Biso   1.000  C
  C138     1.0000 0.10270  0.55135  0.93540  Biso   1.000  C
  C139     1.0000 0.08840  0.54420  0.85760  Biso   1.000  C
  C140     1.0000 0.02440  0.51220  0.75430  Biso   1.000  C
  H71      1.0000 0.04470  0.52235  0.71000  Biso   1.000  H
  C141     1.0000 0.15350  0.57675  0.96090  Biso   1.000  C
  H72      1.0000 0.18110  0.59055  0.92830  Biso   1.000  H
  C142     1.0000 0.12770  0.56385  0.79270  Biso   1.000  C
  C143     1.0000 0.19790  0.59895  0.67610  Biso   1.000  C
  C144     1.0000 0.23590  0.61795  0.61030  Biso   1.000  C
  N1       1.0000 0.00000  0.50000  0.11660  Biso   1.000  N
  N2       1.0000 0.50000  0.50000  0.11660  Biso   1.000  N
  N3       1.0000 0.50000  0.00000  0.11660  Biso   1.000  N
  N4       1.0000 0.50000  0.00000  0.88340  Biso   1.000  N
  N5       1.0000 0.50000  0.50000  0.88340  Biso   1.000  N
  N6       1.0000 0.00000  0.50000  0.88340  Biso   1.000  N
  N7       1.0000 0.07410  0.53705  0.00000  Biso   1.000  N
  N8       1.0000 0.46295  0.53705  0.00000  Biso   1.000  N
  N9       1.0000 0.46295  0.92590  0.00000  Biso   1.000  N
  N10      1.0000 0.92590  0.46295  0.00000  Biso   1.000  N
  N11      1.0000 0.53705  0.46295  0.00000  Biso   1.000  N
  N12      1.0000 0.53705  0.07410  0.00000  Biso   1.000  N
