data_image0
_cell_length_a       31.4689
_cell_length_b       31.4689
_cell_length_c       16.8714
_cell_angle_alpha    90
_cell_angle_beta     90
_cell_angle_gamma    120

_symmetry_space_group_name_H-M    "P 1"
_symmetry_int_tables_number       1

loop_
  _symmetry_equiv_pos_as_xyz
  'x, y, z'

loop_
  _atom_site_label
  _atom_site_occupancy
  _atom_site_fract_x
  _atom_site_fract_y
  _atom_site_fract_z
  _atom_site_thermal_displace_type
  _atom_site_B_iso_or_equiv
  _atom_site_type_symbol
  O1       1.0000 0.34000  0.74954  0.08500  Biso   1.000  O
  C1       1.0000 0.37120  0.81880  0.20480  Biso   1.000  C
  H1       1.0000 0.33960  0.80660  0.18510  Biso   1.000  H
  C2       1.0000 0.38900  0.85510  0.26380  Biso   1.000  C
  H2       1.0000 0.36960  0.86750  0.28290  Biso   1.000  H
  O2       1.0000 0.25046  0.59046  0.08500  Biso   1.000  O
  C3       1.0000 0.18120  0.55240  0.20480  Biso   1.000  C
  H3       1.0000 0.19340  0.53300  0.18510  Biso   1.000  H
  C4       1.0000 0.14490  0.53390  0.26380  Biso   1.000  C
  H4       1.0000 0.13250  0.50210  0.28290  Biso   1.000  H
  O3       1.0000 0.40954  0.66000  0.08500  Biso   1.000  O
  C5       1.0000 0.44760  0.62880  0.20480  Biso   1.000  C
  H5       1.0000 0.46700  0.66040  0.18510  Biso   1.000  H
  C6       1.0000 0.46610  0.61100  0.26380  Biso   1.000  C
  H6       1.0000 0.49790  0.63040  0.28290  Biso   1.000  H
  O4       1.0000 0.66000  0.25046  0.08500  Biso   1.000  O
  C7       1.0000 0.62880  0.18120  0.20480  Biso   1.000  C
  H7       1.0000 0.66040  0.19340  0.18510  Biso   1.000  H
  C8       1.0000 0.61100  0.14490  0.26380  Biso   1.000  C
  H8       1.0000 0.63040  0.13250  0.28290  Biso   1.000  H
  O5       1.0000 0.74954  0.40954  0.08500  Biso   1.000  O
  C9       1.0000 0.81880  0.44760  0.20480  Biso   1.000  C
  H9       1.0000 0.80660  0.46700  0.18510  Biso   1.000  H
  C10      1.0000 0.85510  0.46610  0.26380  Biso   1.000  C
  H10      1.0000 0.86750  0.49790  0.28290  Biso   1.000  H
  O6       1.0000 0.59046  0.34000  0.08500  Biso   1.000  O
  C11      1.0000 0.55240  0.37120  0.20480  Biso   1.000  C
  H11      1.0000 0.53300  0.33960  0.18510  Biso   1.000  H
  C12      1.0000 0.53390  0.38900  0.26380  Biso   1.000  C
  H12      1.0000 0.50210  0.36960  0.28290  Biso   1.000  H
  O7       1.0000 0.74954  0.34000  0.91500  Biso   1.000  O
  C13      1.0000 0.81880  0.37120  0.79520  Biso   1.000  C
  H13      1.0000 0.80660  0.33960  0.81490  Biso   1.000  H
  C14      1.0000 0.85510  0.38900  0.73620  Biso   1.000  C
  H14      1.0000 0.86750  0.36960  0.71710  Biso   1.000  H
  O8       1.0000 0.59046  0.25046  0.91500  Biso   1.000  O
  C15      1.0000 0.55240  0.18120  0.79520  Biso   1.000  C
  H15      1.0000 0.53300  0.19340  0.81490  Biso   1.000  H
  C16      1.0000 0.53390  0.14490  0.73620  Biso   1.000  C
  H16      1.0000 0.50210  0.13250  0.71710  Biso   1.000  H
  O9       1.0000 0.66000  0.40954  0.91500  Biso   1.000  O
  C17      1.0000 0.62880  0.44760  0.79520  Biso   1.000  C
  H17      1.0000 0.66040  0.46700  0.81490  Biso   1.000  H
  C18      1.0000 0.61100  0.46610  0.73620  Biso   1.000  C
  H18      1.0000 0.63040  0.49790  0.71710  Biso   1.000  H
  O10      1.0000 0.25046  0.66000  0.91500  Biso   1.000  O
  C19      1.0000 0.18120  0.62880  0.79520  Biso   1.000  C
  H19      1.0000 0.19340  0.66040  0.81490  Biso   1.000  H
  C20      1.0000 0.14490  0.61100  0.73620  Biso   1.000  C
  H20      1.0000 0.13250  0.63040  0.71710  Biso   1.000  H
  O11      1.0000 0.40954  0.74954  0.91500  Biso   1.000  O
  C21      1.0000 0.44760  0.81880  0.79520  Biso   1.000  C
  H21      1.0000 0.46700  0.80660  0.81490  Biso   1.000  H
  C22      1.0000 0.46610  0.85510  0.73620  Biso   1.000  C
  H22      1.0000 0.49790  0.86750  0.71710  Biso   1.000  H
  O12      1.0000 0.34000  0.59046  0.91500  Biso   1.000  O
  C23      1.0000 0.37120  0.55240  0.79520  Biso   1.000  C
  H23      1.0000 0.33960  0.53300  0.81490  Biso   1.000  H
  C24      1.0000 0.38900  0.53390  0.73620  Biso   1.000  C
  H24      1.0000 0.36960  0.50210  0.71710  Biso   1.000  H
  O13      1.0000 0.66000  0.25046  0.91500  Biso   1.000  O
  C25      1.0000 0.62880  0.18120  0.79520  Biso   1.000  C
  H25      1.0000 0.66040  0.19340  0.81490  Biso   1.000  H
  C26      1.0000 0.61100  0.14490  0.73620  Biso   1.000  C
  H26      1.0000 0.63040  0.13250  0.71710  Biso   1.000  H
  O14      1.0000 0.74954  0.40954  0.91500  Biso   1.000  O
  C27      1.0000 0.81880  0.44760  0.79520  Biso   1.000  C
  H27      1.0000 0.80660  0.46700  0.81490  Biso   1.000  H
  C28      1.0000 0.85510  0.46610  0.73620  Biso   1.000  C
  H28      1.0000 0.86750  0.49790  0.71710  Biso   1.000  H
  O15      1.0000 0.59046  0.34000  0.91500  Biso   1.000  O
  C29      1.0000 0.55240  0.37120  0.79520  Biso   1.000  C
  H29      1.0000 0.53300  0.33960  0.81490  Biso   1.000  H
  C30      1.0000 0.53390  0.38900  0.73620  Biso   1.000  C
  H30      1.0000 0.50210  0.36960  0.71710  Biso   1.000  H
  O16      1.0000 0.34000  0.74954  0.91500  Biso   1.000  O
  C31      1.0000 0.37120  0.81880  0.79520  Biso   1.000  C
  H31      1.0000 0.33960  0.80660  0.81490  Biso   1.000  H
  C32      1.0000 0.38900  0.85510  0.73620  Biso   1.000  C
  H32      1.0000 0.36960  0.86750  0.71710  Biso   1.000  H
  O17      1.0000 0.25046  0.59046  0.91500  Biso   1.000  O
  C33      1.0000 0.18120  0.55240  0.79520  Biso   1.000  C
  H33      1.0000 0.19340  0.53300  0.81490  Biso   1.000  H
  C34      1.0000 0.14490  0.53390  0.73620  Biso   1.000  C
  H34      1.0000 0.13250  0.50210  0.71710  Biso   1.000  H
  O18      1.0000 0.40954  0.66000  0.91500  Biso   1.000  O
  C35      1.0000 0.44760  0.62880  0.79520  Biso   1.000  C
  H35      1.0000 0.46700  0.66040  0.81490  Biso   1.000  H
  C36      1.0000 0.46610  0.61100  0.73620  Biso   1.000  C
  H36      1.0000 0.49790  0.63040  0.71710  Biso   1.000  H
  O19      1.0000 0.25046  0.66000  0.08500  Biso   1.000  O
  C37      1.0000 0.18120  0.62880  0.20480  Biso   1.000  C
  H37      1.0000 0.19340  0.66040  0.18510  Biso   1.000  H
  C38      1.0000 0.14490  0.61100  0.26380  Biso   1.000  C
  H38      1.0000 0.13250  0.63040  0.28290  Biso   1.000  H
  O20      1.0000 0.40954  0.74954  0.08500  Biso   1.000  O
  C39      1.0000 0.44760  0.81880  0.20480  Biso   1.000  C
  H39      1.0000 0.46700  0.80660  0.18510  Biso   1.000  H
  C40      1.0000 0.46610  0.85510  0.26380  Biso   1.000  C
  H40      1.0000 0.49790  0.86750  0.28290  Biso   1.000  H
  O21      1.0000 0.34000  0.59046  0.08500  Biso   1.000  O
  C41      1.0000 0.37120  0.55240  0.20480  Biso   1.000  C
  H41      1.0000 0.33960  0.53300  0.18510  Biso   1.000  H
  C42      1.0000 0.38900  0.53390  0.26380  Biso   1.000  C
  H42      1.0000 0.36960  0.50210  0.28290  Biso   1.000  H
  O22      1.0000 0.74954  0.34000  0.08500  Biso   1.000  O
  C43      1.0000 0.81880  0.37120  0.20480  Biso   1.000  C
  H43      1.0000 0.80660  0.33960  0.18510  Biso   1.000  H
  C44      1.0000 0.85510  0.38900  0.26380  Biso   1.000  C
  H44      1.0000 0.86750  0.36960  0.28290  Biso   1.000  H
  O23      1.0000 0.59046  0.25046  0.08500  Biso   1.000  O
  C45      1.0000 0.55240  0.18120  0.20480  Biso   1.000  C
  H45      1.0000 0.53300  0.19340  0.18510  Biso   1.000  H
  C46      1.0000 0.53390  0.14490  0.26380  Biso   1.000  C
  H46      1.0000 0.50210  0.13250  0.28290  Biso   1.000  H
  O24      1.0000 0.66000  0.40954  0.08500  Biso   1.000  O
  C47      1.0000 0.62880  0.44760  0.20480  Biso   1.000  C
  H47      1.0000 0.66040  0.46700  0.18510  Biso   1.000  H
  C48      1.0000 0.61100  0.46610  0.26380  Biso   1.000  C
  H48      1.0000 0.63040  0.49790  0.28290  Biso   1.000  H
  Fe1      1.0000 0.29639  0.70361  0.00000  Biso   1.000  Fe
  Fe2      1.0000 0.29639  0.59278  0.00000  Biso   1.000  Fe
  Fe3      1.0000 0.40722  0.70361  0.00000  Biso   1.000  Fe
  Fe4      1.0000 0.70361  0.29639  0.00000  Biso   1.000  Fe
  Fe5      1.0000 0.70361  0.40722  0.00000  Biso   1.000  Fe
  Fe6      1.0000 0.59278  0.29639  0.00000  Biso   1.000  Fe
  Co1      1.0000 0.49240  0.00000  0.50000  Biso   1.000  Co
  Co2      1.0000 0.00000  0.49240  0.50000  Biso   1.000  Co
  Co3      1.0000 0.50760  0.50760  0.50000  Biso   1.000  Co
  Co4      1.0000 0.50760  0.00000  0.50000  Biso   1.000  Co
  Co5      1.0000 0.00000  0.50760  0.50000  Biso   1.000  Co
  Co6      1.0000 0.49240  0.49240  0.50000  Biso   1.000  Co
  C49      1.0000 0.44830  0.89660  0.43560  Biso   1.000  C
  C50      1.0000 0.48055  0.96110  0.33190  Biso   1.000  C
  C51      1.0000 0.45545  0.91090  0.35710  Biso   1.000  C
  C52      1.0000 0.42395  0.84790  0.45930  Biso   1.000  C
  H49      1.0000 0.41025  0.82050  0.42640  Biso   1.000  H
  C53      1.0000 0.48745  0.97490  0.25410  Biso   1.000  C
  H50      1.0000 0.47720  0.95440  0.21010  Biso   1.000  H
  C54      1.0000 0.43615  0.87230  0.29340  Biso   1.000  C
  C55      1.0000 0.40045  0.80090  0.17570  Biso   1.000  C
  C56      1.0000 0.38155  0.76310  0.10870  Biso   1.000  C
  C57      1.0000 0.10340  0.55170  0.43560  Biso   1.000  C
  C58      1.0000 0.03890  0.51945  0.33190  Biso   1.000  C
  C59      1.0000 0.08910  0.54455  0.35710  Biso   1.000  C
  C60      1.0000 0.15210  0.57605  0.45930  Biso   1.000  C
  H51      1.0000 0.17950  0.58975  0.42640  Biso   1.000  H
  C61      1.0000 0.02510  0.51255  0.25410  Biso   1.000  C
  H52      1.0000 0.04560  0.52280  0.21010  Biso   1.000  H
  C62      1.0000 0.12770  0.56385  0.29340  Biso   1.000  C
  C63      1.0000 0.19910  0.59955  0.17570  Biso   1.000  C
  C64      1.0000 0.23690  0.61845  0.10870  Biso   1.000  C
  C65      1.0000 0.44830  0.55170  0.43560  Biso   1.000  C
  C66      1.0000 0.48055  0.51945  0.33190  Biso   1.000  C
  C67      1.0000 0.45545  0.54455  0.35710  Biso   1.000  C
  C68      1.0000 0.42395  0.57605  0.45930  Biso   1.000  C
  H53      1.0000 0.41025  0.58975  0.42640  Biso   1.000  H
  C69      1.0000 0.48745  0.51255  0.25410  Biso   1.000  C
  H54      1.0000 0.47720  0.52280  0.21010  Biso   1.000  H
  C70      1.0000 0.43615  0.56385  0.29340  Biso   1.000  C
  C71      1.0000 0.40045  0.59955  0.17570  Biso   1.000  C
  C72      1.0000 0.38155  0.61845  0.10870  Biso   1.000  C
  C73      1.0000 0.55170  0.10340  0.43560  Biso   1.000  C
  C74      1.0000 0.51945  0.03890  0.33190  Biso   1.000  C
  C75      1.0000 0.54455  0.08910  0.35710  Biso   1.000  C
  C76      1.0000 0.57605  0.15210  0.45930  Biso   1.000  C
  H55      1.0000 0.58975  0.17950  0.42640  Biso   1.000  H
  C77      1.0000 0.51255  0.02510  0.25410  Biso   1.000  C
  H56      1.0000 0.52280  0.04560  0.21010  Biso   1.000  H
  C78      1.0000 0.56385  0.12770  0.29340  Biso   1.000  C
  C79      1.0000 0.59955  0.19910  0.17570  Biso   1.000  C
  C80      1.0000 0.61845  0.23690  0.10870  Biso   1.000  C
  C81      1.0000 0.89660  0.44830  0.43560  Biso   1.000  C
  C82      1.0000 0.96110  0.48055  0.33190  Biso   1.000  C
  C83      1.0000 0.91090  0.45545  0.35710  Biso   1.000  C
  C84      1.0000 0.84790  0.42395  0.45930  Biso   1.000  C
  H57      1.0000 0.82050  0.41025  0.42640  Biso   1.000  H
  C85      1.0000 0.97490  0.48745  0.25410  Biso   1.000  C
  H58      1.0000 0.95440  0.47720  0.21010  Biso   1.000  H
  C86      1.0000 0.87230  0.43615  0.29340  Biso   1.000  C
  C87      1.0000 0.80090  0.40045  0.17570  Biso   1.000  C
  C88      1.0000 0.76310  0.38155  0.10870  Biso   1.000  C
  C89      1.0000 0.55170  0.44830  0.43560  Biso   1.000  C
  C90      1.0000 0.51945  0.48055  0.33190  Biso   1.000  C
  C91      1.0000 0.54455  0.45545  0.35710  Biso   1.000  C
  C92      1.0000 0.57605  0.42395  0.45930  Biso   1.000  C
  H59      1.0000 0.58975  0.41025  0.42640  Biso   1.000  H
  C93      1.0000 0.51255  0.48745  0.25410  Biso   1.000  C
  H60      1.0000 0.52280  0.47720  0.21010  Biso   1.000  H
  C94      1.0000 0.56385  0.43615  0.29340  Biso   1.000  C
  C95      1.0000 0.59955  0.40045  0.17570  Biso   1.000  C
  C96      1.0000 0.61845  0.38155  0.10870  Biso   1.000  C
  C97      1.0000 0.89660  0.44830  0.56440  Biso   1.000  C
  C98      1.0000 0.96110  0.48055  0.66810  Biso   1.000  C
  C99      1.0000 0.91090  0.45545  0.64290  Biso   1.000  C
  C100     1.0000 0.84790  0.42395  0.54070  Biso   1.000  C
  H61      1.0000 0.82050  0.41025  0.57360  Biso   1.000  H
  C101     1.0000 0.97490  0.48745  0.74590  Biso   1.000  C
  H62      1.0000 0.95440  0.47720  0.78990  Biso   1.000  H
  C102     1.0000 0.87230  0.43615  0.70660  Biso   1.000  C
  C103     1.0000 0.80090  0.40045  0.82430  Biso   1.000  C
  C104     1.0000 0.76310  0.38155  0.89130  Biso   1.000  C
  C105     1.0000 0.55170  0.10340  0.56440  Biso   1.000  C
  C106     1.0000 0.51945  0.03890  0.66810  Biso   1.000  C
  C107     1.0000 0.54455  0.08910  0.64290  Biso   1.000  C
  C108     1.0000 0.57605  0.15210  0.54070  Biso   1.000  C
  H63      1.0000 0.58975  0.17950  0.57360  Biso   1.000  H
  C109     1.0000 0.51255  0.02510  0.74590  Biso   1.000  C
  H64      1.0000 0.52280  0.04560  0.78990  Biso   1.000  H
  C110     1.0000 0.56385  0.12770  0.70660  Biso   1.000  C
  C111     1.0000 0.59955  0.19910  0.82430  Biso   1.000  C
  C112     1.0000 0.61845  0.23690  0.89130  Biso   1.000  C
  C113     1.0000 0.55170  0.44830  0.56440  Biso   1.000  C
  C114     1.0000 0.51945  0.48055  0.66810  Biso   1.000  C
  C115     1.0000 0.54455  0.45545  0.64290  Biso   1.000  C
  C116     1.0000 0.57605  0.42395  0.54070  Biso   1.000  C
  H65      1.0000 0.58975  0.41025  0.57360  Biso   1.000  H
  C117     1.0000 0.51255  0.48745  0.74590  Biso   1.000  C
  H66      1.0000 0.52280  0.47720  0.78990  Biso   1.000  H
  C118     1.0000 0.56385  0.43615  0.70660  Biso   1.000  C
  C119     1.0000 0.59955  0.40045  0.82430  Biso   1.000  C
  C120     1.0000 0.61845  0.38155  0.89130  Biso   1.000  C
  C121     1.0000 0.10340  0.55170  0.56440  Biso   1.000  C
  C122     1.0000 0.03890  0.51945  0.66810  Biso   1.000  C
  C123     1.0000 0.08910  0.54455  0.64290  Biso   1.000  C
  C124     1.0000 0.15210  0.57605  0.54070  Biso   1.000  C
  H67      1.0000 0.17950  0.58975  0.57360  Biso   1.000  H
  C125     1.0000 0.02510  0.51255  0.74590  Biso   1.000  C
  H68      1.0000 0.04560  0.52280  0.78990  Biso   1.000  H
  C126     1.0000 0.12770  0.56385  0.70660  Biso   1.000  C
  C127     1.0000 0.19910  0.59955  0.82430  Biso   1.000  C
  C128     1.0000 0.23690  0.61845  0.89130  Biso   1.000  C
  C129     1.0000 0.44830  0.89660  0.56440  Biso   1.000  C
  C130     1.0000 0.48055  0.96110  0.66810  Biso   1.000  C
  C131     1.0000 0.45545  0.91090  0.64290  Biso   1.000  C
  C132     1.0000 0.42395  0.84790  0.54070  Biso   1.000  C
  H69      1.0000 0.41025  0.82050  0.57360  Biso   1.000  H
  C133     1.0000 0.48745  0.97490  0.74590  Biso   1.000  C
  H70      1.0000 0.47720  0.95440  0.78990  Biso   1.000  H
  C134     1.0000 0.43615  0.87230  0.70660  Biso   1.000  C
  C135     1.0000 0.40045  0.80090  0.82430  Biso   1.000  C
  C136     1.0000 0.38155  0.76310  0.89130  Biso   1.000  C
  C137     1.0000 0.44830  0.55170  0.56440  Biso   1.000  C
  C138     1.0000 0.48055  0.51945  0.66810  Biso   1.000  C
  C139     1.0000 0.45545  0.54455  0.64290  Biso   1.000  C
  C140     1.0000 0.42395  0.57605  0.54070  Biso   1.000  C
  H71      1.0000 0.41025  0.58975  0.57360  Biso   1.000  H
  C141     1.0000 0.48745  0.51255  0.74590  Biso   1.000  C
  H72      1.0000 0.47720  0.52280  0.78990  Biso   1.000  H
  C142     1.0000 0.43615  0.56385  0.70660  Biso   1.000  C
  C143     1.0000 0.40045  0.59955  0.82430  Biso   1.000  C
  C144     1.0000 0.38155  0.61845  0.89130  Biso   1.000  C
  N1       1.0000 0.46380  0.92760  0.50000  Biso   1.000  N
  N2       1.0000 0.07240  0.53620  0.50000  Biso   1.000  N
  N3       1.0000 0.46380  0.53620  0.50000  Biso   1.000  N
  N4       1.0000 0.53620  0.07240  0.50000  Biso   1.000  N
  N5       1.0000 0.92760  0.46380  0.50000  Biso   1.000  N
  N6       1.0000 0.53620  0.46380  0.50000  Biso   1.000  N
  O25      1.0000 0.33333  0.66667  0.00000  Biso   1.000  O
  O26      1.0000 0.66667  0.33333  0.00000  Biso   1.000  O
  N7       1.0000 0.50000  0.00000  0.38180  Biso   1.000  N
  N8       1.0000 0.00000  0.50000  0.38180  Biso   1.000  N
  N9       1.0000 0.50000  0.50000  0.38180  Biso   1.000  N
  N10      1.0000 0.00000  0.50000  0.61820  Biso   1.000  N
  N11      1.0000 0.50000  0.00000  0.61820  Biso   1.000  N
  N12      1.0000 0.50000  0.50000  0.61820  Biso   1.000  N
