data_image0
_cell_length_a       32.4771
_cell_length_b       32.4771
_cell_length_c       16.7559
_cell_angle_alpha    90
_cell_angle_beta     90
_cell_angle_gamma    120

_symmetry_space_group_name_H-M    "P 1"
_symmetry_int_tables_number       1

loop_
  _symmetry_equiv_pos_as_xyz
  'x, y, z'

loop_
  _atom_site_label
  _atom_site_occupancy
  _atom_site_fract_x
  _atom_site_fract_y
  _atom_site_fract_z
  _atom_site_thermal_displace_type
  _atom_site_B_iso_or_equiv
  _atom_site_type_symbol
  O1       1.0000 0.75208  0.34180  0.59110  Biso   1.000  O
  C1       1.0000 0.82380  0.37450  0.70410  Biso   1.000  C
  H1       1.0000 0.81280  0.34440  0.68300  Biso   1.000  H
  C2       1.0000 0.85850  0.39160  0.76420  Biso   1.000  C
  H2       1.0000 0.86960  0.37230  0.78460  Biso   1.000  H
  O2       1.0000 0.65820  0.41028  0.59110  Biso   1.000  O
  C3       1.0000 0.62550  0.44930  0.70410  Biso   1.000  C
  H3       1.0000 0.65560  0.46840  0.68300  Biso   1.000  H
  C4       1.0000 0.60840  0.46690  0.76420  Biso   1.000  C
  H4       1.0000 0.62770  0.49730  0.78460  Biso   1.000  H
  O3       1.0000 0.58972  0.24792  0.59110  Biso   1.000  O
  C5       1.0000 0.55070  0.17620  0.70410  Biso   1.000  C
  H5       1.0000 0.53160  0.18720  0.68300  Biso   1.000  H
  C6       1.0000 0.53310  0.14150  0.76420  Biso   1.000  C
  H6       1.0000 0.50270  0.13040  0.78460  Biso   1.000  H
  O4       1.0000 0.24792  0.65820  0.59110  Biso   1.000  O
  C7       1.0000 0.17620  0.62550  0.70410  Biso   1.000  C
  H7       1.0000 0.18720  0.65560  0.68300  Biso   1.000  H
  C8       1.0000 0.14150  0.60840  0.76420  Biso   1.000  C
  H8       1.0000 0.13040  0.62770  0.78460  Biso   1.000  H
  O5       1.0000 0.34180  0.58972  0.59110  Biso   1.000  O
  C9       1.0000 0.37450  0.55070  0.70410  Biso   1.000  C
  H9       1.0000 0.34440  0.53160  0.68300  Biso   1.000  H
  C10      1.0000 0.39160  0.53310  0.76420  Biso   1.000  C
  H10      1.0000 0.37230  0.50270  0.78460  Biso   1.000  H
  O6       1.0000 0.41028  0.75208  0.59110  Biso   1.000  O
  C11      1.0000 0.44930  0.82380  0.70410  Biso   1.000  C
  H11      1.0000 0.46840  0.81280  0.68300  Biso   1.000  H
  C12      1.0000 0.46690  0.85850  0.76420  Biso   1.000  C
  H12      1.0000 0.49730  0.86960  0.78460  Biso   1.000  H
  O7       1.0000 0.34180  0.75208  0.40890  Biso   1.000  O
  C13      1.0000 0.37450  0.82380  0.29590  Biso   1.000  C
  H13      1.0000 0.34440  0.81280  0.31700  Biso   1.000  H
  C14      1.0000 0.39160  0.85850  0.23580  Biso   1.000  C
  H14      1.0000 0.37230  0.86960  0.21540  Biso   1.000  H
  O8       1.0000 0.41028  0.65820  0.40890  Biso   1.000  O
  C15      1.0000 0.44930  0.62550  0.29590  Biso   1.000  C
  H15      1.0000 0.46840  0.65560  0.31700  Biso   1.000  H
  C16      1.0000 0.46690  0.60840  0.23580  Biso   1.000  C
  H16      1.0000 0.49730  0.62770  0.21540  Biso   1.000  H
  O9       1.0000 0.24792  0.58972  0.40890  Biso   1.000  O
  C17      1.0000 0.17620  0.55070  0.29590  Biso   1.000  C
  H17      1.0000 0.18720  0.53160  0.31700  Biso   1.000  H
  C18      1.0000 0.14150  0.53310  0.23580  Biso   1.000  C
  H18      1.0000 0.13040  0.50270  0.21540  Biso   1.000  H
  O10      1.0000 0.65820  0.24792  0.40890  Biso   1.000  O
  C19      1.0000 0.62550  0.17620  0.29590  Biso   1.000  C
  H19      1.0000 0.65560  0.18720  0.31700  Biso   1.000  H
  C20      1.0000 0.60840  0.14150  0.23580  Biso   1.000  C
  H20      1.0000 0.62770  0.13040  0.21540  Biso   1.000  H
  O11      1.0000 0.58972  0.34180  0.40890  Biso   1.000  O
  C21      1.0000 0.55070  0.37450  0.29590  Biso   1.000  C
  H21      1.0000 0.53160  0.34440  0.31700  Biso   1.000  H
  C22      1.0000 0.53310  0.39160  0.23580  Biso   1.000  C
  H22      1.0000 0.50270  0.37230  0.21540  Biso   1.000  H
  O12      1.0000 0.75208  0.41028  0.40890  Biso   1.000  O
  C23      1.0000 0.82380  0.44930  0.29590  Biso   1.000  C
  H23      1.0000 0.81280  0.46840  0.31700  Biso   1.000  H
  C24      1.0000 0.85850  0.46690  0.23580  Biso   1.000  C
  H24      1.0000 0.86960  0.49730  0.21540  Biso   1.000  H
  O13      1.0000 0.24792  0.65820  0.40890  Biso   1.000  O
  C25      1.0000 0.17620  0.62550  0.29590  Biso   1.000  C
  H25      1.0000 0.18720  0.65560  0.31700  Biso   1.000  H
  C26      1.0000 0.14150  0.60840  0.23580  Biso   1.000  C
  H26      1.0000 0.13040  0.62770  0.21540  Biso   1.000  H
  O14      1.0000 0.34180  0.58972  0.40890  Biso   1.000  O
  C27      1.0000 0.37450  0.55070  0.29590  Biso   1.000  C
  H27      1.0000 0.34440  0.53160  0.31700  Biso   1.000  H
  C28      1.0000 0.39160  0.53310  0.23580  Biso   1.000  C
  H28      1.0000 0.37230  0.50270  0.21540  Biso   1.000  H
  O15      1.0000 0.41028  0.75208  0.40890  Biso   1.000  O
  C29      1.0000 0.44930  0.82380  0.29590  Biso   1.000  C
  H29      1.0000 0.46840  0.81280  0.31700  Biso   1.000  H
  C30      1.0000 0.46690  0.85850  0.23580  Biso   1.000  C
  H30      1.0000 0.49730  0.86960  0.21540  Biso   1.000  H
  O16      1.0000 0.75208  0.34180  0.40890  Biso   1.000  O
  C31      1.0000 0.82380  0.37450  0.29590  Biso   1.000  C
  H31      1.0000 0.81280  0.34440  0.31700  Biso   1.000  H
  C32      1.0000 0.85850  0.39160  0.23580  Biso   1.000  C
  H32      1.0000 0.86960  0.37230  0.21540  Biso   1.000  H
  O17      1.0000 0.65820  0.41028  0.40890  Biso   1.000  O
  C33      1.0000 0.62550  0.44930  0.29590  Biso   1.000  C
  H33      1.0000 0.65560  0.46840  0.31700  Biso   1.000  H
  C34      1.0000 0.60840  0.46690  0.23580  Biso   1.000  C
  H34      1.0000 0.62770  0.49730  0.21540  Biso   1.000  H
  O18      1.0000 0.58972  0.24792  0.40890  Biso   1.000  O
  C35      1.0000 0.55070  0.17620  0.29590  Biso   1.000  C
  H35      1.0000 0.53160  0.18720  0.31700  Biso   1.000  H
  C36      1.0000 0.53310  0.14150  0.23580  Biso   1.000  C
  H36      1.0000 0.50270  0.13040  0.21540  Biso   1.000  H
  O19      1.0000 0.65820  0.24792  0.59110  Biso   1.000  O
  C37      1.0000 0.62550  0.17620  0.70410  Biso   1.000  C
  H37      1.0000 0.65560  0.18720  0.68300  Biso   1.000  H
  C38      1.0000 0.60840  0.14150  0.76420  Biso   1.000  C
  H38      1.0000 0.62770  0.13040  0.78460  Biso   1.000  H
  O20      1.0000 0.58972  0.34180  0.59110  Biso   1.000  O
  C39      1.0000 0.55070  0.37450  0.70410  Biso   1.000  C
  H39      1.0000 0.53160  0.34440  0.68300  Biso   1.000  H
  C40      1.0000 0.53310  0.39160  0.76420  Biso   1.000  C
  H40      1.0000 0.50270  0.37230  0.78460  Biso   1.000  H
  O21      1.0000 0.75208  0.41028  0.59110  Biso   1.000  O
  C41      1.0000 0.82380  0.44930  0.70410  Biso   1.000  C
  H41      1.0000 0.81280  0.46840  0.68300  Biso   1.000  H
  C42      1.0000 0.85850  0.46690  0.76420  Biso   1.000  C
  H42      1.0000 0.86960  0.49730  0.78460  Biso   1.000  H
  O22      1.0000 0.34180  0.75208  0.59110  Biso   1.000  O
  C43      1.0000 0.37450  0.82380  0.70410  Biso   1.000  C
  H43      1.0000 0.34440  0.81280  0.68300  Biso   1.000  H
  C44      1.0000 0.39160  0.85850  0.76420  Biso   1.000  C
  H44      1.0000 0.37230  0.86960  0.78460  Biso   1.000  H
  O23      1.0000 0.41028  0.65820  0.59110  Biso   1.000  O
  C45      1.0000 0.44930  0.62550  0.70410  Biso   1.000  C
  H45      1.0000 0.46840  0.65560  0.68300  Biso   1.000  H
  C46      1.0000 0.46690  0.60840  0.76420  Biso   1.000  C
  H46      1.0000 0.49730  0.62770  0.78460  Biso   1.000  H
  O24      1.0000 0.24792  0.58972  0.59110  Biso   1.000  O
  C47      1.0000 0.17620  0.55070  0.70410  Biso   1.000  C
  H47      1.0000 0.18720  0.53160  0.68300  Biso   1.000  H
  C48      1.0000 0.14150  0.53310  0.76420  Biso   1.000  C
  H48      1.0000 0.13040  0.50270  0.78460  Biso   1.000  H
  N1       1.0000 0.93110  0.46555  0.00000  Biso   1.000  N
  N2       1.0000 0.53445  0.46555  0.00000  Biso   1.000  N
  N3       1.0000 0.53445  0.06890  0.00000  Biso   1.000  N
  N4       1.0000 0.06890  0.53445  0.00000  Biso   1.000  N
  N5       1.0000 0.46555  0.53445  0.00000  Biso   1.000  N
  N6       1.0000 0.46555  0.93110  0.00000  Biso   1.000  N
  Co1      1.0000 0.00000  0.49051  0.00000  Biso   1.000  Co
  O25      1.0000 0.00000  0.46070  0.00000  Biso   1.000  O
  O26      1.0000 0.00000  0.43060  0.00000  Biso   1.000  O
  Co2      1.0000 0.50949  0.50949  0.00000  Biso   1.000  Co
  O27      1.0000 0.53930  0.53930  0.00000  Biso   1.000  O
  O28      1.0000 0.56940  0.56940  0.00000  Biso   1.000  O
  Co3      1.0000 0.49051  0.00000  0.00000  Biso   1.000  Co
  O29      1.0000 0.46070  0.00000  0.00000  Biso   1.000  O
  O30      1.0000 0.43060  0.00000  0.00000  Biso   1.000  O
  Co4      1.0000 0.00000  0.50949  0.00000  Biso   1.000  Co
  O31      1.0000 0.00000  0.53930  0.00000  Biso   1.000  O
  O32      1.0000 0.00000  0.56940  0.00000  Biso   1.000  O
  Co5      1.0000 0.49051  0.49051  0.00000  Biso   1.000  Co
  O33      1.0000 0.46070  0.46070  0.00000  Biso   1.000  O
  O34      1.0000 0.43060  0.43060  0.00000  Biso   1.000  O
  Co6      1.0000 0.50949  0.00000  0.00000  Biso   1.000  Co
  O35      1.0000 0.53930  0.00000  0.00000  Biso   1.000  O
  O36      1.0000 0.56940  0.00000  0.00000  Biso   1.000  O
  N7       1.0000 0.00000  0.50000  0.88570  Biso   1.000  N
  N8       1.0000 0.50000  0.50000  0.88570  Biso   1.000  N
  N9       1.0000 0.50000  0.00000  0.88570  Biso   1.000  N
  N10      1.0000 0.50000  0.00000  0.11430  Biso   1.000  N
  N11      1.0000 0.50000  0.50000  0.11430  Biso   1.000  N
  N12      1.0000 0.00000  0.50000  0.11430  Biso   1.000  N
  C49      1.0000 0.76570  0.38285  0.61420  Biso   1.000  C
  C50      1.0000 0.80550  0.40275  0.67600  Biso   1.000  C
  C51      1.0000 0.87660  0.43830  0.79350  Biso   1.000  C
  C52      1.0000 0.91410  0.45705  0.85560  Biso   1.000  C
  C53      1.0000 0.96120  0.48060  0.83230  Biso   1.000  C
  C54      1.0000 0.90000  0.45000  0.93310  Biso   1.000  C
  C55      1.0000 0.97680  0.48840  0.75240  Biso   1.000  C
  H49      1.0000 0.95740  0.47870  0.70750  Biso   1.000  H
  C56      1.0000 0.85210  0.42605  0.95830  Biso   1.000  C
  H50      1.0000 0.82540  0.41270  0.92540  Biso   1.000  H
  C57      1.0000 0.61715  0.38285  0.61420  Biso   1.000  C
  C58      1.0000 0.59725  0.40275  0.67600  Biso   1.000  C
  C59      1.0000 0.56170  0.43830  0.79350  Biso   1.000  C
  C60      1.0000 0.54295  0.45705  0.85560  Biso   1.000  C
  C61      1.0000 0.51940  0.48060  0.83230  Biso   1.000  C
  C62      1.0000 0.55000  0.45000  0.93310  Biso   1.000  C
  C63      1.0000 0.51160  0.48840  0.75240  Biso   1.000  C
  H51      1.0000 0.52130  0.47870  0.70750  Biso   1.000  H
  C64      1.0000 0.57395  0.42605  0.95830  Biso   1.000  C
  H52      1.0000 0.58730  0.41270  0.92540  Biso   1.000  H
  C65      1.0000 0.61715  0.23430  0.61420  Biso   1.000  C
  C66      1.0000 0.59725  0.19450  0.67600  Biso   1.000  C
  C67      1.0000 0.56170  0.12340  0.79350  Biso   1.000  C
  C68      1.0000 0.54295  0.08590  0.85560  Biso   1.000  C
  C69      1.0000 0.51940  0.03880  0.83230  Biso   1.000  C
  C70      1.0000 0.55000  0.10000  0.93310  Biso   1.000  C
  C71      1.0000 0.51160  0.02320  0.75240  Biso   1.000  C
  H53      1.0000 0.52130  0.04260  0.70750  Biso   1.000  H
  C72      1.0000 0.57395  0.14790  0.95830  Biso   1.000  C
  H54      1.0000 0.58730  0.17460  0.92540  Biso   1.000  H
  C73      1.0000 0.23430  0.61715  0.61420  Biso   1.000  C
  C74      1.0000 0.19450  0.59725  0.67600  Biso   1.000  C
  C75      1.0000 0.12340  0.56170  0.79350  Biso   1.000  C
  C76      1.0000 0.08590  0.54295  0.85560  Biso   1.000  C
  C77      1.0000 0.03880  0.51940  0.83230  Biso   1.000  C
  C78      1.0000 0.10000  0.55000  0.93310  Biso   1.000  C
  C79      1.0000 0.02320  0.51160  0.75240  Biso   1.000  C
  H55      1.0000 0.04260  0.52130  0.70750  Biso   1.000  H
  C80      1.0000 0.14790  0.57395  0.95830  Biso   1.000  C
  H56      1.0000 0.17460  0.58730  0.92540  Biso   1.000  H
  C81      1.0000 0.38285  0.61715  0.61420  Biso   1.000  C
  C82      1.0000 0.40275  0.59725  0.67600  Biso   1.000  C
  C83      1.0000 0.43830  0.56170  0.79350  Biso   1.000  C
  C84      1.0000 0.45705  0.54295  0.85560  Biso   1.000  C
  C85      1.0000 0.48060  0.51940  0.83230  Biso   1.000  C
  C86      1.0000 0.45000  0.55000  0.93310  Biso   1.000  C
  C87      1.0000 0.48840  0.51160  0.75240  Biso   1.000  C
  H57      1.0000 0.47870  0.52130  0.70750  Biso   1.000  H
  C88      1.0000 0.42605  0.57395  0.95830  Biso   1.000  C
  H58      1.0000 0.41270  0.58730  0.92540  Biso   1.000  H
  C89      1.0000 0.38285  0.76570  0.61420  Biso   1.000  C
  C90      1.0000 0.40275  0.80550  0.67600  Biso   1.000  C
  C91      1.0000 0.43830  0.87660  0.79350  Biso   1.000  C
  C92      1.0000 0.45705  0.91410  0.85560  Biso   1.000  C
  C93      1.0000 0.48060  0.96120  0.83230  Biso   1.000  C
  C94      1.0000 0.45000  0.90000  0.93310  Biso   1.000  C
  C95      1.0000 0.48840  0.97680  0.75240  Biso   1.000  C
  H59      1.0000 0.47870  0.95740  0.70750  Biso   1.000  H
  C96      1.0000 0.42605  0.85210  0.95830  Biso   1.000  C
  H60      1.0000 0.41270  0.82540  0.92540  Biso   1.000  H
  C97      1.0000 0.38285  0.76570  0.38580  Biso   1.000  C
  C98      1.0000 0.40275  0.80550  0.32400  Biso   1.000  C
  C99      1.0000 0.43830  0.87660  0.20650  Biso   1.000  C
  C100     1.0000 0.45705  0.91410  0.14440  Biso   1.000  C
  C101     1.0000 0.48060  0.96120  0.16770  Biso   1.000  C
  C102     1.0000 0.45000  0.90000  0.06690  Biso   1.000  C
  C103     1.0000 0.48840  0.97680  0.24760  Biso   1.000  C
  H61      1.0000 0.47870  0.95740  0.29250  Biso   1.000  H
  C104     1.0000 0.42605  0.85210  0.04170  Biso   1.000  C
  H62      1.0000 0.41270  0.82540  0.07460  Biso   1.000  H
  C105     1.0000 0.38285  0.61715  0.38580  Biso   1.000  C
  C106     1.0000 0.40275  0.59725  0.32400  Biso   1.000  C
  C107     1.0000 0.43830  0.56170  0.20650  Biso   1.000  C
  C108     1.0000 0.45705  0.54295  0.14440  Biso   1.000  C
  C109     1.0000 0.48060  0.51940  0.16770  Biso   1.000  C
  C110     1.0000 0.45000  0.55000  0.06690  Biso   1.000  C
  C111     1.0000 0.48840  0.51160  0.24760  Biso   1.000  C
  H63      1.0000 0.47870  0.52130  0.29250  Biso   1.000  H
  C112     1.0000 0.42605  0.57395  0.04170  Biso   1.000  C
  H64      1.0000 0.41270  0.58730  0.07460  Biso   1.000  H
  C113     1.0000 0.23430  0.61715  0.38580  Biso   1.000  C
  C114     1.0000 0.19450  0.59725  0.32400  Biso   1.000  C
  C115     1.0000 0.12340  0.56170  0.20650  Biso   1.000  C
  C116     1.0000 0.08590  0.54295  0.14440  Biso   1.000  C
  C117     1.0000 0.03880  0.51940  0.16770  Biso   1.000  C
  C118     1.0000 0.10000  0.55000  0.06690  Biso   1.000  C
  C119     1.0000 0.02320  0.51160  0.24760  Biso   1.000  C
  H65      1.0000 0.04260  0.52130  0.29250  Biso   1.000  H
  C120     1.0000 0.14790  0.57395  0.04170  Biso   1.000  C
  H66      1.0000 0.17460  0.58730  0.07460  Biso   1.000  H
  C121     1.0000 0.61715  0.23430  0.38580  Biso   1.000  C
  C122     1.0000 0.59725  0.19450  0.32400  Biso   1.000  C
  C123     1.0000 0.56170  0.12340  0.20650  Biso   1.000  C
  C124     1.0000 0.54295  0.08590  0.14440  Biso   1.000  C
  C125     1.0000 0.51940  0.03880  0.16770  Biso   1.000  C
  C126     1.0000 0.55000  0.10000  0.06690  Biso   1.000  C
  C127     1.0000 0.51160  0.02320  0.24760  Biso   1.000  C
  H67      1.0000 0.52130  0.04260  0.29250  Biso   1.000  H
  C128     1.0000 0.57395  0.14790  0.04170  Biso   1.000  C
  H68      1.0000 0.58730  0.17460  0.07460  Biso   1.000  H
  C129     1.0000 0.61715  0.38285  0.38580  Biso   1.000  C
  C130     1.0000 0.59725  0.40275  0.32400  Biso   1.000  C
  C131     1.0000 0.56170  0.43830  0.20650  Biso   1.000  C
  C132     1.0000 0.54295  0.45705  0.14440  Biso   1.000  C
  C133     1.0000 0.51940  0.48060  0.16770  Biso   1.000  C
  C134     1.0000 0.55000  0.45000  0.06690  Biso   1.000  C
  C135     1.0000 0.51160  0.48840  0.24760  Biso   1.000  C
  H69      1.0000 0.52130  0.47870  0.29250  Biso   1.000  H
  C136     1.0000 0.57395  0.42605  0.04170  Biso   1.000  C
  H70      1.0000 0.58730  0.41270  0.07460  Biso   1.000  H
  C137     1.0000 0.76570  0.38285  0.38580  Biso   1.000  C
  C138     1.0000 0.80550  0.40275  0.32400  Biso   1.000  C
  C139     1.0000 0.87660  0.43830  0.20650  Biso   1.000  C
  C140     1.0000 0.91410  0.45705  0.14440  Biso   1.000  C
  C141     1.0000 0.96120  0.48060  0.16770  Biso   1.000  C
  C142     1.0000 0.90000  0.45000  0.06690  Biso   1.000  C
  C143     1.0000 0.97680  0.48840  0.24760  Biso   1.000  C
  H71      1.0000 0.95740  0.47870  0.29250  Biso   1.000  H
  C144     1.0000 0.85210  0.42605  0.04170  Biso   1.000  C
  H72      1.0000 0.82540  0.41270  0.07460  Biso   1.000  H
  Mn1      1.0000 0.70372  0.29628  0.50000  Biso   1.000  Mn
  Mn2      1.0000 0.70372  0.40744  0.50000  Biso   1.000  Mn
  Mn3      1.0000 0.59256  0.29628  0.50000  Biso   1.000  Mn
  Mn4      1.0000 0.29628  0.70372  0.50000  Biso   1.000  Mn
  Mn5      1.0000 0.29628  0.59256  0.50000  Biso   1.000  Mn
  Mn6      1.0000 0.40744  0.70372  0.50000  Biso   1.000  Mn
  O37      1.0000 0.66667  0.33333  0.50000  Biso   1.000  O
  O38      1.0000 0.33333  0.66667  0.50000  Biso   1.000  O
