data_image0
_cell_length_a       22.52
_cell_length_b       11.7787
_cell_length_c       11.6128
_cell_angle_alpha    90
_cell_angle_beta     95.56
_cell_angle_gamma    90

_symmetry_space_group_name_H-M    "P 1"
_symmetry_int_tables_number       1

loop_
  _symmetry_equiv_pos_as_xyz
  'x, y, z'

loop_
  _atom_site_label
  _atom_site_occupancy
  _atom_site_fract_x
  _atom_site_fract_y
  _atom_site_fract_z
  _atom_site_thermal_displace_type
  _atom_site_B_iso_or_equiv
  _atom_site_type_symbol
  N1       1.0000 0.22350  0.42670  0.50640  Biso   1.000  N
  N2       1.0000 0.27290  0.26230  0.76020  Biso   1.000  N
  O1       1.0000 0.44710  0.42630  0.57330  Biso   1.000  O
  O2       1.0000 0.42970  0.44240  0.38330  Biso   1.000  O
  O3       1.0000 0.05270  0.32180  0.72900  Biso   1.000  O
  O4       1.0000 0.06220  0.16240  0.83410  Biso   1.000  O
  C1       1.0000 0.41330  0.43430  0.48280  Biso   1.000  C
  C2       1.0000 0.26180  0.37570  0.58790  Biso   1.000  C
  C3       1.0000 0.32360  0.37870  0.58300  Biso   1.000  C
  H1       1.0000 0.34900  0.34530  0.64130  Biso   1.000  H
  C4       1.0000 0.34670  0.43190  0.49070  Biso   1.000  C
  C5       1.0000 0.30720  0.48280  0.40590  Biso   1.000  C
  H2       1.0000 0.32110  0.51780  0.34190  Biso   1.000  H
  C6       1.0000 0.24660  0.47980  0.41960  Biso   1.000  C
  H3       1.0000 0.22060  0.51720  0.36510  Biso   1.000  H
  C7       1.0000 0.08370  0.24120  0.78110  Biso   1.000  C
  C8       1.0000 0.23430  0.31360  0.67870  Biso   1.000  C
  C9       1.0000 0.17260  0.30880  0.68510  Biso   1.000  C
  H4       1.0000 0.14720  0.34760  0.63070  Biso   1.000  H
  C10      1.0000 0.14930  0.24820  0.76970  Biso   1.000  C
  C11      1.0000 0.18910  0.19420  0.85460  Biso   1.000  C
  H5       1.0000 0.17490  0.15250  0.91420  Biso   1.000  H
  C12      1.0000 0.25000  0.20560  0.84600  Biso   1.000  C
  H6       1.0000 0.27630  0.17210  0.90270  Biso   1.000  H
  H7       1.0000 0.01730  0.31270  0.73780  Biso   1.000  H
  N3       1.0000 0.72350  0.92670  0.50640  Biso   1.000  N
  N4       1.0000 0.77290  0.76230  0.76020  Biso   1.000  N
  O5       1.0000 0.94710  0.92630  0.57330  Biso   1.000  O
  O6       1.0000 0.92970  0.94240  0.38330  Biso   1.000  O
  O7       1.0000 0.55270  0.82180  0.72900  Biso   1.000  O
  O8       1.0000 0.56220  0.66240  0.83410  Biso   1.000  O
  C13      1.0000 0.91330  0.93430  0.48280  Biso   1.000  C
  C14      1.0000 0.76180  0.87570  0.58790  Biso   1.000  C
  C15      1.0000 0.82360  0.87870  0.58300  Biso   1.000  C
  H8       1.0000 0.84900  0.84530  0.64130  Biso   1.000  H
  C16      1.0000 0.84670  0.93190  0.49070  Biso   1.000  C
  C17      1.0000 0.80720  0.98280  0.40590  Biso   1.000  C
  H9       1.0000 0.82110  0.01780  0.34190  Biso   1.000  H
  C18      1.0000 0.74660  0.97980  0.41960  Biso   1.000  C
  H10      1.0000 0.72060  0.01720  0.36510  Biso   1.000  H
  C19      1.0000 0.58370  0.74120  0.78110  Biso   1.000  C
  C20      1.0000 0.73430  0.81360  0.67870  Biso   1.000  C
  C21      1.0000 0.67260  0.80880  0.68510  Biso   1.000  C
  H11      1.0000 0.64720  0.84760  0.63070  Biso   1.000  H
  C22      1.0000 0.64930  0.74820  0.76970  Biso   1.000  C
  C23      1.0000 0.68910  0.69420  0.85460  Biso   1.000  C
  H12      1.0000 0.67490  0.65250  0.91420  Biso   1.000  H
  C24      1.0000 0.75000  0.70560  0.84600  Biso   1.000  C
  H13      1.0000 0.77630  0.67210  0.90270  Biso   1.000  H
  H14      1.0000 0.51730  0.81270  0.73780  Biso   1.000  H
  N5       1.0000 0.77650  0.42670  0.99360  Biso   1.000  N
  N6       1.0000 0.72710  0.26230  0.73980  Biso   1.000  N
  O9       1.0000 0.55290  0.42630  0.92670  Biso   1.000  O
  O10      1.0000 0.57030  0.44240  0.11670  Biso   1.000  O
  O11      1.0000 0.94730  0.32180  0.77100  Biso   1.000  O
  O12      1.0000 0.93780  0.16240  0.66590  Biso   1.000  O
  C25      1.0000 0.58670  0.43430  0.01720  Biso   1.000  C
  C26      1.0000 0.73820  0.37570  0.91210  Biso   1.000  C
  C27      1.0000 0.67640  0.37870  0.91700  Biso   1.000  C
  H15      1.0000 0.65100  0.34530  0.85870  Biso   1.000  H
  C28      1.0000 0.65330  0.43190  0.00930  Biso   1.000  C
  C29      1.0000 0.69280  0.48280  0.09410  Biso   1.000  C
  H16      1.0000 0.67890  0.51780  0.15810  Biso   1.000  H
  C30      1.0000 0.75340  0.47980  0.08040  Biso   1.000  C
  H17      1.0000 0.77940  0.51720  0.13490  Biso   1.000  H
  C31      1.0000 0.91630  0.24120  0.71890  Biso   1.000  C
  C32      1.0000 0.76570  0.31360  0.82130  Biso   1.000  C
  C33      1.0000 0.82740  0.30880  0.81490  Biso   1.000  C
  H18      1.0000 0.85280  0.34760  0.86930  Biso   1.000  H
  C34      1.0000 0.85070  0.24820  0.73030  Biso   1.000  C
  C35      1.0000 0.81090  0.19420  0.64540  Biso   1.000  C
  H19      1.0000 0.82510  0.15250  0.58580  Biso   1.000  H
  C36      1.0000 0.75000  0.20560  0.65400  Biso   1.000  C
  H20      1.0000 0.72370  0.17210  0.59730  Biso   1.000  H
  H21      1.0000 0.98270  0.31270  0.76220  Biso   1.000  H
  N7       1.0000 0.27650  0.92670  0.99360  Biso   1.000  N
  N8       1.0000 0.22710  0.76230  0.73980  Biso   1.000  N
  O13      1.0000 0.05290  0.92630  0.92670  Biso   1.000  O
  O14      1.0000 0.07030  0.94240  0.11670  Biso   1.000  O
  O15      1.0000 0.44730  0.82180  0.77100  Biso   1.000  O
  O16      1.0000 0.43780  0.66240  0.66590  Biso   1.000  O
  C37      1.0000 0.08670  0.93430  0.01720  Biso   1.000  C
  C38      1.0000 0.23820  0.87570  0.91210  Biso   1.000  C
  C39      1.0000 0.17640  0.87870  0.91700  Biso   1.000  C
  H22      1.0000 0.15100  0.84530  0.85870  Biso   1.000  H
  C40      1.0000 0.15330  0.93190  0.00930  Biso   1.000  C
  C41      1.0000 0.19280  0.98280  0.09410  Biso   1.000  C
  H23      1.0000 0.17890  0.01780  0.15810  Biso   1.000  H
  C42      1.0000 0.25340  0.97980  0.08040  Biso   1.000  C
  H24      1.0000 0.27940  0.01720  0.13490  Biso   1.000  H
  C43      1.0000 0.41630  0.74120  0.71890  Biso   1.000  C
  C44      1.0000 0.26570  0.81360  0.82130  Biso   1.000  C
  C45      1.0000 0.32740  0.80880  0.81490  Biso   1.000  C
  H25      1.0000 0.35280  0.84760  0.86930  Biso   1.000  H
  C46      1.0000 0.35070  0.74820  0.73030  Biso   1.000  C
  C47      1.0000 0.31090  0.69420  0.64540  Biso   1.000  C
  H26      1.0000 0.32510  0.65250  0.58580  Biso   1.000  H
  C48      1.0000 0.25000  0.70560  0.65400  Biso   1.000  C
  H27      1.0000 0.22370  0.67210  0.59730  Biso   1.000  H
  H28      1.0000 0.48270  0.81270  0.76220  Biso   1.000  H
  N9       1.0000 0.77650  0.57330  0.49360  Biso   1.000  N
  N10      1.0000 0.72710  0.73770  0.23980  Biso   1.000  N
  O17      1.0000 0.55290  0.57370  0.42670  Biso   1.000  O
  O18      1.0000 0.57030  0.55760  0.61670  Biso   1.000  O
  O19      1.0000 0.94730  0.67820  0.27100  Biso   1.000  O
  O20      1.0000 0.93780  0.83760  0.16590  Biso   1.000  O
  C49      1.0000 0.58670  0.56570  0.51720  Biso   1.000  C
  C50      1.0000 0.73820  0.62430  0.41210  Biso   1.000  C
  C51      1.0000 0.67640  0.62130  0.41700  Biso   1.000  C
  H29      1.0000 0.65100  0.65470  0.35870  Biso   1.000  H
  C52      1.0000 0.65330  0.56810  0.50930  Biso   1.000  C
  C53      1.0000 0.69280  0.51720  0.59410  Biso   1.000  C
  H30      1.0000 0.67890  0.48220  0.65810  Biso   1.000  H
  C54      1.0000 0.75340  0.52020  0.58040  Biso   1.000  C
  H31      1.0000 0.77940  0.48280  0.63490  Biso   1.000  H
  C55      1.0000 0.91630  0.75880  0.21890  Biso   1.000  C
  C56      1.0000 0.76570  0.68640  0.32130  Biso   1.000  C
  C57      1.0000 0.82740  0.69120  0.31490  Biso   1.000  C
  H32      1.0000 0.85280  0.65240  0.36930  Biso   1.000  H
  C58      1.0000 0.85070  0.75180  0.23030  Biso   1.000  C
  C59      1.0000 0.81090  0.80580  0.14540  Biso   1.000  C
  H33      1.0000 0.82510  0.84750  0.08580  Biso   1.000  H
  C60      1.0000 0.75000  0.79440  0.15400  Biso   1.000  C
  H34      1.0000 0.72370  0.82790  0.09730  Biso   1.000  H
  H35      1.0000 0.98270  0.68730  0.26220  Biso   1.000  H
  N11      1.0000 0.27650  0.07330  0.49360  Biso   1.000  N
  N12      1.0000 0.22710  0.23770  0.23980  Biso   1.000  N
  O21      1.0000 0.05290  0.07370  0.42670  Biso   1.000  O
  O22      1.0000 0.07030  0.05760  0.61670  Biso   1.000  O
  O23      1.0000 0.44730  0.17820  0.27100  Biso   1.000  O
  O24      1.0000 0.43780  0.33760  0.16590  Biso   1.000  O
  C61      1.0000 0.08670  0.06570  0.51720  Biso   1.000  C
  C62      1.0000 0.23820  0.12430  0.41210  Biso   1.000  C
  C63      1.0000 0.17640  0.12130  0.41700  Biso   1.000  C
  H36      1.0000 0.15100  0.15470  0.35870  Biso   1.000  H
  C64      1.0000 0.15330  0.06810  0.50930  Biso   1.000  C
  C65      1.0000 0.19280  0.01720  0.59410  Biso   1.000  C
  H37      1.0000 0.17890  0.98220  0.65810  Biso   1.000  H
  C66      1.0000 0.25340  0.02020  0.58040  Biso   1.000  C
  H38      1.0000 0.27940  0.98280  0.63490  Biso   1.000  H
  C67      1.0000 0.41630  0.25880  0.21890  Biso   1.000  C
  C68      1.0000 0.26570  0.18640  0.32130  Biso   1.000  C
  C69      1.0000 0.32740  0.19120  0.31490  Biso   1.000  C
  H39      1.0000 0.35280  0.15240  0.36930  Biso   1.000  H
  C70      1.0000 0.35070  0.25180  0.23030  Biso   1.000  C
  C71      1.0000 0.31090  0.30580  0.14540  Biso   1.000  C
  H40      1.0000 0.32510  0.34750  0.08580  Biso   1.000  H
  C72      1.0000 0.25000  0.29440  0.15400  Biso   1.000  C
  H41      1.0000 0.22370  0.32790  0.09730  Biso   1.000  H
  H42      1.0000 0.48270  0.18730  0.26220  Biso   1.000  H
  N13      1.0000 0.22350  0.57330  0.00640  Biso   1.000  N
  N14      1.0000 0.27290  0.73770  0.26020  Biso   1.000  N
  O25      1.0000 0.44710  0.57370  0.07330  Biso   1.000  O
  O26      1.0000 0.42970  0.55760  0.88330  Biso   1.000  O
  O27      1.0000 0.05270  0.67820  0.22900  Biso   1.000  O
  O28      1.0000 0.06220  0.83760  0.33410  Biso   1.000  O
  C73      1.0000 0.41330  0.56570  0.98280  Biso   1.000  C
  C74      1.0000 0.26180  0.62430  0.08790  Biso   1.000  C
  C75      1.0000 0.32360  0.62130  0.08300  Biso   1.000  C
  H43      1.0000 0.34900  0.65470  0.14130  Biso   1.000  H
  C76      1.0000 0.34670  0.56810  0.99070  Biso   1.000  C
  C77      1.0000 0.30720  0.51720  0.90590  Biso   1.000  C
  H44      1.0000 0.32110  0.48220  0.84190  Biso   1.000  H
  C78      1.0000 0.24660  0.52020  0.91960  Biso   1.000  C
  H45      1.0000 0.22060  0.48280  0.86510  Biso   1.000  H
  C79      1.0000 0.08370  0.75880  0.28110  Biso   1.000  C
  C80      1.0000 0.23430  0.68640  0.17870  Biso   1.000  C
  C81      1.0000 0.17260  0.69120  0.18510  Biso   1.000  C
  H46      1.0000 0.14720  0.65240  0.13070  Biso   1.000  H
  C82      1.0000 0.14930  0.75180  0.26970  Biso   1.000  C
  C83      1.0000 0.18910  0.80580  0.35460  Biso   1.000  C
  H47      1.0000 0.17490  0.84750  0.41420  Biso   1.000  H
  C84      1.0000 0.25000  0.79440  0.34600  Biso   1.000  C
  H48      1.0000 0.27630  0.82790  0.40270  Biso   1.000  H
  H49      1.0000 0.01730  0.68730  0.23780  Biso   1.000  H
  N15      1.0000 0.72350  0.07330  0.00640  Biso   1.000  N
  N16      1.0000 0.77290  0.23770  0.26020  Biso   1.000  N
  O29      1.0000 0.94710  0.07370  0.07330  Biso   1.000  O
  O30      1.0000 0.92970  0.05760  0.88330  Biso   1.000  O
  O31      1.0000 0.55270  0.17820  0.22900  Biso   1.000  O
  O32      1.0000 0.56220  0.33760  0.33410  Biso   1.000  O
  C85      1.0000 0.91330  0.06570  0.98280  Biso   1.000  C
  C86      1.0000 0.76180  0.12430  0.08790  Biso   1.000  C
  C87      1.0000 0.82360  0.12130  0.08300  Biso   1.000  C
  H50      1.0000 0.84900  0.15470  0.14130  Biso   1.000  H
  C88      1.0000 0.84670  0.06810  0.99070  Biso   1.000  C
  C89      1.0000 0.80720  0.01720  0.90590  Biso   1.000  C
  H51      1.0000 0.82110  0.98220  0.84190  Biso   1.000  H
  C90      1.0000 0.74660  0.02020  0.91960  Biso   1.000  C
  H52      1.0000 0.72060  0.98280  0.86510  Biso   1.000  H
  C91      1.0000 0.58370  0.25880  0.28110  Biso   1.000  C
  C92      1.0000 0.73430  0.18640  0.17870  Biso   1.000  C
  C93      1.0000 0.67260  0.19120  0.18510  Biso   1.000  C
  H53      1.0000 0.64720  0.15240  0.13070  Biso   1.000  H
  C94      1.0000 0.64930  0.25180  0.26970  Biso   1.000  C
  C95      1.0000 0.68910  0.30580  0.35460  Biso   1.000  C
  H54      1.0000 0.67490  0.34750  0.41420  Biso   1.000  H
  C96      1.0000 0.75000  0.29440  0.34600  Biso   1.000  C
  H55      1.0000 0.77630  0.32790  0.40270  Biso   1.000  H
  H56      1.0000 0.51730  0.18730  0.23780  Biso   1.000  H
  Ce1      1.0000 0.50000  0.49408  0.75000  Biso   1.000  Ce
  Ce2      1.0000 0.00000  0.99408  0.75000  Biso   1.000  Ce
  Ce3      1.0000 0.50000  0.50592  0.25000  Biso   1.000  Ce
  Ce4      1.0000 0.00000  0.00592  0.25000  Biso   1.000  Ce
