data_image0
_cell_length_a       27.3195
_cell_length_b       27.3195
_cell_length_c       27.3195
_cell_angle_alpha    90
_cell_angle_beta     90
_cell_angle_gamma    90

_symmetry_space_group_name_H-M    "P 1"
_symmetry_int_tables_number       1

loop_
  _symmetry_equiv_pos_as_xyz
  'x, y, z'

loop_
  _atom_site_label
  _atom_site_occupancy
  _atom_site_fract_x
  _atom_site_fract_y
  _atom_site_fract_z
  _atom_site_thermal_displace_type
  _atom_site_B_iso_or_equiv
  _atom_site_type_symbol
  Ce1      1.0000 0.40251  0.00000  0.50000  Biso   1.000  Ce
  Ce2      1.0000 0.90251  0.00000  0.00000  Biso   1.000  Ce
  Ce3      1.0000 0.90251  0.50000  0.50000  Biso   1.000  Ce
  Ce4      1.0000 0.59749  0.00000  0.50000  Biso   1.000  Ce
  Ce5      1.0000 0.09749  0.00000  0.00000  Biso   1.000  Ce
  Ce6      1.0000 0.09749  0.50000  0.50000  Biso   1.000  Ce
  Ce7      1.0000 0.59749  0.50000  0.00000  Biso   1.000  Ce
  Ce8      1.0000 0.40251  0.50000  0.00000  Biso   1.000  Ce
  Ce9      1.0000 0.50000  0.40251  0.00000  Biso   1.000  Ce
  Ce10     1.0000 0.50000  0.90251  0.50000  Biso   1.000  Ce
  Ce11     1.0000 0.50000  0.59749  0.00000  Biso   1.000  Ce
  Ce12     1.0000 0.50000  0.09749  0.50000  Biso   1.000  Ce
  Ce13     1.0000 0.00000  0.09749  0.00000  Biso   1.000  Ce
  Ce14     1.0000 0.00000  0.90251  0.00000  Biso   1.000  Ce
  Ce15     1.0000 0.00000  0.50000  0.40251  Biso   1.000  Ce
  Ce16     1.0000 0.00000  0.00000  0.90251  Biso   1.000  Ce
  Ce17     1.0000 0.50000  0.50000  0.90251  Biso   1.000  Ce
  Ce18     1.0000 0.00000  0.50000  0.59749  Biso   1.000  Ce
  Ce19     1.0000 0.00000  0.00000  0.09749  Biso   1.000  Ce
  Ce20     1.0000 0.50000  0.50000  0.09749  Biso   1.000  Ce
  Ce21     1.0000 0.50000  0.00000  0.59749  Biso   1.000  Ce
  Ce22     1.0000 0.50000  0.00000  0.40251  Biso   1.000  Ce
  Ce23     1.0000 0.00000  0.40251  0.50000  Biso   1.000  Ce
  Ce24     1.0000 0.00000  0.59749  0.50000  Biso   1.000  Ce
  O1       1.0000 0.36342  0.00000  0.42183  Biso   1.000  O
  C1       1.0000 0.29150  0.00000  0.35484  Biso   1.000  C
  C2       1.0000 0.25548  0.00000  0.31806  Biso   1.000  C
  N1       1.0000 0.31806  0.00000  0.25548  Biso   1.000  N
  O2       1.0000 0.36342  0.50000  0.92183  Biso   1.000  O
  C3       1.0000 0.29150  0.50000  0.85484  Biso   1.000  C
  C4       1.0000 0.25548  0.50000  0.81806  Biso   1.000  C
  N2       1.0000 0.31806  0.50000  0.75548  Biso   1.000  N
  O3       1.0000 0.86342  0.00000  0.92183  Biso   1.000  O
  C5       1.0000 0.79150  0.00000  0.85484  Biso   1.000  C
  C6       1.0000 0.75548  0.00000  0.81806  Biso   1.000  C
  N3       1.0000 0.81806  0.00000  0.75548  Biso   1.000  N
  O4       1.0000 0.86342  0.50000  0.42183  Biso   1.000  O
  C7       1.0000 0.79150  0.50000  0.35484  Biso   1.000  C
  C8       1.0000 0.75548  0.50000  0.31806  Biso   1.000  C
  N4       1.0000 0.81806  0.50000  0.25548  Biso   1.000  N
  O5       1.0000 0.63658  0.00000  0.42183  Biso   1.000  O
  C9       1.0000 0.70850  0.00000  0.35484  Biso   1.000  C
  C10      1.0000 0.74452  0.00000  0.31806  Biso   1.000  C
  N5       1.0000 0.68194  0.00000  0.25548  Biso   1.000  N
  O6       1.0000 0.63658  0.50000  0.92183  Biso   1.000  O
  C11      1.0000 0.70850  0.50000  0.85484  Biso   1.000  C
  C12      1.0000 0.74452  0.50000  0.81806  Biso   1.000  C
  N6       1.0000 0.68194  0.50000  0.75548  Biso   1.000  N
  O7       1.0000 0.13658  0.00000  0.92183  Biso   1.000  O
  C13      1.0000 0.20850  0.00000  0.85484  Biso   1.000  C
  C14      1.0000 0.24452  0.00000  0.81806  Biso   1.000  C
  N7       1.0000 0.18194  0.00000  0.75548  Biso   1.000  N
  O8       1.0000 0.13658  0.50000  0.42183  Biso   1.000  O
  C15      1.0000 0.20850  0.50000  0.35484  Biso   1.000  C
  C16      1.0000 0.24452  0.50000  0.31806  Biso   1.000  C
  N8       1.0000 0.18194  0.50000  0.25548  Biso   1.000  N
  O9       1.0000 0.63658  0.00000  0.57817  Biso   1.000  O
  C17      1.0000 0.70850  0.00000  0.64516  Biso   1.000  C
  C18      1.0000 0.74452  0.00000  0.68194  Biso   1.000  C
  N9       1.0000 0.68194  0.00000  0.74452  Biso   1.000  N
  O10      1.0000 0.63658  0.50000  0.07817  Biso   1.000  O
  C19      1.0000 0.70850  0.50000  0.14516  Biso   1.000  C
  C20      1.0000 0.74452  0.50000  0.18194  Biso   1.000  C
  N10      1.0000 0.68194  0.50000  0.24452  Biso   1.000  N
  O11      1.0000 0.13658  0.00000  0.07817  Biso   1.000  O
  C21      1.0000 0.20850  0.00000  0.14516  Biso   1.000  C
  C22      1.0000 0.24452  0.00000  0.18194  Biso   1.000  C
  N11      1.0000 0.18194  0.00000  0.24452  Biso   1.000  N
  O12      1.0000 0.13658  0.50000  0.57817  Biso   1.000  O
  C23      1.0000 0.20850  0.50000  0.64516  Biso   1.000  C
  C24      1.0000 0.24452  0.50000  0.68194  Biso   1.000  C
  N12      1.0000 0.18194  0.50000  0.74452  Biso   1.000  N
  O13      1.0000 0.36342  0.00000  0.57817  Biso   1.000  O
  C25      1.0000 0.29150  0.00000  0.64516  Biso   1.000  C
  C26      1.0000 0.25548  0.00000  0.68194  Biso   1.000  C
  N13      1.0000 0.31806  0.00000  0.74452  Biso   1.000  N
  O14      1.0000 0.36342  0.50000  0.07817  Biso   1.000  O
  C27      1.0000 0.29150  0.50000  0.14516  Biso   1.000  C
  C28      1.0000 0.25548  0.50000  0.18194  Biso   1.000  C
  N14      1.0000 0.31806  0.50000  0.24452  Biso   1.000  N
  O15      1.0000 0.86342  0.00000  0.07817  Biso   1.000  O
  C29      1.0000 0.79150  0.00000  0.14516  Biso   1.000  C
  C30      1.0000 0.75548  0.00000  0.18194  Biso   1.000  C
  N15      1.0000 0.81806  0.00000  0.24452  Biso   1.000  N
  O16      1.0000 0.86342  0.50000  0.57817  Biso   1.000  O
  C31      1.0000 0.79150  0.50000  0.64516  Biso   1.000  C
  C32      1.0000 0.75548  0.50000  0.68194  Biso   1.000  C
  N16      1.0000 0.81806  0.50000  0.74452  Biso   1.000  N
  O17      1.0000 0.42183  0.36342  0.00000  Biso   1.000  O
  C33      1.0000 0.35484  0.29150  0.00000  Biso   1.000  C
  C34      1.0000 0.31806  0.25548  0.00000  Biso   1.000  C
  N17      1.0000 0.25548  0.31806  0.00000  Biso   1.000  N
  O18      1.0000 0.42183  0.86342  0.50000  Biso   1.000  O
  C35      1.0000 0.35484  0.79150  0.50000  Biso   1.000  C
  C36      1.0000 0.31806  0.75548  0.50000  Biso   1.000  C
  N18      1.0000 0.25548  0.81806  0.50000  Biso   1.000  N
  O19      1.0000 0.92183  0.36342  0.50000  Biso   1.000  O
  C37      1.0000 0.85484  0.29150  0.50000  Biso   1.000  C
  C38      1.0000 0.81806  0.25548  0.50000  Biso   1.000  C
  N19      1.0000 0.75548  0.31806  0.50000  Biso   1.000  N
  O20      1.0000 0.92183  0.86342  0.00000  Biso   1.000  O
  C39      1.0000 0.85484  0.79150  0.00000  Biso   1.000  C
  C40      1.0000 0.81806  0.75548  0.00000  Biso   1.000  C
  N20      1.0000 0.75548  0.81806  0.00000  Biso   1.000  N
  O21      1.0000 0.42183  0.63658  0.00000  Biso   1.000  O
  C41      1.0000 0.35484  0.70850  0.00000  Biso   1.000  C
  C42      1.0000 0.31806  0.74452  0.00000  Biso   1.000  C
  N21      1.0000 0.25548  0.68194  0.00000  Biso   1.000  N
  O22      1.0000 0.42183  0.13658  0.50000  Biso   1.000  O
  C43      1.0000 0.35484  0.20850  0.50000  Biso   1.000  C
  C44      1.0000 0.31806  0.24452  0.50000  Biso   1.000  C
  N22      1.0000 0.25548  0.18194  0.50000  Biso   1.000  N
  O23      1.0000 0.92183  0.63658  0.50000  Biso   1.000  O
  C45      1.0000 0.85484  0.70850  0.50000  Biso   1.000  C
  C46      1.0000 0.81806  0.74452  0.50000  Biso   1.000  C
  N23      1.0000 0.75548  0.68194  0.50000  Biso   1.000  N
  O24      1.0000 0.92183  0.13658  0.00000  Biso   1.000  O
  C47      1.0000 0.85484  0.20850  0.00000  Biso   1.000  C
  C48      1.0000 0.81806  0.24452  0.00000  Biso   1.000  C
  N24      1.0000 0.75548  0.18194  0.00000  Biso   1.000  N
  O25      1.0000 0.57817  0.63658  0.00000  Biso   1.000  O
  C49      1.0000 0.64516  0.70850  0.00000  Biso   1.000  C
  C50      1.0000 0.68194  0.74452  0.00000  Biso   1.000  C
  N25      1.0000 0.74452  0.68194  0.00000  Biso   1.000  N
  O26      1.0000 0.57817  0.13658  0.50000  Biso   1.000  O
  C51      1.0000 0.64516  0.20850  0.50000  Biso   1.000  C
  C52      1.0000 0.68194  0.24452  0.50000  Biso   1.000  C
  N26      1.0000 0.74452  0.18194  0.50000  Biso   1.000  N
  O27      1.0000 0.07817  0.63658  0.50000  Biso   1.000  O
  C53      1.0000 0.14516  0.70850  0.50000  Biso   1.000  C
  C54      1.0000 0.18194  0.74452  0.50000  Biso   1.000  C
  N27      1.0000 0.24452  0.68194  0.50000  Biso   1.000  N
  O28      1.0000 0.07817  0.13658  0.00000  Biso   1.000  O
  C55      1.0000 0.14516  0.20850  0.00000  Biso   1.000  C
  C56      1.0000 0.18194  0.24452  0.00000  Biso   1.000  C
  N28      1.0000 0.24452  0.18194  0.00000  Biso   1.000  N
  O29      1.0000 0.57817  0.36342  0.00000  Biso   1.000  O
  C57      1.0000 0.64516  0.29150  0.00000  Biso   1.000  C
  C58      1.0000 0.68194  0.25548  0.00000  Biso   1.000  C
  N29      1.0000 0.74452  0.31806  0.00000  Biso   1.000  N
  O30      1.0000 0.57817  0.86342  0.50000  Biso   1.000  O
  C59      1.0000 0.64516  0.79150  0.50000  Biso   1.000  C
  C60      1.0000 0.68194  0.75548  0.50000  Biso   1.000  C
  N30      1.0000 0.74452  0.81806  0.50000  Biso   1.000  N
  O31      1.0000 0.07817  0.36342  0.50000  Biso   1.000  O
  C61      1.0000 0.14516  0.29150  0.50000  Biso   1.000  C
  C62      1.0000 0.18194  0.25548  0.50000  Biso   1.000  C
  N31      1.0000 0.24452  0.31806  0.50000  Biso   1.000  N
  O32      1.0000 0.07817  0.86342  0.00000  Biso   1.000  O
  C63      1.0000 0.14516  0.79150  0.00000  Biso   1.000  C
  C64      1.0000 0.18194  0.75548  0.00000  Biso   1.000  C
  N32      1.0000 0.24452  0.81806  0.00000  Biso   1.000  N
  O33      1.0000 0.00000  0.42183  0.36342  Biso   1.000  O
  C65      1.0000 0.00000  0.35484  0.29150  Biso   1.000  C
  C66      1.0000 0.00000  0.31806  0.25548  Biso   1.000  C
  N33      1.0000 0.00000  0.25548  0.31806  Biso   1.000  N
  O34      1.0000 0.00000  0.92183  0.86342  Biso   1.000  O
  C67      1.0000 0.00000  0.85484  0.79150  Biso   1.000  C
  C68      1.0000 0.00000  0.81806  0.75548  Biso   1.000  C
  N34      1.0000 0.00000  0.75548  0.81806  Biso   1.000  N
  O35      1.0000 0.50000  0.42183  0.86342  Biso   1.000  O
  C69      1.0000 0.50000  0.35484  0.79150  Biso   1.000  C
  C70      1.0000 0.50000  0.31806  0.75548  Biso   1.000  C
  N35      1.0000 0.50000  0.25548  0.81806  Biso   1.000  N
  O36      1.0000 0.50000  0.92183  0.36342  Biso   1.000  O
  C71      1.0000 0.50000  0.85484  0.29150  Biso   1.000  C
  C72      1.0000 0.50000  0.81806  0.25548  Biso   1.000  C
  N36      1.0000 0.50000  0.75548  0.31806  Biso   1.000  N
  O37      1.0000 0.00000  0.42183  0.63658  Biso   1.000  O
  C73      1.0000 0.00000  0.35484  0.70850  Biso   1.000  C
  C74      1.0000 0.00000  0.31806  0.74452  Biso   1.000  C
  N37      1.0000 0.00000  0.25548  0.68194  Biso   1.000  N
  O38      1.0000 0.00000  0.92183  0.13658  Biso   1.000  O
  C75      1.0000 0.00000  0.85484  0.20850  Biso   1.000  C
  C76      1.0000 0.00000  0.81806  0.24452  Biso   1.000  C
  N38      1.0000 0.00000  0.75548  0.18194  Biso   1.000  N
  O39      1.0000 0.50000  0.42183  0.13658  Biso   1.000  O
  C77      1.0000 0.50000  0.35484  0.20850  Biso   1.000  C
  C78      1.0000 0.50000  0.31806  0.24452  Biso   1.000  C
  N39      1.0000 0.50000  0.25548  0.18194  Biso   1.000  N
  O40      1.0000 0.50000  0.92183  0.63658  Biso   1.000  O
  C79      1.0000 0.50000  0.85484  0.70850  Biso   1.000  C
  C80      1.0000 0.50000  0.81806  0.74452  Biso   1.000  C
  N40      1.0000 0.50000  0.75548  0.68194  Biso   1.000  N
  O41      1.0000 0.00000  0.57817  0.63658  Biso   1.000  O
  C81      1.0000 0.00000  0.64516  0.70850  Biso   1.000  C
  C82      1.0000 0.00000  0.68194  0.74452  Biso   1.000  C
  N41      1.0000 0.00000  0.74452  0.68194  Biso   1.000  N
  O42      1.0000 0.00000  0.07817  0.13658  Biso   1.000  O
  C83      1.0000 0.00000  0.14516  0.20850  Biso   1.000  C
  C84      1.0000 0.00000  0.18194  0.24452  Biso   1.000  C
  N42      1.0000 0.00000  0.24452  0.18194  Biso   1.000  N
  O43      1.0000 0.50000  0.57817  0.13658  Biso   1.000  O
  C85      1.0000 0.50000  0.64516  0.20850  Biso   1.000  C
  C86      1.0000 0.50000  0.68194  0.24452  Biso   1.000  C
  N43      1.0000 0.50000  0.74452  0.18194  Biso   1.000  N
  O44      1.0000 0.50000  0.07817  0.63658  Biso   1.000  O
  C87      1.0000 0.50000  0.14516  0.70850  Biso   1.000  C
  C88      1.0000 0.50000  0.18194  0.74452  Biso   1.000  C
  N44      1.0000 0.50000  0.24452  0.68194  Biso   1.000  N
  O45      1.0000 0.00000  0.57817  0.36342  Biso   1.000  O
  C89      1.0000 0.00000  0.64516  0.29150  Biso   1.000  C
  C90      1.0000 0.00000  0.68194  0.25548  Biso   1.000  C
  N45      1.0000 0.00000  0.74452  0.31806  Biso   1.000  N
  O46      1.0000 0.00000  0.07817  0.86342  Biso   1.000  O
  C91      1.0000 0.00000  0.14516  0.79150  Biso   1.000  C
  C92      1.0000 0.00000  0.18194  0.75548  Biso   1.000  C
  N46      1.0000 0.00000  0.24452  0.81806  Biso   1.000  N
  O47      1.0000 0.50000  0.57817  0.86342  Biso   1.000  O
  C93      1.0000 0.50000  0.64516  0.79150  Biso   1.000  C
  C94      1.0000 0.50000  0.68194  0.75548  Biso   1.000  C
  N47      1.0000 0.50000  0.74452  0.81806  Biso   1.000  N
  O48      1.0000 0.50000  0.07817  0.36342  Biso   1.000  O
  C95      1.0000 0.50000  0.14516  0.29150  Biso   1.000  C
  C96      1.0000 0.50000  0.18194  0.25548  Biso   1.000  C
  N48      1.0000 0.50000  0.24452  0.31806  Biso   1.000  N
  O49      1.0000 0.00000  0.36342  0.57817  Biso   1.000  O
  C97      1.0000 0.00000  0.29150  0.64516  Biso   1.000  C
  O50      1.0000 0.00000  0.86342  0.07817  Biso   1.000  O
  C98      1.0000 0.00000  0.79150  0.14516  Biso   1.000  C
  O51      1.0000 0.50000  0.36342  0.07817  Biso   1.000  O
  C99      1.0000 0.50000  0.29150  0.14516  Biso   1.000  C
  O52      1.0000 0.50000  0.86342  0.57817  Biso   1.000  O
  C100     1.0000 0.50000  0.79150  0.64516  Biso   1.000  C
  O53      1.0000 0.00000  0.63658  0.57817  Biso   1.000  O
  C101     1.0000 0.00000  0.70850  0.64516  Biso   1.000  C
  O54      1.0000 0.00000  0.13658  0.07817  Biso   1.000  O
  C102     1.0000 0.00000  0.20850  0.14516  Biso   1.000  C
  O55      1.0000 0.50000  0.63658  0.07817  Biso   1.000  O
  C103     1.0000 0.50000  0.70850  0.14516  Biso   1.000  C
  O56      1.0000 0.50000  0.13658  0.57817  Biso   1.000  O
  C104     1.0000 0.50000  0.20850  0.64516  Biso   1.000  C
  O57      1.0000 0.00000  0.63658  0.42183  Biso   1.000  O
  C105     1.0000 0.00000  0.70850  0.35484  Biso   1.000  C
  O58      1.0000 0.00000  0.13658  0.92183  Biso   1.000  O
  C106     1.0000 0.00000  0.20850  0.85484  Biso   1.000  C
  O59      1.0000 0.50000  0.63658  0.92183  Biso   1.000  O
  C107     1.0000 0.50000  0.70850  0.85484  Biso   1.000  C
  O60      1.0000 0.50000  0.13658  0.42183  Biso   1.000  O
  C108     1.0000 0.50000  0.20850  0.35484  Biso   1.000  C
  O61      1.0000 0.00000  0.36342  0.42183  Biso   1.000  O
  C109     1.0000 0.00000  0.29150  0.35484  Biso   1.000  C
  O62      1.0000 0.00000  0.86342  0.92183  Biso   1.000  O
  C110     1.0000 0.00000  0.79150  0.85484  Biso   1.000  C
  O63      1.0000 0.50000  0.36342  0.92183  Biso   1.000  O
  C111     1.0000 0.50000  0.29150  0.85484  Biso   1.000  C
  O64      1.0000 0.50000  0.86342  0.42183  Biso   1.000  O
  C112     1.0000 0.50000  0.79150  0.35484  Biso   1.000  C
  O65      1.0000 0.36342  0.42183  0.00000  Biso   1.000  O
  C113     1.0000 0.29150  0.35484  0.00000  Biso   1.000  C
  O66      1.0000 0.36342  0.92183  0.50000  Biso   1.000  O
  C114     1.0000 0.29150  0.85484  0.50000  Biso   1.000  C
  O67      1.0000 0.86342  0.42183  0.50000  Biso   1.000  O
  C115     1.0000 0.79150  0.35484  0.50000  Biso   1.000  C
  O68      1.0000 0.86342  0.92183  0.00000  Biso   1.000  O
  C116     1.0000 0.79150  0.85484  0.00000  Biso   1.000  C
  O69      1.0000 0.63658  0.42183  0.00000  Biso   1.000  O
  C117     1.0000 0.70850  0.35484  0.00000  Biso   1.000  C
  O70      1.0000 0.63658  0.92183  0.50000  Biso   1.000  O
  C118     1.0000 0.70850  0.85484  0.50000  Biso   1.000  C
  O71      1.0000 0.13658  0.42183  0.50000  Biso   1.000  O
  C119     1.0000 0.20850  0.35484  0.50000  Biso   1.000  C
  O72      1.0000 0.13658  0.92183  0.00000  Biso   1.000  O
  C120     1.0000 0.20850  0.85484  0.00000  Biso   1.000  C
  O73      1.0000 0.63658  0.57817  0.00000  Biso   1.000  O
  C121     1.0000 0.70850  0.64516  0.00000  Biso   1.000  C
  O74      1.0000 0.63658  0.07817  0.50000  Biso   1.000  O
  C122     1.0000 0.70850  0.14516  0.50000  Biso   1.000  C
  O75      1.0000 0.13658  0.57817  0.50000  Biso   1.000  O
  C123     1.0000 0.20850  0.64516  0.50000  Biso   1.000  C
  O76      1.0000 0.13658  0.07817  0.00000  Biso   1.000  O
  C124     1.0000 0.20850  0.14516  0.00000  Biso   1.000  C
  O77      1.0000 0.36342  0.57817  0.00000  Biso   1.000  O
  C125     1.0000 0.29150  0.64516  0.00000  Biso   1.000  C
  O78      1.0000 0.36342  0.07817  0.50000  Biso   1.000  O
  C126     1.0000 0.29150  0.14516  0.50000  Biso   1.000  C
  O79      1.0000 0.86342  0.57817  0.50000  Biso   1.000  O
  C127     1.0000 0.79150  0.64516  0.50000  Biso   1.000  C
  O80      1.0000 0.86342  0.07817  0.00000  Biso   1.000  O
  C128     1.0000 0.79150  0.14516  0.00000  Biso   1.000  C
  O81      1.0000 0.42183  0.00000  0.63658  Biso   1.000  O
  C129     1.0000 0.35484  0.00000  0.70850  Biso   1.000  C
  O82      1.0000 0.42183  0.50000  0.13658  Biso   1.000  O
  C130     1.0000 0.35484  0.50000  0.20850  Biso   1.000  C
  O83      1.0000 0.92183  0.00000  0.13658  Biso   1.000  O
  C131     1.0000 0.85484  0.00000  0.20850  Biso   1.000  C
  O84      1.0000 0.92183  0.50000  0.63658  Biso   1.000  O
  C132     1.0000 0.85484  0.50000  0.70850  Biso   1.000  C
  O85      1.0000 0.42183  0.00000  0.36342  Biso   1.000  O
  C133     1.0000 0.35484  0.00000  0.29150  Biso   1.000  C
  O86      1.0000 0.42183  0.50000  0.86342  Biso   1.000  O
  C134     1.0000 0.35484  0.50000  0.79150  Biso   1.000  C
  O87      1.0000 0.92183  0.00000  0.86342  Biso   1.000  O
  C135     1.0000 0.85484  0.00000  0.79150  Biso   1.000  C
  O88      1.0000 0.92183  0.50000  0.36342  Biso   1.000  O
  C136     1.0000 0.85484  0.50000  0.29150  Biso   1.000  C
  O89      1.0000 0.57817  0.00000  0.36342  Biso   1.000  O
  C137     1.0000 0.64516  0.00000  0.29150  Biso   1.000  C
  O90      1.0000 0.57817  0.50000  0.86342  Biso   1.000  O
  C138     1.0000 0.64516  0.50000  0.79150  Biso   1.000  C
  O91      1.0000 0.07817  0.00000  0.86342  Biso   1.000  O
  C139     1.0000 0.14516  0.00000  0.79150  Biso   1.000  C
  O92      1.0000 0.07817  0.50000  0.36342  Biso   1.000  O
  C140     1.0000 0.14516  0.50000  0.29150  Biso   1.000  C
  O93      1.0000 0.57817  0.00000  0.63658  Biso   1.000  O
  C141     1.0000 0.64516  0.00000  0.70850  Biso   1.000  C
  O94      1.0000 0.57817  0.50000  0.13658  Biso   1.000  O
  C142     1.0000 0.64516  0.50000  0.20850  Biso   1.000  C
  O95      1.0000 0.07817  0.00000  0.13658  Biso   1.000  O
  C143     1.0000 0.14516  0.00000  0.20850  Biso   1.000  C
  O96      1.0000 0.07817  0.50000  0.63658  Biso   1.000  O
  C144     1.0000 0.14516  0.50000  0.70850  Biso   1.000  C
  O97      1.0000 0.45088  0.04912  0.54912  Biso   1.000  O
  O98      1.0000 0.54912  0.95088  0.54912  Biso   1.000  O
  O99      1.0000 0.54912  0.04912  0.45088  Biso   1.000  O
  O100     1.0000 0.45088  0.95088  0.45088  Biso   1.000  O
  O101     1.0000 0.54912  0.45088  0.04912  Biso   1.000  O
  O102     1.0000 0.54912  0.54912  0.95088  Biso   1.000  O
  O103     1.0000 0.45088  0.54912  0.04912  Biso   1.000  O
  O104     1.0000 0.45088  0.45088  0.95088  Biso   1.000  O
  O105     1.0000 0.04912  0.54912  0.45088  Biso   1.000  O
  O106     1.0000 0.04912  0.04912  0.95088  Biso   1.000  O
  O107     1.0000 0.95088  0.54912  0.54912  Biso   1.000  O
  O108     1.0000 0.95088  0.04912  0.04912  Biso   1.000  O
  O109     1.0000 0.04912  0.45088  0.54912  Biso   1.000  O
  O110     1.0000 0.04912  0.95088  0.04912  Biso   1.000  O
  O111     1.0000 0.95088  0.45088  0.45088  Biso   1.000  O
  O112     1.0000 0.95088  0.95088  0.95088  Biso   1.000  O
  O113     1.0000 0.04912  0.45088  0.45088  Biso   1.000  O
  O114     1.0000 0.04912  0.95088  0.95088  Biso   1.000  O
  O115     1.0000 0.95088  0.54912  0.45088  Biso   1.000  O
  O116     1.0000 0.95088  0.04912  0.95088  Biso   1.000  O
  O117     1.0000 0.04912  0.54912  0.54912  Biso   1.000  O
  O118     1.0000 0.04912  0.04912  0.04912  Biso   1.000  O
  O119     1.0000 0.95088  0.45088  0.54912  Biso   1.000  O
  O120     1.0000 0.95088  0.95088  0.04912  Biso   1.000  O
  O121     1.0000 0.45088  0.54912  0.95088  Biso   1.000  O
  O122     1.0000 0.54912  0.54912  0.04912  Biso   1.000  O
  O123     1.0000 0.54912  0.45088  0.95088  Biso   1.000  O
  O124     1.0000 0.45088  0.45088  0.04912  Biso   1.000  O
  O125     1.0000 0.54912  0.04912  0.54912  Biso   1.000  O
  O126     1.0000 0.54912  0.95088  0.45088  Biso   1.000  O
  O127     1.0000 0.45088  0.04912  0.45088  Biso   1.000  O
  O128     1.0000 0.45088  0.95088  0.54912  Biso   1.000  O
  C145     1.0000 0.37854  0.00000  0.37854  Biso   1.000  C
  C146     1.0000 0.33963  0.00000  0.33963  Biso   1.000  C
  C147     1.0000 0.26993  0.00000  0.26993  Biso   1.000  C
  C148     1.0000 0.37854  0.50000  0.87854  Biso   1.000  C
  C149     1.0000 0.33963  0.50000  0.83963  Biso   1.000  C
  C150     1.0000 0.26993  0.50000  0.76993  Biso   1.000  C
  C151     1.0000 0.87854  0.00000  0.87854  Biso   1.000  C
  C152     1.0000 0.83963  0.00000  0.83963  Biso   1.000  C
  C153     1.0000 0.76993  0.00000  0.76993  Biso   1.000  C
  C154     1.0000 0.87854  0.50000  0.37854  Biso   1.000  C
  C155     1.0000 0.83963  0.50000  0.33963  Biso   1.000  C
  C156     1.0000 0.76993  0.50000  0.26993  Biso   1.000  C
  C157     1.0000 0.62146  0.00000  0.37854  Biso   1.000  C
  C158     1.0000 0.66037  0.00000  0.33963  Biso   1.000  C
  C159     1.0000 0.73007  0.00000  0.26993  Biso   1.000  C
  C160     1.0000 0.62146  0.50000  0.87854  Biso   1.000  C
  C161     1.0000 0.66037  0.50000  0.83963  Biso   1.000  C
  C162     1.0000 0.73007  0.50000  0.76993  Biso   1.000  C
  C163     1.0000 0.12146  0.00000  0.87854  Biso   1.000  C
  C164     1.0000 0.16037  0.00000  0.83963  Biso   1.000  C
  C165     1.0000 0.23007  0.00000  0.76993  Biso   1.000  C
  C166     1.0000 0.12146  0.50000  0.37854  Biso   1.000  C
  C167     1.0000 0.16037  0.50000  0.33963  Biso   1.000  C
  C168     1.0000 0.23007  0.50000  0.26993  Biso   1.000  C
  C169     1.0000 0.62146  0.00000  0.62146  Biso   1.000  C
  C170     1.0000 0.66037  0.00000  0.66037  Biso   1.000  C
  C171     1.0000 0.73007  0.00000  0.73007  Biso   1.000  C
  C172     1.0000 0.62146  0.50000  0.12146  Biso   1.000  C
  C173     1.0000 0.66037  0.50000  0.16037  Biso   1.000  C
  C174     1.0000 0.73007  0.50000  0.23007  Biso   1.000  C
  C175     1.0000 0.12146  0.00000  0.12146  Biso   1.000  C
  C176     1.0000 0.16037  0.00000  0.16037  Biso   1.000  C
  C177     1.0000 0.23007  0.00000  0.23007  Biso   1.000  C
  C178     1.0000 0.12146  0.50000  0.62146  Biso   1.000  C
  C179     1.0000 0.16037  0.50000  0.66037  Biso   1.000  C
  C180     1.0000 0.23007  0.50000  0.73007  Biso   1.000  C
  C181     1.0000 0.37854  0.00000  0.62146  Biso   1.000  C
  C182     1.0000 0.33963  0.00000  0.66037  Biso   1.000  C
  C183     1.0000 0.26993  0.00000  0.73007  Biso   1.000  C
  C184     1.0000 0.37854  0.50000  0.12146  Biso   1.000  C
  C185     1.0000 0.33963  0.50000  0.16037  Biso   1.000  C
  C186     1.0000 0.26993  0.50000  0.23007  Biso   1.000  C
  C187     1.0000 0.87854  0.00000  0.12146  Biso   1.000  C
  C188     1.0000 0.83963  0.00000  0.16037  Biso   1.000  C
  C189     1.0000 0.76993  0.00000  0.23007  Biso   1.000  C
  C190     1.0000 0.87854  0.50000  0.62146  Biso   1.000  C
  C191     1.0000 0.83963  0.50000  0.66037  Biso   1.000  C
  C192     1.0000 0.76993  0.50000  0.73007  Biso   1.000  C
  C193     1.0000 0.37854  0.37854  0.00000  Biso   1.000  C
  C194     1.0000 0.33963  0.33963  0.00000  Biso   1.000  C
  C195     1.0000 0.26993  0.26993  0.00000  Biso   1.000  C
  C196     1.0000 0.37854  0.87854  0.50000  Biso   1.000  C
  C197     1.0000 0.33963  0.83963  0.50000  Biso   1.000  C
  C198     1.0000 0.26993  0.76993  0.50000  Biso   1.000  C
  C199     1.0000 0.87854  0.37854  0.50000  Biso   1.000  C
  C200     1.0000 0.83963  0.33963  0.50000  Biso   1.000  C
  C201     1.0000 0.76993  0.26993  0.50000  Biso   1.000  C
  C202     1.0000 0.87854  0.87854  0.00000  Biso   1.000  C
  C203     1.0000 0.83963  0.83963  0.00000  Biso   1.000  C
  C204     1.0000 0.76993  0.76993  0.00000  Biso   1.000  C
  C205     1.0000 0.37854  0.62146  0.00000  Biso   1.000  C
  C206     1.0000 0.33963  0.66037  0.00000  Biso   1.000  C
  C207     1.0000 0.26993  0.73007  0.00000  Biso   1.000  C
  C208     1.0000 0.37854  0.12146  0.50000  Biso   1.000  C
  C209     1.0000 0.33963  0.16037  0.50000  Biso   1.000  C
  C210     1.0000 0.26993  0.23007  0.50000  Biso   1.000  C
  C211     1.0000 0.87854  0.62146  0.50000  Biso   1.000  C
  C212     1.0000 0.83963  0.66037  0.50000  Biso   1.000  C
  C213     1.0000 0.76993  0.73007  0.50000  Biso   1.000  C
  C214     1.0000 0.87854  0.12146  0.00000  Biso   1.000  C
  C215     1.0000 0.83963  0.16037  0.00000  Biso   1.000  C
  C216     1.0000 0.76993  0.23007  0.00000  Biso   1.000  C
  C217     1.0000 0.62146  0.62146  0.00000  Biso   1.000  C
  C218     1.0000 0.66037  0.66037  0.00000  Biso   1.000  C
  C219     1.0000 0.73007  0.73007  0.00000  Biso   1.000  C
  C220     1.0000 0.62146  0.12146  0.50000  Biso   1.000  C
  C221     1.0000 0.66037  0.16037  0.50000  Biso   1.000  C
  C222     1.0000 0.73007  0.23007  0.50000  Biso   1.000  C
  C223     1.0000 0.12146  0.62146  0.50000  Biso   1.000  C
  C224     1.0000 0.16037  0.66037  0.50000  Biso   1.000  C
  C225     1.0000 0.23007  0.73007  0.50000  Biso   1.000  C
  C226     1.0000 0.12146  0.12146  0.00000  Biso   1.000  C
  C227     1.0000 0.16037  0.16037  0.00000  Biso   1.000  C
  C228     1.0000 0.23007  0.23007  0.00000  Biso   1.000  C
  C229     1.0000 0.62146  0.37854  0.00000  Biso   1.000  C
  C230     1.0000 0.66037  0.33963  0.00000  Biso   1.000  C
  C231     1.0000 0.73007  0.26993  0.00000  Biso   1.000  C
  C232     1.0000 0.62146  0.87854  0.50000  Biso   1.000  C
  C233     1.0000 0.66037  0.83963  0.50000  Biso   1.000  C
  C234     1.0000 0.73007  0.76993  0.50000  Biso   1.000  C
  C235     1.0000 0.12146  0.37854  0.50000  Biso   1.000  C
  C236     1.0000 0.16037  0.33963  0.50000  Biso   1.000  C
  C237     1.0000 0.23007  0.26993  0.50000  Biso   1.000  C
  C238     1.0000 0.12146  0.87854  0.00000  Biso   1.000  C
  C239     1.0000 0.16037  0.83963  0.00000  Biso   1.000  C
  C240     1.0000 0.23007  0.76993  0.00000  Biso   1.000  C
  C241     1.0000 0.00000  0.37854  0.37854  Biso   1.000  C
  C242     1.0000 0.00000  0.33963  0.33963  Biso   1.000  C
  C243     1.0000 0.00000  0.26993  0.26993  Biso   1.000  C
  C244     1.0000 0.00000  0.87854  0.87854  Biso   1.000  C
  C245     1.0000 0.00000  0.83963  0.83963  Biso   1.000  C
  C246     1.0000 0.00000  0.76993  0.76993  Biso   1.000  C
  C247     1.0000 0.50000  0.37854  0.87854  Biso   1.000  C
  C248     1.0000 0.50000  0.33963  0.83963  Biso   1.000  C
  C249     1.0000 0.50000  0.26993  0.76993  Biso   1.000  C
  C250     1.0000 0.50000  0.87854  0.37854  Biso   1.000  C
  C251     1.0000 0.50000  0.83963  0.33963  Biso   1.000  C
  C252     1.0000 0.50000  0.76993  0.26993  Biso   1.000  C
  C253     1.0000 0.00000  0.37854  0.62146  Biso   1.000  C
  C254     1.0000 0.00000  0.33963  0.66037  Biso   1.000  C
  C255     1.0000 0.00000  0.26993  0.73007  Biso   1.000  C
  C256     1.0000 0.00000  0.87854  0.12146  Biso   1.000  C
  C257     1.0000 0.00000  0.83963  0.16037  Biso   1.000  C
  C258     1.0000 0.00000  0.76993  0.23007  Biso   1.000  C
  C259     1.0000 0.50000  0.37854  0.12146  Biso   1.000  C
  C260     1.0000 0.50000  0.33963  0.16037  Biso   1.000  C
  C261     1.0000 0.50000  0.26993  0.23007  Biso   1.000  C
  C262     1.0000 0.50000  0.87854  0.62146  Biso   1.000  C
  C263     1.0000 0.50000  0.83963  0.66037  Biso   1.000  C
  C264     1.0000 0.50000  0.76993  0.73007  Biso   1.000  C
  C265     1.0000 0.00000  0.62146  0.62146  Biso   1.000  C
  C266     1.0000 0.00000  0.66037  0.66037  Biso   1.000  C
  C267     1.0000 0.00000  0.73007  0.73007  Biso   1.000  C
  C268     1.0000 0.00000  0.12146  0.12146  Biso   1.000  C
  C269     1.0000 0.00000  0.16037  0.16037  Biso   1.000  C
  C270     1.0000 0.00000  0.23007  0.23007  Biso   1.000  C
  C271     1.0000 0.50000  0.62146  0.12146  Biso   1.000  C
  C272     1.0000 0.50000  0.66037  0.16037  Biso   1.000  C
  C273     1.0000 0.50000  0.73007  0.23007  Biso   1.000  C
  C274     1.0000 0.50000  0.12146  0.62146  Biso   1.000  C
  C275     1.0000 0.50000  0.16037  0.66037  Biso   1.000  C
  C276     1.0000 0.50000  0.23007  0.73007  Biso   1.000  C
  C277     1.0000 0.00000  0.62146  0.37854  Biso   1.000  C
  C278     1.0000 0.00000  0.66037  0.33963  Biso   1.000  C
  C279     1.0000 0.00000  0.73007  0.26993  Biso   1.000  C
  C280     1.0000 0.00000  0.12146  0.87854  Biso   1.000  C
  C281     1.0000 0.00000  0.16037  0.83963  Biso   1.000  C
  C282     1.0000 0.00000  0.23007  0.76993  Biso   1.000  C
  C283     1.0000 0.50000  0.62146  0.87854  Biso   1.000  C
  C284     1.0000 0.50000  0.66037  0.83963  Biso   1.000  C
  C285     1.0000 0.50000  0.73007  0.76993  Biso   1.000  C
  C286     1.0000 0.50000  0.12146  0.37854  Biso   1.000  C
  C287     1.0000 0.50000  0.16037  0.33963  Biso   1.000  C
  C288     1.0000 0.50000  0.23007  0.26993  Biso   1.000  C
