data_image0
_cell_length_a       15.665
_cell_length_b       14.616
_cell_length_c       12.307
_cell_angle_alpha    90
_cell_angle_beta     108.31
_cell_angle_gamma    90

_symmetry_space_group_name_H-M    "P 1"
_symmetry_int_tables_number       1

loop_
  _symmetry_equiv_pos_as_xyz
  'x, y, z'

loop_
  _atom_site_label
  _atom_site_occupancy
  _atom_site_fract_x
  _atom_site_fract_y
  _atom_site_fract_z
  _atom_site_thermal_displace_type
  _atom_site_B_iso_or_equiv
  _atom_site_type_symbol
  Mn1      1.0000 0.79807  0.91930  0.32488  Biso   1.000  Mn
  N1       1.0000 0.85046  0.84599  0.20290  Biso   1.000  N
  N2       1.0000 0.70229  0.80048  0.32100  Biso   1.000  N
  N3       1.0000 0.39102  0.62768  0.99110  Biso   1.000  N
  N4       1.0000 0.37580  0.54119  0.30740  Biso   1.000  N
  N5       1.0000 0.48714  0.86727  0.43110  Biso   1.000  N
  N6       1.0000 0.90830  0.82380  0.06370  Biso   1.000  N
  H1       1.0000 0.95100  0.82490  0.03370  Biso   1.000  H
  C1       1.0000 0.90490  0.87140  0.15150  Biso   1.000  C
  H2       1.0000 0.94120  0.92260  0.17570  Biso   1.000  H
  C2       1.0000 0.83350  0.77270  0.02810  Biso   1.000  C
  H3       1.0000 0.81250  0.73810  0.96150  Biso   1.000  H
  C3       1.0000 0.79620  0.78360  0.11290  Biso   1.000  C
  H4       1.0000 0.74320  0.75560  0.11430  Biso   1.000  H
  H5       1.0000 0.42190  0.33220  0.00200  Biso   1.000  H
  C4       1.0000 0.37930  0.38360  0.12350  Biso   1.000  C
  H6       1.0000 0.37920  0.44630  0.11110  Biso   1.000  H
  C5       1.0000 0.41160  0.23720  0.13010  Biso   1.000  C
  H7       1.0000 0.43260  0.18050  0.11530  Biso   1.000  H
  C6       1.0000 0.37830  0.25770  0.21500  Biso   1.000  C
  H8       1.0000 0.37490  0.21800  0.27260  Biso   1.000  H
  C7       1.0000 0.63337  0.76524  0.29760  Biso   1.000  C
  C8       1.0000 0.42854  0.65293  0.08100  Biso   1.000  C
  C9       1.0000 0.41871  0.59882  0.28810  Biso   1.000  C
  C10      1.0000 0.49220  0.81134  0.36790  Biso   1.000  C
  Mn2      1.0000 0.29807  0.41930  0.32488  Biso   1.000  Mn
  N7       1.0000 0.35046  0.34599  0.20290  Biso   1.000  N
  N8       1.0000 0.20229  0.30048  0.32100  Biso   1.000  N
  N9       1.0000 0.89102  0.12768  0.99110  Biso   1.000  N
  N10      1.0000 0.87580  0.04119  0.30740  Biso   1.000  N
  N11      1.0000 0.98714  0.36727  0.43110  Biso   1.000  N
  N12      1.0000 0.40830  0.32380  0.06370  Biso   1.000  N
  H9       1.0000 0.45100  0.32490  0.03370  Biso   1.000  H
  C11      1.0000 0.40490  0.37140  0.15150  Biso   1.000  C
  H10      1.0000 0.44120  0.42260  0.17570  Biso   1.000  H
  C12      1.0000 0.33350  0.27270  0.02810  Biso   1.000  C
  H11      1.0000 0.31250  0.23810  0.96150  Biso   1.000  H
  C13      1.0000 0.29620  0.28360  0.11290  Biso   1.000  C
  H12      1.0000 0.24320  0.25560  0.11430  Biso   1.000  H
  H13      1.0000 0.92190  0.83220  0.00200  Biso   1.000  H
  C14      1.0000 0.87930  0.88360  0.12350  Biso   1.000  C
  H14      1.0000 0.87920  0.94630  0.11110  Biso   1.000  H
  C15      1.0000 0.91160  0.73720  0.13010  Biso   1.000  C
  H15      1.0000 0.93260  0.68050  0.11530  Biso   1.000  H
  C16      1.0000 0.87830  0.75770  0.21500  Biso   1.000  C
  H16      1.0000 0.87490  0.71800  0.27260  Biso   1.000  H
  C17      1.0000 0.13337  0.26524  0.29760  Biso   1.000  C
  C18      1.0000 0.92854  0.15293  0.08100  Biso   1.000  C
  C19      1.0000 0.91871  0.09882  0.28810  Biso   1.000  C
  C20      1.0000 0.99220  0.31134  0.36790  Biso   1.000  C
  Mn3      1.0000 0.20193  0.91930  0.17512  Biso   1.000  Mn
  N13      1.0000 0.14954  0.84599  0.29710  Biso   1.000  N
  N14      1.0000 0.29771  0.80048  0.17900  Biso   1.000  N
  N15      1.0000 0.60898  0.62768  0.50890  Biso   1.000  N
  N16      1.0000 0.62420  0.54119  0.19260  Biso   1.000  N
  N17      1.0000 0.51286  0.86727  0.06890  Biso   1.000  N
  N18      1.0000 0.09170  0.82380  0.43630  Biso   1.000  N
  H17      1.0000 0.04900  0.82490  0.46630  Biso   1.000  H
  C21      1.0000 0.09510  0.87140  0.34850  Biso   1.000  C
  H18      1.0000 0.05880  0.92260  0.32430  Biso   1.000  H
  C22      1.0000 0.16650  0.77270  0.47190  Biso   1.000  C
  H19      1.0000 0.18750  0.73810  0.53850  Biso   1.000  H
  C23      1.0000 0.20380  0.78360  0.38710  Biso   1.000  C
  H20      1.0000 0.25680  0.75560  0.38570  Biso   1.000  H
  H21      1.0000 0.57810  0.33220  0.49800  Biso   1.000  H
  C24      1.0000 0.62070  0.38360  0.37650  Biso   1.000  C
  H22      1.0000 0.62080  0.44630  0.38890  Biso   1.000  H
  C25      1.0000 0.58840  0.23720  0.36990  Biso   1.000  C
  H23      1.0000 0.56740  0.18050  0.38470  Biso   1.000  H
  C26      1.0000 0.62170  0.25770  0.28500  Biso   1.000  C
  H24      1.0000 0.62510  0.21800  0.22740  Biso   1.000  H
  C27      1.0000 0.36663  0.76524  0.20240  Biso   1.000  C
  C28      1.0000 0.57146  0.65293  0.41900  Biso   1.000  C
  C29      1.0000 0.58129  0.59882  0.21190  Biso   1.000  C
  C30      1.0000 0.50780  0.81134  0.13210  Biso   1.000  C
  Mn4      1.0000 0.70193  0.41930  0.17512  Biso   1.000  Mn
  N19      1.0000 0.64954  0.34599  0.29710  Biso   1.000  N
  N20      1.0000 0.79771  0.30048  0.17900  Biso   1.000  N
  N21      1.0000 0.10898  0.12768  0.50890  Biso   1.000  N
  N22      1.0000 0.12420  0.04119  0.19260  Biso   1.000  N
  N23      1.0000 0.01286  0.36727  0.06890  Biso   1.000  N
  N24      1.0000 0.59170  0.32380  0.43630  Biso   1.000  N
  H25      1.0000 0.54900  0.32490  0.46630  Biso   1.000  H
  C31      1.0000 0.59510  0.37140  0.34850  Biso   1.000  C
  H26      1.0000 0.55880  0.42260  0.32430  Biso   1.000  H
  C32      1.0000 0.66650  0.27270  0.47190  Biso   1.000  C
  H27      1.0000 0.68750  0.23810  0.53850  Biso   1.000  H
  C33      1.0000 0.70380  0.28360  0.38710  Biso   1.000  C
  H28      1.0000 0.75680  0.25560  0.38570  Biso   1.000  H
  H29      1.0000 0.07810  0.83220  0.49800  Biso   1.000  H
  C34      1.0000 0.12070  0.88360  0.37650  Biso   1.000  C
  H30      1.0000 0.12080  0.94630  0.38890  Biso   1.000  H
  C35      1.0000 0.08840  0.73720  0.36990  Biso   1.000  C
  H31      1.0000 0.06740  0.68050  0.38470  Biso   1.000  H
  C36      1.0000 0.12170  0.75770  0.28500  Biso   1.000  C
  H32      1.0000 0.12510  0.71800  0.22740  Biso   1.000  H
  C37      1.0000 0.86663  0.26524  0.20240  Biso   1.000  C
  C38      1.0000 0.07146  0.15293  0.41900  Biso   1.000  C
  C39      1.0000 0.08129  0.09882  0.21190  Biso   1.000  C
  C40      1.0000 0.00780  0.31134  0.13210  Biso   1.000  C
  Mn5      1.0000 0.20193  0.08070  0.67512  Biso   1.000  Mn
  N25      1.0000 0.14954  0.15401  0.79710  Biso   1.000  N
  N26      1.0000 0.29771  0.19952  0.67900  Biso   1.000  N
  N27      1.0000 0.60898  0.37232  0.00890  Biso   1.000  N
  N28      1.0000 0.62420  0.45881  0.69260  Biso   1.000  N
  N29      1.0000 0.51286  0.13273  0.56890  Biso   1.000  N
  N30      1.0000 0.09170  0.17620  0.93630  Biso   1.000  N
  H33      1.0000 0.04900  0.17510  0.96630  Biso   1.000  H
  C41      1.0000 0.09510  0.12860  0.84850  Biso   1.000  C
  H34      1.0000 0.05880  0.07740  0.82430  Biso   1.000  H
  C42      1.0000 0.16650  0.22730  0.97190  Biso   1.000  C
  H35      1.0000 0.18750  0.26190  0.03850  Biso   1.000  H
  C43      1.0000 0.20380  0.21640  0.88710  Biso   1.000  C
  H36      1.0000 0.25680  0.24440  0.88570  Biso   1.000  H
  H37      1.0000 0.57810  0.66780  0.99800  Biso   1.000  H
  C44      1.0000 0.62070  0.61640  0.87650  Biso   1.000  C
  H38      1.0000 0.62080  0.55370  0.88890  Biso   1.000  H
  C45      1.0000 0.58840  0.76280  0.86990  Biso   1.000  C
  H39      1.0000 0.56740  0.81950  0.88470  Biso   1.000  H
  C46      1.0000 0.62170  0.74230  0.78500  Biso   1.000  C
  H40      1.0000 0.62510  0.78200  0.72740  Biso   1.000  H
  C47      1.0000 0.36663  0.23476  0.70240  Biso   1.000  C
  C48      1.0000 0.57146  0.34707  0.91900  Biso   1.000  C
  C49      1.0000 0.58129  0.40118  0.71190  Biso   1.000  C
  C50      1.0000 0.50780  0.18866  0.63210  Biso   1.000  C
  Mn6      1.0000 0.70193  0.58070  0.67512  Biso   1.000  Mn
  N31      1.0000 0.64954  0.65401  0.79710  Biso   1.000  N
  N32      1.0000 0.79771  0.69952  0.67900  Biso   1.000  N
  N33      1.0000 0.10898  0.87232  0.00890  Biso   1.000  N
  N34      1.0000 0.12420  0.95881  0.69260  Biso   1.000  N
  N35      1.0000 0.01286  0.63273  0.56890  Biso   1.000  N
  N36      1.0000 0.59170  0.67620  0.93630  Biso   1.000  N
  H41      1.0000 0.54900  0.67510  0.96630  Biso   1.000  H
  C51      1.0000 0.59510  0.62860  0.84850  Biso   1.000  C
  H42      1.0000 0.55880  0.57740  0.82430  Biso   1.000  H
  C52      1.0000 0.66650  0.72730  0.97190  Biso   1.000  C
  H43      1.0000 0.68750  0.76190  0.03850  Biso   1.000  H
  C53      1.0000 0.70380  0.71640  0.88710  Biso   1.000  C
  H44      1.0000 0.75680  0.74440  0.88570  Biso   1.000  H
  H45      1.0000 0.07810  0.16780  0.99800  Biso   1.000  H
  C54      1.0000 0.12070  0.11640  0.87650  Biso   1.000  C
  H46      1.0000 0.12080  0.05370  0.88890  Biso   1.000  H
  C55      1.0000 0.08840  0.26280  0.86990  Biso   1.000  C
  H47      1.0000 0.06740  0.31950  0.88470  Biso   1.000  H
  C56      1.0000 0.12170  0.24230  0.78500  Biso   1.000  C
  H48      1.0000 0.12510  0.28200  0.72740  Biso   1.000  H
  C57      1.0000 0.86663  0.73476  0.70240  Biso   1.000  C
  C58      1.0000 0.07146  0.84707  0.91900  Biso   1.000  C
  C59      1.0000 0.08129  0.90118  0.71190  Biso   1.000  C
  C60      1.0000 0.00780  0.68866  0.63210  Biso   1.000  C
  Mn7      1.0000 0.79807  0.08070  0.82488  Biso   1.000  Mn
  N37      1.0000 0.85046  0.15401  0.70290  Biso   1.000  N
  N38      1.0000 0.70229  0.19952  0.82100  Biso   1.000  N
  N39      1.0000 0.39102  0.37232  0.49110  Biso   1.000  N
  N40      1.0000 0.37580  0.45881  0.80740  Biso   1.000  N
  N41      1.0000 0.48714  0.13273  0.93110  Biso   1.000  N
  N42      1.0000 0.90830  0.17620  0.56370  Biso   1.000  N
  H49      1.0000 0.95100  0.17510  0.53370  Biso   1.000  H
  C61      1.0000 0.90490  0.12860  0.65150  Biso   1.000  C
  H50      1.0000 0.94120  0.07740  0.67570  Biso   1.000  H
  C62      1.0000 0.83350  0.22730  0.52810  Biso   1.000  C
  H51      1.0000 0.81250  0.26190  0.46150  Biso   1.000  H
  C63      1.0000 0.79620  0.21640  0.61290  Biso   1.000  C
  H52      1.0000 0.74320  0.24440  0.61430  Biso   1.000  H
  H53      1.0000 0.42190  0.66780  0.50200  Biso   1.000  H
  C64      1.0000 0.37930  0.61640  0.62350  Biso   1.000  C
  H54      1.0000 0.37920  0.55370  0.61110  Biso   1.000  H
  C65      1.0000 0.41160  0.76280  0.63010  Biso   1.000  C
  H55      1.0000 0.43260  0.81950  0.61530  Biso   1.000  H
  C66      1.0000 0.37830  0.74230  0.71500  Biso   1.000  C
  H56      1.0000 0.37490  0.78200  0.77260  Biso   1.000  H
  C67      1.0000 0.63337  0.23476  0.79760  Biso   1.000  C
  C68      1.0000 0.42854  0.34707  0.58100  Biso   1.000  C
  C69      1.0000 0.41871  0.40118  0.78810  Biso   1.000  C
  C70      1.0000 0.49220  0.18866  0.86790  Biso   1.000  C
  Mn8      1.0000 0.29807  0.58070  0.82488  Biso   1.000  Mn
  N43      1.0000 0.35046  0.65401  0.70290  Biso   1.000  N
  N44      1.0000 0.20229  0.69952  0.82100  Biso   1.000  N
  N45      1.0000 0.89102  0.87232  0.49110  Biso   1.000  N
  N46      1.0000 0.87580  0.95881  0.80740  Biso   1.000  N
  N47      1.0000 0.98714  0.63273  0.93110  Biso   1.000  N
  N48      1.0000 0.40830  0.67620  0.56370  Biso   1.000  N
  H57      1.0000 0.45100  0.67510  0.53370  Biso   1.000  H
  C71      1.0000 0.40490  0.62860  0.65150  Biso   1.000  C
  H58      1.0000 0.44120  0.57740  0.67570  Biso   1.000  H
  C72      1.0000 0.33350  0.72730  0.52810  Biso   1.000  C
  H59      1.0000 0.31250  0.76190  0.46150  Biso   1.000  H
  C73      1.0000 0.29620  0.71640  0.61290  Biso   1.000  C
  H60      1.0000 0.24320  0.74440  0.61430  Biso   1.000  H
  H61      1.0000 0.92190  0.16780  0.50200  Biso   1.000  H
  C74      1.0000 0.87930  0.11640  0.62350  Biso   1.000  C
  H62      1.0000 0.87920  0.05370  0.61110  Biso   1.000  H
  C75      1.0000 0.91160  0.26280  0.63010  Biso   1.000  C
  H63      1.0000 0.93260  0.31950  0.61530  Biso   1.000  H
  C76      1.0000 0.87830  0.24230  0.71500  Biso   1.000  C
  H64      1.0000 0.87490  0.28200  0.77260  Biso   1.000  H
  C77      1.0000 0.13337  0.73476  0.79760  Biso   1.000  C
  C78      1.0000 0.92854  0.84707  0.58100  Biso   1.000  C
  C79      1.0000 0.91871  0.90118  0.78810  Biso   1.000  C
  C80      1.0000 0.99220  0.68866  0.86790  Biso   1.000  C
  Mo1      1.0000 0.50000  0.70589  0.25000  Biso   1.000  Mo
  Mo2      1.0000 0.00000  0.20589  0.25000  Biso   1.000  Mo
  Mo3      1.0000 0.50000  0.29411  0.75000  Biso   1.000  Mo
  Mo4      1.0000 0.00000  0.79411  0.75000  Biso   1.000  Mo
