data_image0
_cell_length_a       9.1768
_cell_length_b       12.7229
_cell_length_c       16.483
_cell_angle_alpha    68.53
_cell_angle_beta     83.285
_cell_angle_gamma    73.259

_symmetry_space_group_name_H-M    "P 1"
_symmetry_int_tables_number       1

loop_
  _symmetry_equiv_pos_as_xyz
  'x, y, z'

loop_
  _atom_site_label
  _atom_site_occupancy
  _atom_site_fract_x
  _atom_site_fract_y
  _atom_site_fract_z
  _atom_site_thermal_displace_type
  _atom_site_B_iso_or_equiv
  _atom_site_type_symbol
  Fe1      1.0000 0.94514  0.55459  0.12999  Biso   1.000  Fe
  Fe2      1.0000 0.97130  0.06611  0.12269  Biso   1.000  Fe
  Fe3      1.0000 0.31144  0.19092  0.24756  Biso   1.000  Fe
  Fe4      1.0000 0.31093  0.68775  0.25197  Biso   1.000  Fe
  Fe5      1.0000 0.96282  0.44117  0.38236  Biso   1.000  Fe
  Fe6      1.0000 0.96301  0.94138  0.38258  Biso   1.000  Fe
  P1       1.0000 0.09340  0.30870  0.07950  Biso   1.000  P
  P2       1.0000 0.65930  0.52230  0.26290  Biso   1.000  P
  P3       1.0000 0.12570  0.87760  0.07970  Biso   1.000  P
  P4       1.0000 0.22750  0.93910  0.28010  Biso   1.000  P
  P5       1.0000 0.21940  0.43770  0.27545  Biso   1.000  P
  P6       1.0000 0.05270  0.65910  0.40090  Biso   1.000  P
  P7       1.0000 0.04710  0.16370  0.40290  Biso   1.000  P
  P8       1.0000 0.67080  0.04400  0.25280  Biso   1.000  P
  P9       1.0000 0.69770  0.10830  0.25420  Biso   1.000  P
  O1       1.0000 0.00370  0.21760  0.10640  Biso   1.000  O
  O2       1.0000 0.24190  0.26170  0.13050  Biso   1.000  O
  O3       1.0000 0.99460  0.41890  0.09500  Biso   1.000  O
  O4       1.0000 0.14090  0.33790  0.98240  Biso   1.000  O
  O5       1.0000 0.74560  0.52930  0.17650  Biso   1.000  O
  O6       1.0000 0.52470  0.62870  0.25160  Biso   1.000  O
  O7       1.0000 0.75690  0.50830  0.33540  Biso   1.000  O
  O8       1.0000 0.59690  0.41080  0.28950  Biso   1.000  O
  O9       1.0000 0.16950  0.99090  0.06900  Biso   1.000  O
  O10      1.0000 0.12570  0.85750  0.99390  Biso   1.000  O
  O11      1.0000 0.96770  0.89690  0.12310  Biso   1.000  O
  O12      1.0000 0.24020  0.76750  0.13550  Biso   1.000  O
  O13      1.0000 0.31400  0.03280  0.24950  Biso   1.000  O
  O14      1.0000 0.32700  0.83730  0.25520  Biso   1.000  O
  O15      1.0000 0.19250  0.90190  0.37940  Biso   1.000  O
  O16      1.0000 0.06420  0.98550  0.24300  Biso   1.000  O
  O17      1.0000 0.05340  0.46610  0.24360  Biso   1.000  O
  O18      1.0000 0.32880  0.34250  0.24680  Biso   1.000  O
  O19      1.0000 0.27440  0.54850  0.23500  Biso   1.000  O
  O20      1.0000 0.19480  0.40000  0.37510  Biso   1.000  O
  O21      1.0000 0.21320  0.65710  0.36180  Biso   1.000  O
  O22      1.0000 0.96600  0.60700  0.35740  Biso   1.000  O
  O23      1.0000 0.96010  0.78510  0.38660  Biso   1.000  O
  O24      1.0000 0.07430  0.58710  0.49750  Biso   1.000  O
  O25      1.0000 0.19440  0.17230  0.35010  Biso   1.000  O
  O26      1.0000 0.94450  0.28610  0.39420  Biso   1.000  O
  O27      1.0000 0.95540  0.10530  0.36990  Biso   1.000  O
  O28      1.0000 0.09410  0.09330  0.49720  Biso   1.000  O
  O29      1.0000 0.76620  0.08720  0.17210  Biso   1.000  O
  O30      1.0000 0.52820  0.13960  0.25390  Biso   1.000  O
  O31      1.0000 0.75640  0.99820  0.33690  Biso   1.000  O
  O32      1.0000 0.61500  0.94320  0.24400  Biso   1.000  O
  O33      1.0000 0.64300  0.87200  0.24700  Biso   1.000  O
  O34      1.0000 0.73400  0.21100  0.26400  Biso   1.000  O
  O35      1.0000 0.78400  0.26200  0.23900  Biso   1.000  O
  Fe7      1.0000 0.05486  0.44541  0.87001  Biso   1.000  Fe
  Fe8      1.0000 0.02870  0.93389  0.87731  Biso   1.000  Fe
  Fe9      1.0000 0.68856  0.80908  0.75244  Biso   1.000  Fe
  Fe10     1.0000 0.68907  0.31225  0.74803  Biso   1.000  Fe
  Fe11     1.0000 0.03718  0.55883  0.61764  Biso   1.000  Fe
  Fe12     1.0000 0.03699  0.05862  0.61742  Biso   1.000  Fe
  P10      1.0000 0.90660  0.69130  0.92050  Biso   1.000  P
  P11      1.0000 0.34070  0.47770  0.73710  Biso   1.000  P
  P12      1.0000 0.87430  0.12240  0.92030  Biso   1.000  P
  P13      1.0000 0.77250  0.06090  0.71990  Biso   1.000  P
  P14      1.0000 0.78060  0.56230  0.72455  Biso   1.000  P
  P15      1.0000 0.94730  0.34090  0.59910  Biso   1.000  P
  P16      1.0000 0.95290  0.83630  0.59710  Biso   1.000  P
  P17      1.0000 0.32920  0.95600  0.74720  Biso   1.000  P
  P18      1.0000 0.30230  0.89170  0.74580  Biso   1.000  P
  O36      1.0000 0.99630  0.78240  0.89360  Biso   1.000  O
  O37      1.0000 0.75810  0.73830  0.86950  Biso   1.000  O
  O38      1.0000 0.00540  0.58110  0.90500  Biso   1.000  O
  O39      1.0000 0.85910  0.66210  0.01760  Biso   1.000  O
  O40      1.0000 0.25440  0.47070  0.82350  Biso   1.000  O
  O41      1.0000 0.47530  0.37130  0.74840  Biso   1.000  O
  O42      1.0000 0.24310  0.49170  0.66460  Biso   1.000  O
  O43      1.0000 0.40310  0.58920  0.71050  Biso   1.000  O
  O44      1.0000 0.83050  0.00910  0.93100  Biso   1.000  O
  O45      1.0000 0.87430  0.14250  0.00610  Biso   1.000  O
  O46      1.0000 0.03230  0.10310  0.87690  Biso   1.000  O
  O47      1.0000 0.75980  0.23250  0.86450  Biso   1.000  O
  O48      1.0000 0.68600  0.96720  0.75050  Biso   1.000  O
  O49      1.0000 0.67300  0.16270  0.74480  Biso   1.000  O
  O50      1.0000 0.80750  0.09810  0.62060  Biso   1.000  O
  O51      1.0000 0.93580  0.01450  0.75700  Biso   1.000  O
  O52      1.0000 0.94660  0.53390  0.75640  Biso   1.000  O
  O53      1.0000 0.67120  0.65750  0.75320  Biso   1.000  O
  O54      1.0000 0.72560  0.45150  0.76500  Biso   1.000  O
  O55      1.0000 0.80520  0.60000  0.62490  Biso   1.000  O
  O56      1.0000 0.78680  0.34290  0.63820  Biso   1.000  O
  O57      1.0000 0.03400  0.39300  0.64260  Biso   1.000  O
  O58      1.0000 0.03990  0.21490  0.61340  Biso   1.000  O
  O59      1.0000 0.92570  0.41290  0.50250  Biso   1.000  O
  O60      1.0000 0.80560  0.82770  0.64990  Biso   1.000  O
  O61      1.0000 0.05550  0.71390  0.60580  Biso   1.000  O
  O62      1.0000 0.04460  0.89470  0.63010  Biso   1.000  O
  O63      1.0000 0.90590  0.90670  0.50280  Biso   1.000  O
  O64      1.0000 0.23380  0.91280  0.82790  Biso   1.000  O
  O65      1.0000 0.47180  0.86040  0.74610  Biso   1.000  O
  O66      1.0000 0.24360  0.00180  0.66310  Biso   1.000  O
  O67      1.0000 0.38500  0.05680  0.75600  Biso   1.000  O
  O68      1.0000 0.35700  0.12800  0.75300  Biso   1.000  O
  O69      1.0000 0.26600  0.78900  0.73600  Biso   1.000  O
  O70      1.0000 0.21600  0.73800  0.76100  Biso   1.000  O
