data_image0
_cell_length_a       36.84
_cell_length_b       7.0063
_cell_length_c       6.1988
_cell_angle_alpha    90
_cell_angle_beta     97.45
_cell_angle_gamma    90

_symmetry_space_group_name_H-M    "P 1"
_symmetry_int_tables_number       1

loop_
  _symmetry_equiv_pos_as_xyz
  'x, y, z'

loop_
  _atom_site_label
  _atom_site_occupancy
  _atom_site_fract_x
  _atom_site_fract_y
  _atom_site_fract_z
  _atom_site_thermal_displace_type
  _atom_site_B_iso_or_equiv
  _atom_site_type_symbol
  O1       1.0000 0.34670  0.44100  0.51200  Biso   1.000  O
  O2       1.0000 0.20050  0.19020  0.21140  Biso   1.000  O
  O3       1.0000 0.22410  0.34690  0.62060  Biso   1.000  O
  C1       1.0000 0.44970  0.43200  0.30200  Biso   1.000  C
  H1       1.0000 0.47010  0.37000  0.39000  Biso   1.000  H
  C2       1.0000 0.41510  0.42400  0.36900  Biso   1.000  C
  H2       1.0000 0.41120  0.35000  0.49300  Biso   1.000  H
  C3       1.0000 0.38800  0.54200  0.01800  Biso   1.000  C
  C4       1.0000 0.42310  0.55200  0.95600  Biso   1.000  C
  H3       1.0000 0.42540  0.58000  0.80600  Biso   1.000  H
  C5       1.0000 0.17331  0.42110  0.96910  Biso   1.000  C
  C6       1.0000 0.13980  0.41010  0.05100  Biso   1.000  C
  H4       1.0000 0.13870  0.35810  0.19270  Biso   1.000  H
  C7       1.0000 0.10800  0.47510  0.92630  Biso   1.000  C
  H5       1.0000 0.08500  0.46770  0.98250  Biso   1.000  H
  C8       1.0000 0.10960  0.55110  0.71980  Biso   1.000  C
  H6       1.0000 0.08780  0.59570  0.63430  Biso   1.000  H
  C9       1.0000 0.14310  0.56200  0.63780  Biso   1.000  C
  H7       1.0000 0.14410  0.61230  0.49520  Biso   1.000  H
  C10      1.0000 0.20630  0.36100  0.12570  Biso   1.000  C
  O4       1.0000 0.84670  0.94100  0.51200  Biso   1.000  O
  O5       1.0000 0.70050  0.69020  0.21140  Biso   1.000  O
  O6       1.0000 0.72410  0.84690  0.62060  Biso   1.000  O
  C11      1.0000 0.94970  0.93200  0.30200  Biso   1.000  C
  H8       1.0000 0.97010  0.87000  0.39000  Biso   1.000  H
  C12      1.0000 0.91510  0.92400  0.36900  Biso   1.000  C
  H9       1.0000 0.91120  0.85000  0.49300  Biso   1.000  H
  C13      1.0000 0.88800  0.04200  0.01800  Biso   1.000  C
  C14      1.0000 0.92310  0.05200  0.95600  Biso   1.000  C
  H10      1.0000 0.92540  0.08000  0.80600  Biso   1.000  H
  C15      1.0000 0.67331  0.92110  0.96910  Biso   1.000  C
  C16      1.0000 0.63980  0.91010  0.05100  Biso   1.000  C
  H11      1.0000 0.63870  0.85810  0.19270  Biso   1.000  H
  C17      1.0000 0.60800  0.97510  0.92630  Biso   1.000  C
  H12      1.0000 0.58500  0.96770  0.98250  Biso   1.000  H
  C18      1.0000 0.60960  0.05110  0.71980  Biso   1.000  C
  H13      1.0000 0.58780  0.09570  0.63430  Biso   1.000  H
  C19      1.0000 0.64310  0.06200  0.63780  Biso   1.000  C
  H14      1.0000 0.64410  0.11230  0.49520  Biso   1.000  H
  C20      1.0000 0.70630  0.86100  0.12570  Biso   1.000  C
  O7       1.0000 0.65330  0.44100  0.48800  Biso   1.000  O
  O8       1.0000 0.79950  0.19020  0.78860  Biso   1.000  O
  O9       1.0000 0.77590  0.34690  0.37940  Biso   1.000  O
  C21      1.0000 0.55030  0.43200  0.69800  Biso   1.000  C
  H15      1.0000 0.52990  0.37000  0.61000  Biso   1.000  H
  C22      1.0000 0.58490  0.42400  0.63100  Biso   1.000  C
  H16      1.0000 0.58880  0.35000  0.50700  Biso   1.000  H
  C23      1.0000 0.61200  0.54200  0.98200  Biso   1.000  C
  C24      1.0000 0.57690  0.55200  0.04400  Biso   1.000  C
  H17      1.0000 0.57460  0.58000  0.19400  Biso   1.000  H
  C25      1.0000 0.82669  0.42110  0.03090  Biso   1.000  C
  C26      1.0000 0.86020  0.41010  0.94900  Biso   1.000  C
  H18      1.0000 0.86130  0.35810  0.80730  Biso   1.000  H
  C27      1.0000 0.89200  0.47510  0.07370  Biso   1.000  C
  H19      1.0000 0.91500  0.46770  0.01750  Biso   1.000  H
  C28      1.0000 0.89040  0.55110  0.28020  Biso   1.000  C
  H20      1.0000 0.91220  0.59570  0.36570  Biso   1.000  H
  C29      1.0000 0.85690  0.56200  0.36220  Biso   1.000  C
  H21      1.0000 0.85590  0.61230  0.50480  Biso   1.000  H
  C30      1.0000 0.79370  0.36100  0.87430  Biso   1.000  C
  O10      1.0000 0.15330  0.94100  0.48800  Biso   1.000  O
  O11      1.0000 0.29950  0.69020  0.78860  Biso   1.000  O
  O12      1.0000 0.27590  0.84690  0.37940  Biso   1.000  O
  C31      1.0000 0.05030  0.93200  0.69800  Biso   1.000  C
  H22      1.0000 0.02990  0.87000  0.61000  Biso   1.000  H
  C32      1.0000 0.08490  0.92400  0.63100  Biso   1.000  C
  H23      1.0000 0.08880  0.85000  0.50700  Biso   1.000  H
  C33      1.0000 0.11200  0.04200  0.98200  Biso   1.000  C
  C34      1.0000 0.07690  0.05200  0.04400  Biso   1.000  C
  H24      1.0000 0.07460  0.08000  0.19400  Biso   1.000  H
  C35      1.0000 0.32669  0.92110  0.03090  Biso   1.000  C
  C36      1.0000 0.36020  0.91010  0.94900  Biso   1.000  C
  H25      1.0000 0.36130  0.85810  0.80730  Biso   1.000  H
  C37      1.0000 0.39200  0.97510  0.07370  Biso   1.000  C
  H26      1.0000 0.41500  0.96770  0.01750  Biso   1.000  H
  C38      1.0000 0.39040  0.05110  0.28020  Biso   1.000  C
  H27      1.0000 0.41220  0.09570  0.36570  Biso   1.000  H
  C39      1.0000 0.35690  0.06200  0.36220  Biso   1.000  C
  H28      1.0000 0.35590  0.11230  0.50480  Biso   1.000  H
  C40      1.0000 0.29370  0.86100  0.87430  Biso   1.000  C
  O13      1.0000 0.65330  0.55900  0.48800  Biso   1.000  O
  O14      1.0000 0.79950  0.80980  0.78860  Biso   1.000  O
  O15      1.0000 0.77590  0.65310  0.37940  Biso   1.000  O
  C41      1.0000 0.55030  0.56800  0.69800  Biso   1.000  C
  H29      1.0000 0.52990  0.63000  0.61000  Biso   1.000  H
  C42      1.0000 0.58490  0.57600  0.63100  Biso   1.000  C
  H30      1.0000 0.58880  0.65000  0.50700  Biso   1.000  H
  C43      1.0000 0.61200  0.45800  0.98200  Biso   1.000  C
  C44      1.0000 0.57690  0.44800  0.04400  Biso   1.000  C
  H31      1.0000 0.57460  0.42000  0.19400  Biso   1.000  H
  C45      1.0000 0.82669  0.57890  0.03090  Biso   1.000  C
  C46      1.0000 0.86020  0.58990  0.94900  Biso   1.000  C
  H32      1.0000 0.86130  0.64190  0.80730  Biso   1.000  H
  C47      1.0000 0.89200  0.52490  0.07370  Biso   1.000  C
  H33      1.0000 0.91500  0.53230  0.01750  Biso   1.000  H
  C48      1.0000 0.89040  0.44890  0.28020  Biso   1.000  C
  H34      1.0000 0.91220  0.40430  0.36570  Biso   1.000  H
  C49      1.0000 0.85690  0.43800  0.36220  Biso   1.000  C
  H35      1.0000 0.85590  0.38770  0.50480  Biso   1.000  H
  C50      1.0000 0.79370  0.63900  0.87430  Biso   1.000  C
  O16      1.0000 0.15330  0.05900  0.48800  Biso   1.000  O
  O17      1.0000 0.29950  0.30980  0.78860  Biso   1.000  O
  O18      1.0000 0.27590  0.15310  0.37940  Biso   1.000  O
  C51      1.0000 0.05030  0.06800  0.69800  Biso   1.000  C
  H36      1.0000 0.02990  0.13000  0.61000  Biso   1.000  H
  C52      1.0000 0.08490  0.07600  0.63100  Biso   1.000  C
  H37      1.0000 0.08880  0.15000  0.50700  Biso   1.000  H
  C53      1.0000 0.11200  0.95800  0.98200  Biso   1.000  C
  C54      1.0000 0.07690  0.94800  0.04400  Biso   1.000  C
  H38      1.0000 0.07460  0.92000  0.19400  Biso   1.000  H
  C55      1.0000 0.32669  0.07890  0.03090  Biso   1.000  C
  C56      1.0000 0.36020  0.08990  0.94900  Biso   1.000  C
  H39      1.0000 0.36130  0.14190  0.80730  Biso   1.000  H
  C57      1.0000 0.39200  0.02490  0.07370  Biso   1.000  C
  H40      1.0000 0.41500  0.03230  0.01750  Biso   1.000  H
  C58      1.0000 0.39040  0.94890  0.28020  Biso   1.000  C
  H41      1.0000 0.41220  0.90430  0.36570  Biso   1.000  H
  C59      1.0000 0.35690  0.93800  0.36220  Biso   1.000  C
  H42      1.0000 0.35590  0.88770  0.50480  Biso   1.000  H
  C60      1.0000 0.29370  0.13900  0.87430  Biso   1.000  C
  O19      1.0000 0.34670  0.55900  0.51200  Biso   1.000  O
  O20      1.0000 0.20050  0.80980  0.21140  Biso   1.000  O
  O21      1.0000 0.22410  0.65310  0.62060  Biso   1.000  O
  C61      1.0000 0.44970  0.56800  0.30200  Biso   1.000  C
  H43      1.0000 0.47010  0.63000  0.39000  Biso   1.000  H
  C62      1.0000 0.41510  0.57600  0.36900  Biso   1.000  C
  H44      1.0000 0.41120  0.65000  0.49300  Biso   1.000  H
  C63      1.0000 0.38800  0.45800  0.01800  Biso   1.000  C
  C64      1.0000 0.42310  0.44800  0.95600  Biso   1.000  C
  H45      1.0000 0.42540  0.42000  0.80600  Biso   1.000  H
  C65      1.0000 0.17331  0.57890  0.96910  Biso   1.000  C
  C66      1.0000 0.13980  0.58990  0.05100  Biso   1.000  C
  H46      1.0000 0.13870  0.64190  0.19270  Biso   1.000  H
  C67      1.0000 0.10800  0.52490  0.92630  Biso   1.000  C
  H47      1.0000 0.08500  0.53230  0.98250  Biso   1.000  H
  C68      1.0000 0.10960  0.44890  0.71980  Biso   1.000  C
  H48      1.0000 0.08780  0.40430  0.63430  Biso   1.000  H
  C69      1.0000 0.14310  0.43800  0.63780  Biso   1.000  C
  H49      1.0000 0.14410  0.38770  0.49520  Biso   1.000  H
  C70      1.0000 0.20630  0.63900  0.12570  Biso   1.000  C
  O22      1.0000 0.84670  0.05900  0.51200  Biso   1.000  O
  O23      1.0000 0.70050  0.30980  0.21140  Biso   1.000  O
  O24      1.0000 0.72410  0.15310  0.62060  Biso   1.000  O
  C71      1.0000 0.94970  0.06800  0.30200  Biso   1.000  C
  H50      1.0000 0.97010  0.13000  0.39000  Biso   1.000  H
  C72      1.0000 0.91510  0.07600  0.36900  Biso   1.000  C
  H51      1.0000 0.91120  0.15000  0.49300  Biso   1.000  H
  C73      1.0000 0.88800  0.95800  0.01800  Biso   1.000  C
  C74      1.0000 0.92310  0.94800  0.95600  Biso   1.000  C
  H52      1.0000 0.92540  0.92000  0.80600  Biso   1.000  H
  C75      1.0000 0.67331  0.07890  0.96910  Biso   1.000  C
  C76      1.0000 0.63980  0.08990  0.05100  Biso   1.000  C
  H53      1.0000 0.63870  0.14190  0.19270  Biso   1.000  H
  C77      1.0000 0.60800  0.02490  0.92630  Biso   1.000  C
  H54      1.0000 0.58500  0.03230  0.98250  Biso   1.000  H
  C78      1.0000 0.60960  0.94890  0.71980  Biso   1.000  C
  H55      1.0000 0.58780  0.90430  0.63430  Biso   1.000  H
  C79      1.0000 0.64310  0.93800  0.63780  Biso   1.000  C
  H56      1.0000 0.64410  0.88770  0.49520  Biso   1.000  H
  C80      1.0000 0.70630  0.13900  0.12570  Biso   1.000  C
  Sm1      1.0000 0.28005  0.50000  0.47849  Biso   1.000  Sm
  O25      1.0000 0.31920  0.50000  0.19180  Biso   1.000  O
  O26      1.0000 0.23270  0.50000  0.16630  Biso   1.000  O
  N1       1.0000 0.45390  0.50000  0.09700  Biso   1.000  N
  C81      1.0000 0.38520  0.50000  0.23600  Biso   1.000  C
  H57      1.0000 0.36820  0.50000  0.90900  Biso   1.000  H
  C82      1.0000 0.34860  0.50000  0.31700  Biso   1.000  C
  C83      1.0000 0.17491  0.50000  0.76250  Biso   1.000  C
  C84      1.0000 0.20940  0.50000  0.66470  Biso   1.000  C
  Sm2      1.0000 0.78005  0.00000  0.47849  Biso   1.000  Sm
  O27      1.0000 0.81920  0.00000  0.19180  Biso   1.000  O
  O28      1.0000 0.73270  0.00000  0.16630  Biso   1.000  O
  N2       1.0000 0.95390  0.00000  0.09700  Biso   1.000  N
  C85      1.0000 0.88520  0.00000  0.23600  Biso   1.000  C
  H58      1.0000 0.86820  0.00000  0.90900  Biso   1.000  H
  C86      1.0000 0.84860  0.00000  0.31700  Biso   1.000  C
  C87      1.0000 0.67491  0.00000  0.76250  Biso   1.000  C
  C88      1.0000 0.70940  0.00000  0.66470  Biso   1.000  C
  Sm3      1.0000 0.71995  0.50000  0.52151  Biso   1.000  Sm
  O29      1.0000 0.68080  0.50000  0.80820  Biso   1.000  O
  O30      1.0000 0.76730  0.50000  0.83370  Biso   1.000  O
  N3       1.0000 0.54610  0.50000  0.90300  Biso   1.000  N
  C89      1.0000 0.61480  0.50000  0.76400  Biso   1.000  C
  H59      1.0000 0.63180  0.50000  0.09100  Biso   1.000  H
  C90      1.0000 0.65140  0.50000  0.68300  Biso   1.000  C
  C91      1.0000 0.82509  0.50000  0.23750  Biso   1.000  C
  C92      1.0000 0.79060  0.50000  0.33530  Biso   1.000  C
  Sm4      1.0000 0.21995  0.00000  0.52151  Biso   1.000  Sm
  O31      1.0000 0.18080  0.00000  0.80820  Biso   1.000  O
  O32      1.0000 0.26730  0.00000  0.83370  Biso   1.000  O
  N4       1.0000 0.04610  0.00000  0.90300  Biso   1.000  N
  C93      1.0000 0.11480  0.00000  0.76400  Biso   1.000  C
  H60      1.0000 0.13180  0.00000  0.09100  Biso   1.000  H
  C94      1.0000 0.15140  0.00000  0.68300  Biso   1.000  C
  C95      1.0000 0.32509  0.00000  0.23750  Biso   1.000  C
  C96      1.0000 0.29060  0.00000  0.33530  Biso   1.000  C
  Cu1      1.0000 0.50000  0.50000  0.00000  Biso   1.000  Cu
  Cu2      1.0000 0.00000  0.00000  0.00000  Biso   1.000  Cu
