data_image0
_cell_length_a       36.997
_cell_length_b       7.0551
_cell_length_c       6.2045
_cell_angle_alpha    90
_cell_angle_beta     97.75
_cell_angle_gamma    90

_symmetry_space_group_name_H-M    "P 1"
_symmetry_int_tables_number       1

loop_
  _symmetry_equiv_pos_as_xyz
  'x, y, z'

loop_
  _atom_site_label
  _atom_site_occupancy
  _atom_site_fract_x
  _atom_site_fract_y
  _atom_site_fract_z
  _atom_site_thermal_displace_type
  _atom_site_B_iso_or_equiv
  _atom_site_type_symbol
  O1       1.0000 0.15250  0.05790  0.48570  Biso   1.000  O
  O2       1.0000 0.30001  0.30730  0.79120  Biso   1.000  O
  O3       1.0000 0.27595  0.15320  0.37710  Biso   1.000  O
  C1       1.0000 0.05020  0.06750  0.69130  Biso   1.000  C
  H1       1.0000 0.02910  0.11130  0.59570  Biso   1.000  H
  C2       1.0000 0.08420  0.07130  0.62370  Biso   1.000  C
  H2       1.0000 0.08690  0.11360  0.47880  Biso   1.000  H
  C3       1.0000 0.11452  0.01440  0.76350  Biso   1.000  C
  C4       1.0000 0.11080  0.95130  0.97020  Biso   1.000  C
  H3       1.0000 0.13180  0.90810  0.06650  Biso   1.000  H
  C5       1.0000 0.07670  0.95010  0.03840  Biso   1.000  C
  H4       1.0000 0.07430  0.91390  0.18570  Biso   1.000  H
  C6       1.0000 0.32740  0.08670  0.03280  Biso   1.000  C
  C7       1.0000 0.36080  0.09720  0.95400  Biso   1.000  C
  H5       1.0000 0.36210  0.14890  0.81180  Biso   1.000  H
  C8       1.0000 0.39230  0.03290  0.08060  Biso   1.000  C
  H6       1.0000 0.41530  0.03730  0.02500  Biso   1.000  H
  C9       1.0000 0.39036  0.96240  0.28710  Biso   1.000  C
  H7       1.0000 0.41230  0.92320  0.37720  Biso   1.000  H
  C10      1.0000 0.35700  0.94810  0.36500  Biso   1.000  C
  H8       1.0000 0.35600  0.90110  0.50970  Biso   1.000  H
  C11      1.0000 0.29370  0.14700  0.87500  Biso   1.000  C
  O4       1.0000 0.65250  0.55790  0.48570  Biso   1.000  O
  O5       1.0000 0.80001  0.80730  0.79120  Biso   1.000  O
  O6       1.0000 0.77595  0.65320  0.37710  Biso   1.000  O
  C12      1.0000 0.55020  0.56750  0.69130  Biso   1.000  C
  H9       1.0000 0.52910  0.61130  0.59570  Biso   1.000  H
  C13      1.0000 0.58420  0.57130  0.62370  Biso   1.000  C
  H10      1.0000 0.58690  0.61360  0.47880  Biso   1.000  H
  C14      1.0000 0.61452  0.51440  0.76350  Biso   1.000  C
  C15      1.0000 0.61080  0.45130  0.97020  Biso   1.000  C
  H11      1.0000 0.63180  0.40810  0.06650  Biso   1.000  H
  C16      1.0000 0.57670  0.45010  0.03840  Biso   1.000  C
  H12      1.0000 0.57430  0.41390  0.18570  Biso   1.000  H
  C17      1.0000 0.82740  0.58670  0.03280  Biso   1.000  C
  C18      1.0000 0.86080  0.59720  0.95400  Biso   1.000  C
  H13      1.0000 0.86210  0.64890  0.81180  Biso   1.000  H
  C19      1.0000 0.89230  0.53290  0.08060  Biso   1.000  C
  H14      1.0000 0.91530  0.53730  0.02500  Biso   1.000  H
  C20      1.0000 0.89036  0.46240  0.28710  Biso   1.000  C
  H15      1.0000 0.91230  0.42320  0.37720  Biso   1.000  H
  C21      1.0000 0.85700  0.44810  0.36500  Biso   1.000  C
  H16      1.0000 0.85600  0.40110  0.50970  Biso   1.000  H
  C22      1.0000 0.79370  0.64700  0.87500  Biso   1.000  C
  O7       1.0000 0.84750  0.05790  0.51430  Biso   1.000  O
  O8       1.0000 0.69999  0.30730  0.20880  Biso   1.000  O
  O9       1.0000 0.72405  0.15320  0.62290  Biso   1.000  O
  C23      1.0000 0.94980  0.06750  0.30870  Biso   1.000  C
  H17      1.0000 0.97090  0.11130  0.40430  Biso   1.000  H
  C24      1.0000 0.91580  0.07130  0.37630  Biso   1.000  C
  H18      1.0000 0.91310  0.11360  0.52120  Biso   1.000  H
  C25      1.0000 0.88548  0.01440  0.23650  Biso   1.000  C
  C26      1.0000 0.88920  0.95130  0.02980  Biso   1.000  C
  H19      1.0000 0.86820  0.90810  0.93350  Biso   1.000  H
  C27      1.0000 0.92330  0.95010  0.96160  Biso   1.000  C
  H20      1.0000 0.92570  0.91390  0.81430  Biso   1.000  H
  C28      1.0000 0.67260  0.08670  0.96720  Biso   1.000  C
  C29      1.0000 0.63920  0.09720  0.04600  Biso   1.000  C
  H21      1.0000 0.63790  0.14890  0.18820  Biso   1.000  H
  C30      1.0000 0.60770  0.03290  0.91940  Biso   1.000  C
  H22      1.0000 0.58470  0.03730  0.97500  Biso   1.000  H
  C31      1.0000 0.60964  0.96240  0.71290  Biso   1.000  C
  H23      1.0000 0.58770  0.92320  0.62280  Biso   1.000  H
  C32      1.0000 0.64300  0.94810  0.63500  Biso   1.000  C
  H24      1.0000 0.64400  0.90110  0.49030  Biso   1.000  H
  C33      1.0000 0.70630  0.14700  0.12500  Biso   1.000  C
  O10      1.0000 0.34750  0.55790  0.51430  Biso   1.000  O
  O11      1.0000 0.19999  0.80730  0.20880  Biso   1.000  O
  O12      1.0000 0.22405  0.65320  0.62290  Biso   1.000  O
  C34      1.0000 0.44980  0.56750  0.30870  Biso   1.000  C
  H25      1.0000 0.47090  0.61130  0.40430  Biso   1.000  H
  C35      1.0000 0.41580  0.57130  0.37630  Biso   1.000  C
  H26      1.0000 0.41310  0.61360  0.52120  Biso   1.000  H
  C36      1.0000 0.38548  0.51440  0.23650  Biso   1.000  C
  C37      1.0000 0.38920  0.45130  0.02980  Biso   1.000  C
  H27      1.0000 0.36820  0.40810  0.93350  Biso   1.000  H
  C38      1.0000 0.42330  0.45010  0.96160  Biso   1.000  C
  H28      1.0000 0.42570  0.41390  0.81430  Biso   1.000  H
  C39      1.0000 0.17260  0.58670  0.96720  Biso   1.000  C
  C40      1.0000 0.13920  0.59720  0.04600  Biso   1.000  C
  H29      1.0000 0.13790  0.64890  0.18820  Biso   1.000  H
  C41      1.0000 0.10770  0.53290  0.91940  Biso   1.000  C
  H30      1.0000 0.08470  0.53730  0.97500  Biso   1.000  H
  C42      1.0000 0.10964  0.46240  0.71290  Biso   1.000  C
  H31      1.0000 0.08770  0.42320  0.62280  Biso   1.000  H
  C43      1.0000 0.14300  0.44810  0.63500  Biso   1.000  C
  H32      1.0000 0.14400  0.40110  0.49030  Biso   1.000  H
  C44      1.0000 0.20630  0.64700  0.12500  Biso   1.000  C
  O13      1.0000 0.84750  0.94210  0.51430  Biso   1.000  O
  O14      1.0000 0.69999  0.69270  0.20880  Biso   1.000  O
  O15      1.0000 0.72405  0.84680  0.62290  Biso   1.000  O
  C45      1.0000 0.94980  0.93250  0.30870  Biso   1.000  C
  H33      1.0000 0.97090  0.88870  0.40430  Biso   1.000  H
  C46      1.0000 0.91580  0.92870  0.37630  Biso   1.000  C
  H34      1.0000 0.91310  0.88640  0.52120  Biso   1.000  H
  C47      1.0000 0.88548  0.98560  0.23650  Biso   1.000  C
  C48      1.0000 0.88920  0.04870  0.02980  Biso   1.000  C
  H35      1.0000 0.86820  0.09190  0.93350  Biso   1.000  H
  C49      1.0000 0.92330  0.04990  0.96160  Biso   1.000  C
  H36      1.0000 0.92570  0.08610  0.81430  Biso   1.000  H
  C50      1.0000 0.67260  0.91330  0.96720  Biso   1.000  C
  C51      1.0000 0.63920  0.90280  0.04600  Biso   1.000  C
  H37      1.0000 0.63790  0.85110  0.18820  Biso   1.000  H
  C52      1.0000 0.60770  0.96710  0.91940  Biso   1.000  C
  H38      1.0000 0.58470  0.96270  0.97500  Biso   1.000  H
  C53      1.0000 0.60964  0.03760  0.71290  Biso   1.000  C
  H39      1.0000 0.58770  0.07680  0.62280  Biso   1.000  H
  C54      1.0000 0.64300  0.05190  0.63500  Biso   1.000  C
  H40      1.0000 0.64400  0.09890  0.49030  Biso   1.000  H
  C55      1.0000 0.70630  0.85300  0.12500  Biso   1.000  C
  O16      1.0000 0.34750  0.44210  0.51430  Biso   1.000  O
  O17      1.0000 0.19999  0.19270  0.20880  Biso   1.000  O
  O18      1.0000 0.22405  0.34680  0.62290  Biso   1.000  O
  C56      1.0000 0.44980  0.43250  0.30870  Biso   1.000  C
  H41      1.0000 0.47090  0.38870  0.40430  Biso   1.000  H
  C57      1.0000 0.41580  0.42870  0.37630  Biso   1.000  C
  H42      1.0000 0.41310  0.38640  0.52120  Biso   1.000  H
  C58      1.0000 0.38548  0.48560  0.23650  Biso   1.000  C
  C59      1.0000 0.38920  0.54870  0.02980  Biso   1.000  C
  H43      1.0000 0.36820  0.59190  0.93350  Biso   1.000  H
  C60      1.0000 0.42330  0.54990  0.96160  Biso   1.000  C
  H44      1.0000 0.42570  0.58610  0.81430  Biso   1.000  H
  C61      1.0000 0.17260  0.41330  0.96720  Biso   1.000  C
  C62      1.0000 0.13920  0.40280  0.04600  Biso   1.000  C
  H45      1.0000 0.13790  0.35110  0.18820  Biso   1.000  H
  C63      1.0000 0.10770  0.46710  0.91940  Biso   1.000  C
  H46      1.0000 0.08470  0.46270  0.97500  Biso   1.000  H
  C64      1.0000 0.10964  0.53760  0.71290  Biso   1.000  C
  H47      1.0000 0.08770  0.57680  0.62280  Biso   1.000  H
  C65      1.0000 0.14300  0.55190  0.63500  Biso   1.000  C
  H48      1.0000 0.14400  0.59890  0.49030  Biso   1.000  H
  C66      1.0000 0.20630  0.35300  0.12500  Biso   1.000  C
  O19      1.0000 0.15250  0.94210  0.48570  Biso   1.000  O
  O20      1.0000 0.30001  0.69270  0.79120  Biso   1.000  O
  O21      1.0000 0.27595  0.84680  0.37710  Biso   1.000  O
  C67      1.0000 0.05020  0.93250  0.69130  Biso   1.000  C
  H49      1.0000 0.02910  0.88870  0.59570  Biso   1.000  H
  C68      1.0000 0.08420  0.92870  0.62370  Biso   1.000  C
  H50      1.0000 0.08690  0.88640  0.47880  Biso   1.000  H
  C69      1.0000 0.11452  0.98560  0.76350  Biso   1.000  C
  C70      1.0000 0.11080  0.04870  0.97020  Biso   1.000  C
  H51      1.0000 0.13180  0.09190  0.06650  Biso   1.000  H
  C71      1.0000 0.07670  0.04990  0.03840  Biso   1.000  C
  H52      1.0000 0.07430  0.08610  0.18570  Biso   1.000  H
  C72      1.0000 0.32740  0.91330  0.03280  Biso   1.000  C
  C73      1.0000 0.36080  0.90280  0.95400  Biso   1.000  C
  H53      1.0000 0.36210  0.85110  0.81180  Biso   1.000  H
  C74      1.0000 0.39230  0.96710  0.08060  Biso   1.000  C
  H54      1.0000 0.41530  0.96270  0.02500  Biso   1.000  H
  C75      1.0000 0.39036  0.03760  0.28710  Biso   1.000  C
  H55      1.0000 0.41230  0.07680  0.37720  Biso   1.000  H
  C76      1.0000 0.35700  0.05190  0.36500  Biso   1.000  C
  H56      1.0000 0.35600  0.09890  0.50970  Biso   1.000  H
  C77      1.0000 0.29370  0.85300  0.87500  Biso   1.000  C
  O22      1.0000 0.65250  0.44210  0.48570  Biso   1.000  O
  O23      1.0000 0.80001  0.19270  0.79120  Biso   1.000  O
  O24      1.0000 0.77595  0.34680  0.37710  Biso   1.000  O
  C78      1.0000 0.55020  0.43250  0.69130  Biso   1.000  C
  H57      1.0000 0.52910  0.38870  0.59570  Biso   1.000  H
  C79      1.0000 0.58420  0.42870  0.62370  Biso   1.000  C
  H58      1.0000 0.58690  0.38640  0.47880  Biso   1.000  H
  C80      1.0000 0.61452  0.48560  0.76350  Biso   1.000  C
  C81      1.0000 0.61080  0.54870  0.97020  Biso   1.000  C
  H59      1.0000 0.63180  0.59190  0.06650  Biso   1.000  H
  C82      1.0000 0.57670  0.54990  0.03840  Biso   1.000  C
  H60      1.0000 0.57430  0.58610  0.18570  Biso   1.000  H
  C83      1.0000 0.82740  0.41330  0.03280  Biso   1.000  C
  C84      1.0000 0.86080  0.40280  0.95400  Biso   1.000  C
  H61      1.0000 0.86210  0.35110  0.81180  Biso   1.000  H
  C85      1.0000 0.89230  0.46710  0.08060  Biso   1.000  C
  H62      1.0000 0.91530  0.46270  0.02500  Biso   1.000  H
  C86      1.0000 0.89036  0.53760  0.28710  Biso   1.000  C
  H63      1.0000 0.91230  0.57680  0.37720  Biso   1.000  H
  C87      1.0000 0.85700  0.55190  0.36500  Biso   1.000  C
  H64      1.0000 0.85600  0.59890  0.50970  Biso   1.000  H
  C88      1.0000 0.79370  0.35300  0.87500  Biso   1.000  C
  Nd1      1.0000 0.21959  0.00000  0.52149  Biso   1.000  Nd
  O25      1.0000 0.17930  0.00000  0.80790  Biso   1.000  O
  O26      1.0000 0.26750  0.00000  0.84110  Biso   1.000  O
  N1       1.0000 0.04642  0.00000  0.89870  Biso   1.000  N
  C89      1.0000 0.15080  0.00000  0.67800  Biso   1.000  C
  C90      1.0000 0.32548  0.00000  0.23810  Biso   1.000  C
  C91      1.0000 0.29030  0.00000  0.33180  Biso   1.000  C
  Nd2      1.0000 0.71959  0.50000  0.52149  Biso   1.000  Nd
  O27      1.0000 0.67930  0.50000  0.80790  Biso   1.000  O
  O28      1.0000 0.76750  0.50000  0.84110  Biso   1.000  O
  N2       1.0000 0.54642  0.50000  0.89870  Biso   1.000  N
  C92      1.0000 0.65080  0.50000  0.67800  Biso   1.000  C
  C93      1.0000 0.82548  0.50000  0.23810  Biso   1.000  C
  C94      1.0000 0.79030  0.50000  0.33180  Biso   1.000  C
  Nd3      1.0000 0.78041  0.00000  0.47851  Biso   1.000  Nd
  O29      1.0000 0.82070  0.00000  0.19210  Biso   1.000  O
  O30      1.0000 0.73250  0.00000  0.15890  Biso   1.000  O
  N3       1.0000 0.95358  0.00000  0.10130  Biso   1.000  N
  C95      1.0000 0.84920  0.00000  0.32200  Biso   1.000  C
  C96      1.0000 0.67452  0.00000  0.76190  Biso   1.000  C
  C97      1.0000 0.70970  0.00000  0.66820  Biso   1.000  C
  Nd4      1.0000 0.28041  0.50000  0.47851  Biso   1.000  Nd
  O31      1.0000 0.32070  0.50000  0.19210  Biso   1.000  O
  O32      1.0000 0.23250  0.50000  0.15890  Biso   1.000  O
  N4       1.0000 0.45358  0.50000  0.10130  Biso   1.000  N
  C98      1.0000 0.34920  0.50000  0.32200  Biso   1.000  C
  C99      1.0000 0.17452  0.50000  0.76190  Biso   1.000  C
  C100     1.0000 0.20970  0.50000  0.66820  Biso   1.000  C
  Cu1      1.0000 0.00000  0.00000  0.00000  Biso   1.000  Cu
  Cu2      1.0000 0.50000  0.50000  0.00000  Biso   1.000  Cu
