data_image0
_cell_length_a       27.63
_cell_length_b       13.8118
_cell_length_c       17.3604
_cell_angle_alpha    90
_cell_angle_beta     99.316
_cell_angle_gamma    90

_symmetry_space_group_name_H-M    "P 1"
_symmetry_int_tables_number       1

loop_
  _symmetry_equiv_pos_as_xyz
  'x, y, z'

loop_
  _atom_site_label
  _atom_site_occupancy
  _atom_site_fract_x
  _atom_site_fract_y
  _atom_site_fract_z
  _atom_site_thermal_displace_type
  _atom_site_B_iso_or_equiv
  _atom_site_type_symbol
  W1       1.0000 0.63971  0.45005  0.62301  Biso   1.000  W
  Cu1      1.0000 0.68901  0.28035  0.62181  Biso   1.000  Cu
  Cu2      1.0000 0.58944  0.38682  0.73645  Biso   1.000  Cu
  Cu3      1.0000 0.71143  0.51308  0.73649  Biso   1.000  Cu
  S1       1.0000 0.72128  0.43395  0.62383  Biso   1.000  S
  S2       1.0000 0.60612  0.30232  0.62859  Biso   1.000  S
  S3       1.0000 0.62799  0.53490  0.72956  Biso   1.000  S
  N1       1.0000 0.52290  0.39880  0.75170  Biso   1.000  N
  C1       1.0000 0.51820  0.38650  0.74300  Biso   1.000  C
  N2       1.0000 0.76026  0.08200  0.16850  Biso   1.000  N
  N3       1.0000 0.74851  0.12360  0.72140  Biso   1.000  N
  N4       1.0000 0.68093  0.22450  0.50610  Biso   1.000  N
  N5       1.0000 0.62394  0.31080  0.83460  Biso   1.000  N
  C2       1.0000 0.72523  0.18130  0.68490  Biso   1.000  C
  C3       1.0000 0.65810  0.24500  0.82870  Biso   1.000  C
  H1       1.0000 0.66460  0.22950  0.77800  Biso   1.000  H
  C4       1.0000 0.70118  0.20040  0.11270  Biso   1.000  C
  H2       1.0000 0.67960  0.25140  0.12110  Biso   1.000  H
  C5       1.0000 0.68485  0.19740  0.89160  Biso   1.000  C
  H3       1.0000 0.70910  0.15140  0.88380  Biso   1.000  H
  C6       1.0000 0.63212  0.11180  0.27690  Biso   1.000  C
  C7       1.0000 0.64260  0.01710  0.25670  Biso   1.000  C
  H4       1.0000 0.66130  0.97590  0.29410  Biso   1.000  H
  C8       1.0000 0.67593  0.21760  0.96670  Biso   1.000  C
  C9       1.0000 0.72936  0.15380  0.17520  Biso   1.000  C
  H5       1.0000 0.72630  0.17480  0.22630  Biso   1.000  H
  C10      1.0000 0.64964  0.15140  0.35550  Biso   1.000  C
  C11      1.0000 0.76470  0.05510  0.09590  Biso   1.000  C
  H6       1.0000 0.78740  0.00540  0.08950  Biso   1.000  H
  C12      1.0000 0.70521  0.17050  0.03670  Biso   1.000  C
  C13      1.0000 0.65390  0.09140  0.42180  Biso   1.000  C
  H7       1.0000 0.64600  0.02450  0.41670  Biso   1.000  H
  C14      1.0000 0.73770  0.09600  0.02920  Biso   1.000  C
  H8       1.0000 0.74160  0.07310  0.97900  Biso   1.000  H
  C15      1.0000 0.67770  0.28090  0.44250  Biso   1.000  C
  H9       1.0000 0.68630  0.34720  0.44930  Biso   1.000  H
  C16      1.0000 0.64030  0.28560  0.97280  Biso   1.000  C
  H10      1.0000 0.63310  0.30280  0.02270  Biso   1.000  H
  C17      1.0000 0.66250  0.24710  0.36770  Biso   1.000  C
  H11      1.0000 0.66080  0.29000  0.32450  Biso   1.000  H
  C18      1.0000 0.62580  0.98340  0.18200  Biso   1.000  C
  H12      1.0000 0.63370  0.91900  0.16940  Biso   1.000  H
  C19      1.0000 0.60460  0.16730  0.21870  Biso   1.000  C
  H13      1.0000 0.59640  0.23240  0.22890  Biso   1.000  H
  C20      1.0000 0.58930  0.12690  0.14610  Biso   1.000  C
  H14      1.0000 0.57060  0.16610  0.10730  Biso   1.000  H
  C21      1.0000 0.61500  0.32930  0.90620  Biso   1.000  C
  H15      1.0000 0.58990  0.37460  0.91210  Biso   1.000  H
  N6       1.0000 0.59920  0.03670  0.12720  Biso   1.000  N
  C22      1.0000 0.66950  0.13110  0.49400  Biso   1.000  C
  H16      1.0000 0.67250  0.08960  0.53810  Biso   1.000  H
  W2       1.0000 0.13971  0.95005  0.62301  Biso   1.000  W
  Cu4      1.0000 0.18901  0.78035  0.62181  Biso   1.000  Cu
  Cu5      1.0000 0.08944  0.88682  0.73645  Biso   1.000  Cu
  Cu6      1.0000 0.21143  0.01308  0.73649  Biso   1.000  Cu
  S4       1.0000 0.22128  0.93395  0.62383  Biso   1.000  S
  S5       1.0000 0.10612  0.80232  0.62859  Biso   1.000  S
  S6       1.0000 0.12799  0.03490  0.72956  Biso   1.000  S
  N7       1.0000 0.02290  0.89880  0.75170  Biso   1.000  N
  C23      1.0000 0.01820  0.88650  0.74300  Biso   1.000  C
  N8       1.0000 0.26026  0.58200  0.16850  Biso   1.000  N
  N9       1.0000 0.24851  0.62360  0.72140  Biso   1.000  N
  N10      1.0000 0.18093  0.72450  0.50610  Biso   1.000  N
  N11      1.0000 0.12394  0.81080  0.83460  Biso   1.000  N
  C24      1.0000 0.22523  0.68130  0.68490  Biso   1.000  C
  C25      1.0000 0.15810  0.74500  0.82870  Biso   1.000  C
  H17      1.0000 0.16460  0.72950  0.77800  Biso   1.000  H
  C26      1.0000 0.20118  0.70040  0.11270  Biso   1.000  C
  H18      1.0000 0.17960  0.75140  0.12110  Biso   1.000  H
  C27      1.0000 0.18485  0.69740  0.89160  Biso   1.000  C
  H19      1.0000 0.20910  0.65140  0.88380  Biso   1.000  H
  C28      1.0000 0.13212  0.61180  0.27690  Biso   1.000  C
  C29      1.0000 0.14260  0.51710  0.25670  Biso   1.000  C
  H20      1.0000 0.16130  0.47590  0.29410  Biso   1.000  H
  C30      1.0000 0.17593  0.71760  0.96670  Biso   1.000  C
  C31      1.0000 0.22936  0.65380  0.17520  Biso   1.000  C
  H21      1.0000 0.22630  0.67480  0.22630  Biso   1.000  H
  C32      1.0000 0.14964  0.65140  0.35550  Biso   1.000  C
  C33      1.0000 0.26470  0.55510  0.09590  Biso   1.000  C
  H22      1.0000 0.28740  0.50540  0.08950  Biso   1.000  H
  C34      1.0000 0.20521  0.67050  0.03670  Biso   1.000  C
  C35      1.0000 0.15390  0.59140  0.42180  Biso   1.000  C
  H23      1.0000 0.14600  0.52450  0.41670  Biso   1.000  H
  C36      1.0000 0.23770  0.59600  0.02920  Biso   1.000  C
  H24      1.0000 0.24160  0.57310  0.97900  Biso   1.000  H
  C37      1.0000 0.17770  0.78090  0.44250  Biso   1.000  C
  H25      1.0000 0.18630  0.84720  0.44930  Biso   1.000  H
  C38      1.0000 0.14030  0.78560  0.97280  Biso   1.000  C
  H26      1.0000 0.13310  0.80280  0.02270  Biso   1.000  H
  C39      1.0000 0.16250  0.74710  0.36770  Biso   1.000  C
  H27      1.0000 0.16080  0.79000  0.32450  Biso   1.000  H
  C40      1.0000 0.12580  0.48340  0.18200  Biso   1.000  C
  H28      1.0000 0.13370  0.41900  0.16940  Biso   1.000  H
  C41      1.0000 0.10460  0.66730  0.21870  Biso   1.000  C
  H29      1.0000 0.09640  0.73240  0.22890  Biso   1.000  H
  C42      1.0000 0.08930  0.62690  0.14610  Biso   1.000  C
  H30      1.0000 0.07060  0.66610  0.10730  Biso   1.000  H
  C43      1.0000 0.11500  0.82930  0.90620  Biso   1.000  C
  H31      1.0000 0.08990  0.87460  0.91210  Biso   1.000  H
  N12      1.0000 0.09920  0.53670  0.12720  Biso   1.000  N
  C44      1.0000 0.16950  0.63110  0.49400  Biso   1.000  C
  H32      1.0000 0.17250  0.58960  0.53810  Biso   1.000  H
  W3       1.0000 0.36029  0.45005  0.87699  Biso   1.000  W
  Cu7      1.0000 0.31099  0.28035  0.87819  Biso   1.000  Cu
  Cu8      1.0000 0.41056  0.38682  0.76355  Biso   1.000  Cu
  Cu9      1.0000 0.28857  0.51308  0.76351  Biso   1.000  Cu
  S7       1.0000 0.27872  0.43395  0.87617  Biso   1.000  S
  S8       1.0000 0.39388  0.30232  0.87141  Biso   1.000  S
  S9       1.0000 0.37201  0.53490  0.77044  Biso   1.000  S
  N13      1.0000 0.47710  0.39880  0.74830  Biso   1.000  N
  C45      1.0000 0.48180  0.38650  0.75700  Biso   1.000  C
  N14      1.0000 0.23974  0.08200  0.33150  Biso   1.000  N
  N15      1.0000 0.25149  0.12360  0.77860  Biso   1.000  N
  N16      1.0000 0.31907  0.22450  0.99390  Biso   1.000  N
  N17      1.0000 0.37606  0.31080  0.66540  Biso   1.000  N
  C46      1.0000 0.27477  0.18130  0.81510  Biso   1.000  C
  C47      1.0000 0.34190  0.24500  0.67130  Biso   1.000  C
  H33      1.0000 0.33540  0.22950  0.72200  Biso   1.000  H
  C48      1.0000 0.29882  0.20040  0.38730  Biso   1.000  C
  H34      1.0000 0.32040  0.25140  0.37890  Biso   1.000  H
  C49      1.0000 0.31515  0.19740  0.60840  Biso   1.000  C
  H35      1.0000 0.29090  0.15140  0.61620  Biso   1.000  H
  C50      1.0000 0.36788  0.11180  0.22310  Biso   1.000  C
  C51      1.0000 0.35740  0.01710  0.24330  Biso   1.000  C
  H36      1.0000 0.33870  0.97590  0.20590  Biso   1.000  H
  C52      1.0000 0.32407  0.21760  0.53330  Biso   1.000  C
  C53      1.0000 0.27064  0.15380  0.32480  Biso   1.000  C
  H37      1.0000 0.27370  0.17480  0.27370  Biso   1.000  H
  C54      1.0000 0.35036  0.15140  0.14450  Biso   1.000  C
  C55      1.0000 0.23530  0.05510  0.40410  Biso   1.000  C
  H38      1.0000 0.21260  0.00540  0.41050  Biso   1.000  H
  C56      1.0000 0.29479  0.17050  0.46330  Biso   1.000  C
  C57      1.0000 0.34610  0.09140  0.07820  Biso   1.000  C
  H39      1.0000 0.35400  0.02450  0.08330  Biso   1.000  H
  C58      1.0000 0.26230  0.09600  0.47080  Biso   1.000  C
  H40      1.0000 0.25840  0.07310  0.52100  Biso   1.000  H
  C59      1.0000 0.32230  0.28090  0.05750  Biso   1.000  C
  H41      1.0000 0.31370  0.34720  0.05070  Biso   1.000  H
  C60      1.0000 0.35970  0.28560  0.52720  Biso   1.000  C
  H42      1.0000 0.36690  0.30280  0.47730  Biso   1.000  H
  C61      1.0000 0.33750  0.24710  0.13230  Biso   1.000  C
  H43      1.0000 0.33920  0.29000  0.17550  Biso   1.000  H
  C62      1.0000 0.37420  0.98340  0.31800  Biso   1.000  C
  H44      1.0000 0.36630  0.91900  0.33060  Biso   1.000  H
  C63      1.0000 0.39540  0.16730  0.28130  Biso   1.000  C
  H45      1.0000 0.40360  0.23240  0.27110  Biso   1.000  H
  C64      1.0000 0.41070  0.12690  0.35390  Biso   1.000  C
  H46      1.0000 0.42940  0.16610  0.39270  Biso   1.000  H
  C65      1.0000 0.38500  0.32930  0.59380  Biso   1.000  C
  H47      1.0000 0.41010  0.37460  0.58790  Biso   1.000  H
  N18      1.0000 0.40080  0.03670  0.37280  Biso   1.000  N
  C66      1.0000 0.33050  0.13110  0.00600  Biso   1.000  C
  H48      1.0000 0.32750  0.08960  0.96190  Biso   1.000  H
  W4       1.0000 0.86029  0.95005  0.87699  Biso   1.000  W
  Cu10     1.0000 0.81099  0.78035  0.87819  Biso   1.000  Cu
  Cu11     1.0000 0.91056  0.88682  0.76355  Biso   1.000  Cu
  Cu12     1.0000 0.78857  0.01308  0.76351  Biso   1.000  Cu
  S10      1.0000 0.77872  0.93395  0.87617  Biso   1.000  S
  S11      1.0000 0.89388  0.80232  0.87141  Biso   1.000  S
  S12      1.0000 0.87201  0.03490  0.77044  Biso   1.000  S
  N19      1.0000 0.97710  0.89880  0.74830  Biso   1.000  N
  C67      1.0000 0.98180  0.88650  0.75700  Biso   1.000  C
  N20      1.0000 0.73974  0.58200  0.33150  Biso   1.000  N
  N21      1.0000 0.75149  0.62360  0.77860  Biso   1.000  N
  N22      1.0000 0.81907  0.72450  0.99390  Biso   1.000  N
  N23      1.0000 0.87606  0.81080  0.66540  Biso   1.000  N
  C68      1.0000 0.77477  0.68130  0.81510  Biso   1.000  C
  C69      1.0000 0.84190  0.74500  0.67130  Biso   1.000  C
  H49      1.0000 0.83540  0.72950  0.72200  Biso   1.000  H
  C70      1.0000 0.79882  0.70040  0.38730  Biso   1.000  C
  H50      1.0000 0.82040  0.75140  0.37890  Biso   1.000  H
  C71      1.0000 0.81515  0.69740  0.60840  Biso   1.000  C
  H51      1.0000 0.79090  0.65140  0.61620  Biso   1.000  H
  C72      1.0000 0.86788  0.61180  0.22310  Biso   1.000  C
  C73      1.0000 0.85740  0.51710  0.24330  Biso   1.000  C
  H52      1.0000 0.83870  0.47590  0.20590  Biso   1.000  H
  C74      1.0000 0.82407  0.71760  0.53330  Biso   1.000  C
  C75      1.0000 0.77064  0.65380  0.32480  Biso   1.000  C
  H53      1.0000 0.77370  0.67480  0.27370  Biso   1.000  H
  C76      1.0000 0.85036  0.65140  0.14450  Biso   1.000  C
  C77      1.0000 0.73530  0.55510  0.40410  Biso   1.000  C
  H54      1.0000 0.71260  0.50540  0.41050  Biso   1.000  H
  C78      1.0000 0.79479  0.67050  0.46330  Biso   1.000  C
  C79      1.0000 0.84610  0.59140  0.07820  Biso   1.000  C
  H55      1.0000 0.85400  0.52450  0.08330  Biso   1.000  H
  C80      1.0000 0.76230  0.59600  0.47080  Biso   1.000  C
  H56      1.0000 0.75840  0.57310  0.52100  Biso   1.000  H
  C81      1.0000 0.82230  0.78090  0.05750  Biso   1.000  C
  H57      1.0000 0.81370  0.84720  0.05070  Biso   1.000  H
  C82      1.0000 0.85970  0.78560  0.52720  Biso   1.000  C
  H58      1.0000 0.86690  0.80280  0.47730  Biso   1.000  H
  C83      1.0000 0.83750  0.74710  0.13230  Biso   1.000  C
  H59      1.0000 0.83920  0.79000  0.17550  Biso   1.000  H
  C84      1.0000 0.87420  0.48340  0.31800  Biso   1.000  C
  H60      1.0000 0.86630  0.41900  0.33060  Biso   1.000  H
  C85      1.0000 0.89540  0.66730  0.28130  Biso   1.000  C
  H61      1.0000 0.90360  0.73240  0.27110  Biso   1.000  H
  C86      1.0000 0.91070  0.62690  0.35390  Biso   1.000  C
  H62      1.0000 0.92940  0.66610  0.39270  Biso   1.000  H
  C87      1.0000 0.88500  0.82930  0.59380  Biso   1.000  C
  H63      1.0000 0.91010  0.87460  0.58790  Biso   1.000  H
  N24      1.0000 0.90080  0.53670  0.37280  Biso   1.000  N
  C88      1.0000 0.83050  0.63110  0.00600  Biso   1.000  C
  H64      1.0000 0.82750  0.58960  0.96190  Biso   1.000  H
  W5       1.0000 0.36029  0.54995  0.37699  Biso   1.000  W
  Cu13     1.0000 0.31099  0.71965  0.37819  Biso   1.000  Cu
  Cu14     1.0000 0.41056  0.61318  0.26355  Biso   1.000  Cu
  Cu15     1.0000 0.28857  0.48692  0.26351  Biso   1.000  Cu
  S13      1.0000 0.27872  0.56605  0.37617  Biso   1.000  S
  S14      1.0000 0.39388  0.69768  0.37141  Biso   1.000  S
  S15      1.0000 0.37201  0.46510  0.27044  Biso   1.000  S
  N25      1.0000 0.47710  0.60120  0.24830  Biso   1.000  N
  C89      1.0000 0.48180  0.61350  0.25700  Biso   1.000  C
  N26      1.0000 0.23974  0.91800  0.83150  Biso   1.000  N
  N27      1.0000 0.25149  0.87640  0.27860  Biso   1.000  N
  N28      1.0000 0.31907  0.77550  0.49390  Biso   1.000  N
  N29      1.0000 0.37606  0.68920  0.16540  Biso   1.000  N
  C90      1.0000 0.27477  0.81870  0.31510  Biso   1.000  C
  C91      1.0000 0.34190  0.75500  0.17130  Biso   1.000  C
  H65      1.0000 0.33540  0.77050  0.22200  Biso   1.000  H
  C92      1.0000 0.29882  0.79960  0.88730  Biso   1.000  C
  H66      1.0000 0.32040  0.74860  0.87890  Biso   1.000  H
  C93      1.0000 0.31515  0.80260  0.10840  Biso   1.000  C
  H67      1.0000 0.29090  0.84860  0.11620  Biso   1.000  H
  C94      1.0000 0.36788  0.88820  0.72310  Biso   1.000  C
  C95      1.0000 0.35740  0.98290  0.74330  Biso   1.000  C
  H68      1.0000 0.33870  0.02410  0.70590  Biso   1.000  H
  C96      1.0000 0.32407  0.78240  0.03330  Biso   1.000  C
  C97      1.0000 0.27064  0.84620  0.82480  Biso   1.000  C
  H69      1.0000 0.27370  0.82520  0.77370  Biso   1.000  H
  C98      1.0000 0.35036  0.84860  0.64450  Biso   1.000  C
  C99      1.0000 0.23530  0.94490  0.90410  Biso   1.000  C
  H70      1.0000 0.21260  0.99460  0.91050  Biso   1.000  H
  C100     1.0000 0.29479  0.82950  0.96330  Biso   1.000  C
  C101     1.0000 0.34610  0.90860  0.57820  Biso   1.000  C
  H71      1.0000 0.35400  0.97550  0.58330  Biso   1.000  H
  C102     1.0000 0.26230  0.90400  0.97080  Biso   1.000  C
  H72      1.0000 0.25840  0.92690  0.02100  Biso   1.000  H
  C103     1.0000 0.32230  0.71910  0.55750  Biso   1.000  C
  H73      1.0000 0.31370  0.65280  0.55070  Biso   1.000  H
  C104     1.0000 0.35970  0.71440  0.02720  Biso   1.000  C
  H74      1.0000 0.36690  0.69720  0.97730  Biso   1.000  H
  C105     1.0000 0.33750  0.75290  0.63230  Biso   1.000  C
  H75      1.0000 0.33920  0.71000  0.67550  Biso   1.000  H
  C106     1.0000 0.37420  0.01660  0.81800  Biso   1.000  C
  H76      1.0000 0.36630  0.08100  0.83060  Biso   1.000  H
  C107     1.0000 0.39540  0.83270  0.78130  Biso   1.000  C
  H77      1.0000 0.40360  0.76760  0.77110  Biso   1.000  H
  C108     1.0000 0.41070  0.87310  0.85390  Biso   1.000  C
  H78      1.0000 0.42940  0.83390  0.89270  Biso   1.000  H
  C109     1.0000 0.38500  0.67070  0.09380  Biso   1.000  C
  H79      1.0000 0.41010  0.62540  0.08790  Biso   1.000  H
  N30      1.0000 0.40080  0.96330  0.87280  Biso   1.000  N
  C110     1.0000 0.33050  0.86890  0.50600  Biso   1.000  C
  H80      1.0000 0.32750  0.91040  0.46190  Biso   1.000  H
  W6       1.0000 0.86029  0.04995  0.37699  Biso   1.000  W
  Cu16     1.0000 0.81099  0.21965  0.37819  Biso   1.000  Cu
  Cu17     1.0000 0.91056  0.11318  0.26355  Biso   1.000  Cu
  Cu18     1.0000 0.78857  0.98692  0.26351  Biso   1.000  Cu
  S16      1.0000 0.77872  0.06605  0.37617  Biso   1.000  S
  S17      1.0000 0.89388  0.19768  0.37141  Biso   1.000  S
  S18      1.0000 0.87201  0.96510  0.27044  Biso   1.000  S
  N31      1.0000 0.97710  0.10120  0.24830  Biso   1.000  N
  C111     1.0000 0.98180  0.11350  0.25700  Biso   1.000  C
  N32      1.0000 0.73974  0.41800  0.83150  Biso   1.000  N
  N33      1.0000 0.75149  0.37640  0.27860  Biso   1.000  N
  N34      1.0000 0.81907  0.27550  0.49390  Biso   1.000  N
  N35      1.0000 0.87606  0.18920  0.16540  Biso   1.000  N
  C112     1.0000 0.77477  0.31870  0.31510  Biso   1.000  C
  C113     1.0000 0.84190  0.25500  0.17130  Biso   1.000  C
  H81      1.0000 0.83540  0.27050  0.22200  Biso   1.000  H
  C114     1.0000 0.79882  0.29960  0.88730  Biso   1.000  C
  H82      1.0000 0.82040  0.24860  0.87890  Biso   1.000  H
  C115     1.0000 0.81515  0.30260  0.10840  Biso   1.000  C
  H83      1.0000 0.79090  0.34860  0.11620  Biso   1.000  H
  C116     1.0000 0.86788  0.38820  0.72310  Biso   1.000  C
  C117     1.0000 0.85740  0.48290  0.74330  Biso   1.000  C
  H84      1.0000 0.83870  0.52410  0.70590  Biso   1.000  H
  C118     1.0000 0.82407  0.28240  0.03330  Biso   1.000  C
  C119     1.0000 0.77064  0.34620  0.82480  Biso   1.000  C
  H85      1.0000 0.77370  0.32520  0.77370  Biso   1.000  H
  C120     1.0000 0.85036  0.34860  0.64450  Biso   1.000  C
  C121     1.0000 0.73530  0.44490  0.90410  Biso   1.000  C
  H86      1.0000 0.71260  0.49460  0.91050  Biso   1.000  H
  C122     1.0000 0.79479  0.32950  0.96330  Biso   1.000  C
  C123     1.0000 0.84610  0.40860  0.57820  Biso   1.000  C
  H87      1.0000 0.85400  0.47550  0.58330  Biso   1.000  H
  C124     1.0000 0.76230  0.40400  0.97080  Biso   1.000  C
  H88      1.0000 0.75840  0.42690  0.02100  Biso   1.000  H
  C125     1.0000 0.82230  0.21910  0.55750  Biso   1.000  C
  H89      1.0000 0.81370  0.15280  0.55070  Biso   1.000  H
  C126     1.0000 0.85970  0.21440  0.02720  Biso   1.000  C
  H90      1.0000 0.86690  0.19720  0.97730  Biso   1.000  H
  C127     1.0000 0.83750  0.25290  0.63230  Biso   1.000  C
  H91      1.0000 0.83920  0.21000  0.67550  Biso   1.000  H
  C128     1.0000 0.87420  0.51660  0.81800  Biso   1.000  C
  H92      1.0000 0.86630  0.58100  0.83060  Biso   1.000  H
  C129     1.0000 0.89540  0.33270  0.78130  Biso   1.000  C
  H93      1.0000 0.90360  0.26760  0.77110  Biso   1.000  H
  C130     1.0000 0.91070  0.37310  0.85390  Biso   1.000  C
  H94      1.0000 0.92940  0.33390  0.89270  Biso   1.000  H
  C131     1.0000 0.88500  0.17070  0.09380  Biso   1.000  C
  H95      1.0000 0.91010  0.12540  0.08790  Biso   1.000  H
  N36      1.0000 0.90080  0.46330  0.87280  Biso   1.000  N
  C132     1.0000 0.83050  0.36890  0.50600  Biso   1.000  C
  H96      1.0000 0.82750  0.41040  0.46190  Biso   1.000  H
  W7       1.0000 0.63971  0.54995  0.12301  Biso   1.000  W
  Cu19     1.0000 0.68901  0.71965  0.12181  Biso   1.000  Cu
  Cu20     1.0000 0.58944  0.61318  0.23645  Biso   1.000  Cu
  Cu21     1.0000 0.71143  0.48692  0.23649  Biso   1.000  Cu
  S19      1.0000 0.72128  0.56605  0.12383  Biso   1.000  S
  S20      1.0000 0.60612  0.69768  0.12859  Biso   1.000  S
  S21      1.0000 0.62799  0.46510  0.22956  Biso   1.000  S
  N37      1.0000 0.52290  0.60120  0.25170  Biso   1.000  N
  C133     1.0000 0.51820  0.61350  0.24300  Biso   1.000  C
  N38      1.0000 0.76026  0.91800  0.66850  Biso   1.000  N
  N39      1.0000 0.74851  0.87640  0.22140  Biso   1.000  N
  N40      1.0000 0.68093  0.77550  0.00610  Biso   1.000  N
  N41      1.0000 0.62394  0.68920  0.33460  Biso   1.000  N
  C134     1.0000 0.72523  0.81870  0.18490  Biso   1.000  C
  C135     1.0000 0.65810  0.75500  0.32870  Biso   1.000  C
  H97      1.0000 0.66460  0.77050  0.27800  Biso   1.000  H
  C136     1.0000 0.70118  0.79960  0.61270  Biso   1.000  C
  H98      1.0000 0.67960  0.74860  0.62110  Biso   1.000  H
  C137     1.0000 0.68485  0.80260  0.39160  Biso   1.000  C
  H99      1.0000 0.70910  0.84860  0.38380  Biso   1.000  H
  C138     1.0000 0.63212  0.88820  0.77690  Biso   1.000  C
  C139     1.0000 0.64260  0.98290  0.75670  Biso   1.000  C
  H100     1.0000 0.66130  0.02410  0.79410  Biso   1.000  H
  C140     1.0000 0.67593  0.78240  0.46670  Biso   1.000  C
  C141     1.0000 0.72936  0.84620  0.67520  Biso   1.000  C
  H101     1.0000 0.72630  0.82520  0.72630  Biso   1.000  H
  C142     1.0000 0.64964  0.84860  0.85550  Biso   1.000  C
  C143     1.0000 0.76470  0.94490  0.59590  Biso   1.000  C
  H102     1.0000 0.78740  0.99460  0.58950  Biso   1.000  H
  C144     1.0000 0.70521  0.82950  0.53670  Biso   1.000  C
  C145     1.0000 0.65390  0.90860  0.92180  Biso   1.000  C
  H103     1.0000 0.64600  0.97550  0.91670  Biso   1.000  H
  C146     1.0000 0.73770  0.90400  0.52920  Biso   1.000  C
  H104     1.0000 0.74160  0.92690  0.47900  Biso   1.000  H
  C147     1.0000 0.67770  0.71910  0.94250  Biso   1.000  C
  H105     1.0000 0.68630  0.65280  0.94930  Biso   1.000  H
  C148     1.0000 0.64030  0.71440  0.47280  Biso   1.000  C
  H106     1.0000 0.63310  0.69720  0.52270  Biso   1.000  H
  C149     1.0000 0.66250  0.75290  0.86770  Biso   1.000  C
  H107     1.0000 0.66080  0.71000  0.82450  Biso   1.000  H
  C150     1.0000 0.62580  0.01660  0.68200  Biso   1.000  C
  H108     1.0000 0.63370  0.08100  0.66940  Biso   1.000  H
  C151     1.0000 0.60460  0.83270  0.71870  Biso   1.000  C
  H109     1.0000 0.59640  0.76760  0.72890  Biso   1.000  H
  C152     1.0000 0.58930  0.87310  0.64610  Biso   1.000  C
  H110     1.0000 0.57060  0.83390  0.60730  Biso   1.000  H
  C153     1.0000 0.61500  0.67070  0.40620  Biso   1.000  C
  H111     1.0000 0.58990  0.62540  0.41210  Biso   1.000  H
  N42      1.0000 0.59920  0.96330  0.62720  Biso   1.000  N
  C154     1.0000 0.66950  0.86890  0.99400  Biso   1.000  C
  H112     1.0000 0.67250  0.91040  0.03810  Biso   1.000  H
  W8       1.0000 0.13971  0.04995  0.12301  Biso   1.000  W
  Cu22     1.0000 0.18901  0.21965  0.12181  Biso   1.000  Cu
  Cu23     1.0000 0.08944  0.11318  0.23645  Biso   1.000  Cu
  Cu24     1.0000 0.21143  0.98692  0.23649  Biso   1.000  Cu
  S22      1.0000 0.22128  0.06605  0.12383  Biso   1.000  S
  S23      1.0000 0.10612  0.19768  0.12859  Biso   1.000  S
  S24      1.0000 0.12799  0.96510  0.22956  Biso   1.000  S
  N43      1.0000 0.02290  0.10120  0.25170  Biso   1.000  N
  C155     1.0000 0.01820  0.11350  0.24300  Biso   1.000  C
  N44      1.0000 0.26026  0.41800  0.66850  Biso   1.000  N
  N45      1.0000 0.24851  0.37640  0.22140  Biso   1.000  N
  N46      1.0000 0.18093  0.27550  0.00610  Biso   1.000  N
  N47      1.0000 0.12394  0.18920  0.33460  Biso   1.000  N
  C156     1.0000 0.22523  0.31870  0.18490  Biso   1.000  C
  C157     1.0000 0.15810  0.25500  0.32870  Biso   1.000  C
  H113     1.0000 0.16460  0.27050  0.27800  Biso   1.000  H
  C158     1.0000 0.20118  0.29960  0.61270  Biso   1.000  C
  H114     1.0000 0.17960  0.24860  0.62110  Biso   1.000  H
  C159     1.0000 0.18485  0.30260  0.39160  Biso   1.000  C
  H115     1.0000 0.20910  0.34860  0.38380  Biso   1.000  H
  C160     1.0000 0.13212  0.38820  0.77690  Biso   1.000  C
  C161     1.0000 0.14260  0.48290  0.75670  Biso   1.000  C
  H116     1.0000 0.16130  0.52410  0.79410  Biso   1.000  H
  C162     1.0000 0.17593  0.28240  0.46670  Biso   1.000  C
  C163     1.0000 0.22936  0.34620  0.67520  Biso   1.000  C
  H117     1.0000 0.22630  0.32520  0.72630  Biso   1.000  H
  C164     1.0000 0.14964  0.34860  0.85550  Biso   1.000  C
  C165     1.0000 0.26470  0.44490  0.59590  Biso   1.000  C
  H118     1.0000 0.28740  0.49460  0.58950  Biso   1.000  H
  C166     1.0000 0.20521  0.32950  0.53670  Biso   1.000  C
  C167     1.0000 0.15390  0.40860  0.92180  Biso   1.000  C
  H119     1.0000 0.14600  0.47550  0.91670  Biso   1.000  H
  C168     1.0000 0.23770  0.40400  0.52920  Biso   1.000  C
  H120     1.0000 0.24160  0.42690  0.47900  Biso   1.000  H
  C169     1.0000 0.17770  0.21910  0.94250  Biso   1.000  C
  H121     1.0000 0.18630  0.15280  0.94930  Biso   1.000  H
  C170     1.0000 0.14030  0.21440  0.47280  Biso   1.000  C
  H122     1.0000 0.13310  0.19720  0.52270  Biso   1.000  H
  C171     1.0000 0.16250  0.25290  0.86770  Biso   1.000  C
  H123     1.0000 0.16080  0.21000  0.82450  Biso   1.000  H
  C172     1.0000 0.12580  0.51660  0.68200  Biso   1.000  C
  H124     1.0000 0.13370  0.58100  0.66940  Biso   1.000  H
  C173     1.0000 0.10460  0.33270  0.71870  Biso   1.000  C
  H125     1.0000 0.09640  0.26760  0.72890  Biso   1.000  H
  C174     1.0000 0.08930  0.37310  0.64610  Biso   1.000  C
  H126     1.0000 0.07060  0.33390  0.60730  Biso   1.000  H
  C175     1.0000 0.11500  0.17070  0.40620  Biso   1.000  C
  H127     1.0000 0.08990  0.12540  0.41210  Biso   1.000  H
  N48      1.0000 0.09920  0.46330  0.62720  Biso   1.000  N
  C176     1.0000 0.16950  0.36890  0.99400  Biso   1.000  C
  H128     1.0000 0.17250  0.41040  0.03810  Biso   1.000  H
