data_image0
_cell_length_a       27.72
_cell_length_b       13.3016
_cell_length_c       20.327
_cell_angle_alpha    90
_cell_angle_beta     96.448
_cell_angle_gamma    90

_symmetry_space_group_name_H-M    "P 1"
_symmetry_int_tables_number       1

loop_
  _symmetry_equiv_pos_as_xyz
  'x, y, z'

loop_
  _atom_site_label
  _atom_site_occupancy
  _atom_site_fract_x
  _atom_site_fract_y
  _atom_site_fract_z
  _atom_site_thermal_displace_type
  _atom_site_B_iso_or_equiv
  _atom_site_type_symbol
  W1       1.0000 0.85623  0.47097  0.85893  Biso   1.000  W
  Cu1      1.0000 0.91189  0.54475  0.76889  Biso   1.000  Cu
  Cu2      1.0000 0.80922  0.64932  0.86964  Biso   1.000  Cu
  Cu3      1.0000 0.78742  0.41981  0.75882  Biso   1.000  Cu
  S1       1.0000 0.87006  0.39461  0.76407  Biso   1.000  S
  S2       1.0000 0.77551  0.48961  0.85952  Biso   1.000  S
  S3       1.0000 0.89175  0.62348  0.86262  Biso   1.000  S
  N1       1.0000 0.75190  0.81160  0.78530  Biso   1.000  N
  N2       1.0000 0.81810  0.70730  0.96800  Biso   1.000  N
  N3       1.0000 0.90040  0.01590  0.38370  Biso   1.000  N
  N4       1.0000 0.88490  0.63500  0.69010  Biso   1.000  N
  N5       1.0000 0.73260  0.97240  0.31740  Biso   1.000  N
  C1       1.0000 0.80350  0.79910  0.98070  Biso   1.000  C
  H1       1.0000 0.78380  0.83470  0.94720  Biso   1.000  H
  C2       1.0000 0.84640  0.66020  0.01720  Biso   1.000  C
  H2       1.0000 0.85870  0.59530  0.00910  Biso   1.000  H
  C3       1.0000 0.85780  0.70340  0.07860  Biso   1.000  C
  H3       1.0000 0.87590  0.66440  0.11190  Biso   1.000  H
  C4       1.0000 0.84520  0.79500  0.09420  Biso   1.000  C
  C5       1.0000 0.77330  0.75290  0.81820  Biso   1.000  C
  C6       1.0000 0.89930  0.61890  0.62970  Biso   1.000  C
  H4       1.0000 0.92380  0.57020  0.62530  Biso   1.000  H
  C7       1.0000 0.85040  0.70310  0.69420  Biso   1.000  C
  H5       1.0000 0.83980  0.71530  0.73630  Biso   1.000  H
  C8       1.0000 0.82960  0.75620  0.64190  Biso   1.000  C
  H6       1.0000 0.80490  0.80390  0.64790  Biso   1.000  H
  C9       1.0000 0.84390  0.74140  0.58020  Biso   1.000  C
  C10      1.0000 0.76550  0.89910  0.31350  Biso   1.000  C
  H7       1.0000 0.77340  0.88000  0.27100  Biso   1.000  H
  C11      1.0000 0.72160  0.99270  0.37740  Biso   1.000  C
  H8       1.0000 0.69730  0.04190  0.38170  Biso   1.000  H
  N6       1.0000 0.98060  0.54110  0.75700  Biso   1.000  N
  C12      1.0000 0.97990  0.52200  0.75450  Biso   1.000  C
  C13      1.0000 0.74320  0.94710  0.43490  Biso   1.000  C
  H9       1.0000 0.73420  0.96690  0.47680  Biso   1.000  H
  C14      1.0000 0.91250  0.92380  0.36670  Biso   1.000  C
  H10      1.0000 0.93010  0.88300  0.39940  Biso   1.000  H
  C15      1.0000 0.86260  0.03350  0.27410  Biso   1.000  C
  H11      1.0000 0.83990  0.07390  0.24270  Biso   1.000  H
  C16      1.0000 0.87410  0.93800  0.25530  Biso   1.000  C
  C17      1.0000 0.86240  0.83250  0.16020  Biso   1.000  C
  H12      1.0000 0.88360  0.78710  0.18530  Biso   1.000  H
  C18      1.0000 0.81630  0.84590  0.04260  Biso   1.000  C
  H13      1.0000 0.80540  0.91230  0.04980  Biso   1.000  H
  C19      1.0000 0.90080  0.88290  0.30330  Biso   1.000  C
  H14      1.0000 0.91140  0.81720  0.29370  Biso   1.000  H
  C20      1.0000 0.85600  0.90380  0.18740  Biso   1.000  C
  H15      1.0000 0.83520  0.95050  0.16270  Biso   1.000  H
  C21      1.0000 0.77790  0.87270  0.43130  Biso   1.000  C
  C22      1.0000 0.88000  0.67040  0.57460  Biso   1.000  C
  H16      1.0000 0.89110  0.65760  0.53290  Biso   1.000  H
  C23      1.0000 0.68500  0.69810  0.52770  Biso   1.000  C
  C24      1.0000 0.79180  0.83930  0.50440  Biso   1.000  C
  C25      1.0000 0.78840  0.84980  0.36900  Biso   1.000  C
  H17      1.0000 0.81180  0.79930  0.36330  Biso   1.000  H
  C26      1.0000 0.86990  0.06500  0.34460  Biso   1.000  C
  C27      1.0000 0.88100  0.07600  0.32920  Biso   1.000  C
  C28      1.0000 0.83160  0.77890  0.51180  Biso   1.000  C
  C29      1.0000 0.80790  0.81390  0.53500  Biso   1.000  C
  W2       1.0000 0.35623  0.97097  0.85893  Biso   1.000  W
  Cu4      1.0000 0.41189  0.04475  0.76889  Biso   1.000  Cu
  Cu5      1.0000 0.30922  0.14932  0.86964  Biso   1.000  Cu
  Cu6      1.0000 0.28742  0.91981  0.75882  Biso   1.000  Cu
  S4       1.0000 0.37006  0.89461  0.76407  Biso   1.000  S
  S5       1.0000 0.27551  0.98961  0.85952  Biso   1.000  S
  S6       1.0000 0.39175  0.12348  0.86262  Biso   1.000  S
  N7       1.0000 0.25190  0.31160  0.78530  Biso   1.000  N
  N8       1.0000 0.31810  0.20730  0.96800  Biso   1.000  N
  N9       1.0000 0.40040  0.51590  0.38370  Biso   1.000  N
  N10      1.0000 0.38490  0.13500  0.69010  Biso   1.000  N
  N11      1.0000 0.23260  0.47240  0.31740  Biso   1.000  N
  C30      1.0000 0.30350  0.29910  0.98070  Biso   1.000  C
  H18      1.0000 0.28380  0.33470  0.94720  Biso   1.000  H
  C31      1.0000 0.34640  0.16020  0.01720  Biso   1.000  C
  H19      1.0000 0.35870  0.09530  0.00910  Biso   1.000  H
  C32      1.0000 0.35780  0.20340  0.07860  Biso   1.000  C
  H20      1.0000 0.37590  0.16440  0.11190  Biso   1.000  H
  C33      1.0000 0.34520  0.29500  0.09420  Biso   1.000  C
  C34      1.0000 0.27330  0.25290  0.81820  Biso   1.000  C
  C35      1.0000 0.39930  0.11890  0.62970  Biso   1.000  C
  H21      1.0000 0.42380  0.07020  0.62530  Biso   1.000  H
  C36      1.0000 0.35040  0.20310  0.69420  Biso   1.000  C
  H22      1.0000 0.33980  0.21530  0.73630  Biso   1.000  H
  C37      1.0000 0.32960  0.25620  0.64190  Biso   1.000  C
  H23      1.0000 0.30490  0.30390  0.64790  Biso   1.000  H
  C38      1.0000 0.34390  0.24140  0.58020  Biso   1.000  C
  C39      1.0000 0.26550  0.39910  0.31350  Biso   1.000  C
  H24      1.0000 0.27340  0.38000  0.27100  Biso   1.000  H
  C40      1.0000 0.22160  0.49270  0.37740  Biso   1.000  C
  H25      1.0000 0.19730  0.54190  0.38170  Biso   1.000  H
  N12      1.0000 0.48060  0.04110  0.75700  Biso   1.000  N
  C41      1.0000 0.47990  0.02200  0.75450  Biso   1.000  C
  C42      1.0000 0.24320  0.44710  0.43490  Biso   1.000  C
  H26      1.0000 0.23420  0.46690  0.47680  Biso   1.000  H
  C43      1.0000 0.41250  0.42380  0.36670  Biso   1.000  C
  H27      1.0000 0.43010  0.38300  0.39940  Biso   1.000  H
  C44      1.0000 0.36260  0.53350  0.27410  Biso   1.000  C
  H28      1.0000 0.33990  0.57390  0.24270  Biso   1.000  H
  C45      1.0000 0.37410  0.43800  0.25530  Biso   1.000  C
  C46      1.0000 0.36240  0.33250  0.16020  Biso   1.000  C
  H29      1.0000 0.38360  0.28710  0.18530  Biso   1.000  H
  C47      1.0000 0.31630  0.34590  0.04260  Biso   1.000  C
  H30      1.0000 0.30540  0.41230  0.04980  Biso   1.000  H
  C48      1.0000 0.40080  0.38290  0.30330  Biso   1.000  C
  H31      1.0000 0.41140  0.31720  0.29370  Biso   1.000  H
  C49      1.0000 0.35600  0.40380  0.18740  Biso   1.000  C
  H32      1.0000 0.33520  0.45050  0.16270  Biso   1.000  H
  C50      1.0000 0.27790  0.37270  0.43130  Biso   1.000  C
  C51      1.0000 0.38000  0.17040  0.57460  Biso   1.000  C
  H33      1.0000 0.39110  0.15760  0.53290  Biso   1.000  H
  C52      1.0000 0.18500  0.19810  0.52770  Biso   1.000  C
  C53      1.0000 0.29180  0.33930  0.50440  Biso   1.000  C
  C54      1.0000 0.28840  0.34980  0.36900  Biso   1.000  C
  H34      1.0000 0.31180  0.29930  0.36330  Biso   1.000  H
  C55      1.0000 0.36990  0.56500  0.34460  Biso   1.000  C
  C56      1.0000 0.38100  0.57600  0.32920  Biso   1.000  C
  C57      1.0000 0.33160  0.27890  0.51180  Biso   1.000  C
  C58      1.0000 0.30790  0.31390  0.53500  Biso   1.000  C
  W3       1.0000 0.14377  0.47097  0.64107  Biso   1.000  W
  Cu7      1.0000 0.08811  0.54475  0.73111  Biso   1.000  Cu
  Cu8      1.0000 0.19078  0.64932  0.63036  Biso   1.000  Cu
  Cu9      1.0000 0.21258  0.41981  0.74118  Biso   1.000  Cu
  S7       1.0000 0.12994  0.39461  0.73593  Biso   1.000  S
  S8       1.0000 0.22449  0.48961  0.64048  Biso   1.000  S
  S9       1.0000 0.10825  0.62348  0.63738  Biso   1.000  S
  N13      1.0000 0.24810  0.81160  0.71470  Biso   1.000  N
  N14      1.0000 0.18190  0.70730  0.53200  Biso   1.000  N
  N15      1.0000 0.09960  0.01590  0.11630  Biso   1.000  N
  N16      1.0000 0.11510  0.63500  0.80990  Biso   1.000  N
  N17      1.0000 0.26740  0.97240  0.18260  Biso   1.000  N
  C59      1.0000 0.19650  0.79910  0.51930  Biso   1.000  C
  H35      1.0000 0.21620  0.83470  0.55280  Biso   1.000  H
  C60      1.0000 0.15360  0.66020  0.48280  Biso   1.000  C
  H36      1.0000 0.14130  0.59530  0.49090  Biso   1.000  H
  C61      1.0000 0.14220  0.70340  0.42140  Biso   1.000  C
  H37      1.0000 0.12410  0.66440  0.38810  Biso   1.000  H
  C62      1.0000 0.15480  0.79500  0.40580  Biso   1.000  C
  C63      1.0000 0.22670  0.75290  0.68180  Biso   1.000  C
  C64      1.0000 0.10070  0.61890  0.87030  Biso   1.000  C
  H38      1.0000 0.07620  0.57020  0.87470  Biso   1.000  H
  C65      1.0000 0.14960  0.70310  0.80580  Biso   1.000  C
  H39      1.0000 0.16020  0.71530  0.76370  Biso   1.000  H
  C66      1.0000 0.17040  0.75620  0.85810  Biso   1.000  C
  H40      1.0000 0.19510  0.80390  0.85210  Biso   1.000  H
  C67      1.0000 0.15610  0.74140  0.91980  Biso   1.000  C
  C68      1.0000 0.23450  0.89910  0.18650  Biso   1.000  C
  H41      1.0000 0.22660  0.88000  0.22900  Biso   1.000  H
  C69      1.0000 0.27840  0.99270  0.12260  Biso   1.000  C
  H42      1.0000 0.30270  0.04190  0.11830  Biso   1.000  H
  N18      1.0000 0.01940  0.54110  0.74300  Biso   1.000  N
  C70      1.0000 0.02010  0.52200  0.74550  Biso   1.000  C
  C71      1.0000 0.25680  0.94710  0.06510  Biso   1.000  C
  H43      1.0000 0.26580  0.96690  0.02320  Biso   1.000  H
  C72      1.0000 0.08750  0.92380  0.13330  Biso   1.000  C
  H44      1.0000 0.06990  0.88300  0.10060  Biso   1.000  H
  C73      1.0000 0.13740  0.03350  0.22590  Biso   1.000  C
  H45      1.0000 0.16010  0.07390  0.25730  Biso   1.000  H
  C74      1.0000 0.12590  0.93800  0.24470  Biso   1.000  C
  C75      1.0000 0.13760  0.83250  0.33980  Biso   1.000  C
  H46      1.0000 0.11640  0.78710  0.31470  Biso   1.000  H
  C76      1.0000 0.18370  0.84590  0.45740  Biso   1.000  C
  H47      1.0000 0.19460  0.91230  0.45020  Biso   1.000  H
  C77      1.0000 0.09920  0.88290  0.19670  Biso   1.000  C
  H48      1.0000 0.08860  0.81720  0.20630  Biso   1.000  H
  C78      1.0000 0.14400  0.90380  0.31260  Biso   1.000  C
  H49      1.0000 0.16480  0.95050  0.33730  Biso   1.000  H
  C79      1.0000 0.22210  0.87270  0.06870  Biso   1.000  C
  C80      1.0000 0.12000  0.67040  0.92540  Biso   1.000  C
  H50      1.0000 0.10890  0.65760  0.96710  Biso   1.000  H
  C81      1.0000 0.31500  0.69810  0.97230  Biso   1.000  C
  C82      1.0000 0.20820  0.83930  0.99560  Biso   1.000  C
  C83      1.0000 0.21160  0.84980  0.13100  Biso   1.000  C
  H51      1.0000 0.18820  0.79930  0.13670  Biso   1.000  H
  C84      1.0000 0.13010  0.06500  0.15540  Biso   1.000  C
  C85      1.0000 0.11900  0.07600  0.17080  Biso   1.000  C
  C86      1.0000 0.16840  0.77890  0.98820  Biso   1.000  C
  C87      1.0000 0.19210  0.81390  0.96500  Biso   1.000  C
  W4       1.0000 0.64377  0.97097  0.64107  Biso   1.000  W
  Cu10     1.0000 0.58811  0.04475  0.73111  Biso   1.000  Cu
  Cu11     1.0000 0.69078  0.14932  0.63036  Biso   1.000  Cu
  Cu12     1.0000 0.71258  0.91981  0.74118  Biso   1.000  Cu
  S10      1.0000 0.62994  0.89461  0.73593  Biso   1.000  S
  S11      1.0000 0.72449  0.98961  0.64048  Biso   1.000  S
  S12      1.0000 0.60825  0.12348  0.63738  Biso   1.000  S
  N19      1.0000 0.74810  0.31160  0.71470  Biso   1.000  N
  N20      1.0000 0.68190  0.20730  0.53200  Biso   1.000  N
  N21      1.0000 0.59960  0.51590  0.11630  Biso   1.000  N
  N22      1.0000 0.61510  0.13500  0.80990  Biso   1.000  N
  N23      1.0000 0.76740  0.47240  0.18260  Biso   1.000  N
  C88      1.0000 0.69650  0.29910  0.51930  Biso   1.000  C
  H52      1.0000 0.71620  0.33470  0.55280  Biso   1.000  H
  C89      1.0000 0.65360  0.16020  0.48280  Biso   1.000  C
  H53      1.0000 0.64130  0.09530  0.49090  Biso   1.000  H
  C90      1.0000 0.64220  0.20340  0.42140  Biso   1.000  C
  H54      1.0000 0.62410  0.16440  0.38810  Biso   1.000  H
  C91      1.0000 0.65480  0.29500  0.40580  Biso   1.000  C
  C92      1.0000 0.72670  0.25290  0.68180  Biso   1.000  C
  C93      1.0000 0.60070  0.11890  0.87030  Biso   1.000  C
  H55      1.0000 0.57620  0.07020  0.87470  Biso   1.000  H
  C94      1.0000 0.64960  0.20310  0.80580  Biso   1.000  C
  H56      1.0000 0.66020  0.21530  0.76370  Biso   1.000  H
  C95      1.0000 0.67040  0.25620  0.85810  Biso   1.000  C
  H57      1.0000 0.69510  0.30390  0.85210  Biso   1.000  H
  C96      1.0000 0.65610  0.24140  0.91980  Biso   1.000  C
  C97      1.0000 0.73450  0.39910  0.18650  Biso   1.000  C
  H58      1.0000 0.72660  0.38000  0.22900  Biso   1.000  H
  C98      1.0000 0.77840  0.49270  0.12260  Biso   1.000  C
  H59      1.0000 0.80270  0.54190  0.11830  Biso   1.000  H
  N24      1.0000 0.51940  0.04110  0.74300  Biso   1.000  N
  C99      1.0000 0.52010  0.02200  0.74550  Biso   1.000  C
  C100     1.0000 0.75680  0.44710  0.06510  Biso   1.000  C
  H60      1.0000 0.76580  0.46690  0.02320  Biso   1.000  H
  C101     1.0000 0.58750  0.42380  0.13330  Biso   1.000  C
  H61      1.0000 0.56990  0.38300  0.10060  Biso   1.000  H
  C102     1.0000 0.63740  0.53350  0.22590  Biso   1.000  C
  H62      1.0000 0.66010  0.57390  0.25730  Biso   1.000  H
  C103     1.0000 0.62590  0.43800  0.24470  Biso   1.000  C
  C104     1.0000 0.63760  0.33250  0.33980  Biso   1.000  C
  H63      1.0000 0.61640  0.28710  0.31470  Biso   1.000  H
  C105     1.0000 0.68370  0.34590  0.45740  Biso   1.000  C
  H64      1.0000 0.69460  0.41230  0.45020  Biso   1.000  H
  C106     1.0000 0.59920  0.38290  0.19670  Biso   1.000  C
  H65      1.0000 0.58860  0.31720  0.20630  Biso   1.000  H
  C107     1.0000 0.64400  0.40380  0.31260  Biso   1.000  C
  H66      1.0000 0.66480  0.45050  0.33730  Biso   1.000  H
  C108     1.0000 0.72210  0.37270  0.06870  Biso   1.000  C
  C109     1.0000 0.62000  0.17040  0.92540  Biso   1.000  C
  H67      1.0000 0.60890  0.15760  0.96710  Biso   1.000  H
  C110     1.0000 0.81500  0.19810  0.97230  Biso   1.000  C
  C111     1.0000 0.70820  0.33930  0.99560  Biso   1.000  C
  C112     1.0000 0.71160  0.34980  0.13100  Biso   1.000  C
  H68      1.0000 0.68820  0.29930  0.13670  Biso   1.000  H
  C113     1.0000 0.63010  0.56500  0.15540  Biso   1.000  C
  C114     1.0000 0.61900  0.57600  0.17080  Biso   1.000  C
  C115     1.0000 0.66840  0.27890  0.98820  Biso   1.000  C
  C116     1.0000 0.69210  0.31390  0.96500  Biso   1.000  C
  W5       1.0000 0.14377  0.52903  0.14107  Biso   1.000  W
  Cu13     1.0000 0.08811  0.45525  0.23111  Biso   1.000  Cu
  Cu14     1.0000 0.19078  0.35068  0.13036  Biso   1.000  Cu
  Cu15     1.0000 0.21258  0.58019  0.24118  Biso   1.000  Cu
  S13      1.0000 0.12994  0.60539  0.23593  Biso   1.000  S
  S14      1.0000 0.22449  0.51039  0.14048  Biso   1.000  S
  S15      1.0000 0.10825  0.37652  0.13738  Biso   1.000  S
  N25      1.0000 0.24810  0.18840  0.21470  Biso   1.000  N
  N26      1.0000 0.18190  0.29270  0.03200  Biso   1.000  N
  N27      1.0000 0.09960  0.98410  0.61630  Biso   1.000  N
  N28      1.0000 0.11510  0.36500  0.30990  Biso   1.000  N
  N29      1.0000 0.26740  0.02760  0.68260  Biso   1.000  N
  C117     1.0000 0.19650  0.20090  0.01930  Biso   1.000  C
  H69      1.0000 0.21620  0.16530  0.05280  Biso   1.000  H
  C118     1.0000 0.15360  0.33980  0.98280  Biso   1.000  C
  H70      1.0000 0.14130  0.40470  0.99090  Biso   1.000  H
  C119     1.0000 0.14220  0.29660  0.92140  Biso   1.000  C
  H71      1.0000 0.12410  0.33560  0.88810  Biso   1.000  H
  C120     1.0000 0.15480  0.20500  0.90580  Biso   1.000  C
  C121     1.0000 0.22670  0.24710  0.18180  Biso   1.000  C
  C122     1.0000 0.10070  0.38110  0.37030  Biso   1.000  C
  H72      1.0000 0.07620  0.42980  0.37470  Biso   1.000  H
  C123     1.0000 0.14960  0.29690  0.30580  Biso   1.000  C
  H73      1.0000 0.16020  0.28470  0.26370  Biso   1.000  H
  C124     1.0000 0.17040  0.24380  0.35810  Biso   1.000  C
  H74      1.0000 0.19510  0.19610  0.35210  Biso   1.000  H
  C125     1.0000 0.15610  0.25860  0.41980  Biso   1.000  C
  C126     1.0000 0.23450  0.10090  0.68650  Biso   1.000  C
  H75      1.0000 0.22660  0.12000  0.72900  Biso   1.000  H
  C127     1.0000 0.27840  0.00730  0.62260  Biso   1.000  C
  H76      1.0000 0.30270  0.95810  0.61830  Biso   1.000  H
  N30      1.0000 0.01940  0.45890  0.24300  Biso   1.000  N
  C128     1.0000 0.02010  0.47800  0.24550  Biso   1.000  C
  C129     1.0000 0.25680  0.05290  0.56510  Biso   1.000  C
  H77      1.0000 0.26580  0.03310  0.52320  Biso   1.000  H
  C130     1.0000 0.08750  0.07620  0.63330  Biso   1.000  C
  H78      1.0000 0.06990  0.11700  0.60060  Biso   1.000  H
  C131     1.0000 0.13740  0.96650  0.72590  Biso   1.000  C
  H79      1.0000 0.16010  0.92610  0.75730  Biso   1.000  H
  C132     1.0000 0.12590  0.06200  0.74470  Biso   1.000  C
  C133     1.0000 0.13760  0.16750  0.83980  Biso   1.000  C
  H80      1.0000 0.11640  0.21290  0.81470  Biso   1.000  H
  C134     1.0000 0.18370  0.15410  0.95740  Biso   1.000  C
  H81      1.0000 0.19460  0.08770  0.95020  Biso   1.000  H
  C135     1.0000 0.09920  0.11710  0.69670  Biso   1.000  C
  H82      1.0000 0.08860  0.18280  0.70630  Biso   1.000  H
  C136     1.0000 0.14400  0.09620  0.81260  Biso   1.000  C
  H83      1.0000 0.16480  0.04950  0.83730  Biso   1.000  H
  C137     1.0000 0.22210  0.12730  0.56870  Biso   1.000  C
  C138     1.0000 0.12000  0.32960  0.42540  Biso   1.000  C
  H84      1.0000 0.10890  0.34240  0.46710  Biso   1.000  H
  C139     1.0000 0.31500  0.30190  0.47230  Biso   1.000  C
  C140     1.0000 0.20820  0.16070  0.49560  Biso   1.000  C
  C141     1.0000 0.21160  0.15020  0.63100  Biso   1.000  C
  H85      1.0000 0.18820  0.20070  0.63670  Biso   1.000  H
  C142     1.0000 0.13010  0.93500  0.65540  Biso   1.000  C
  C143     1.0000 0.11900  0.92400  0.67080  Biso   1.000  C
  C144     1.0000 0.16840  0.22110  0.48820  Biso   1.000  C
  C145     1.0000 0.19210  0.18610  0.46500  Biso   1.000  C
  W6       1.0000 0.64377  0.02903  0.14107  Biso   1.000  W
  Cu16     1.0000 0.58811  0.95525  0.23111  Biso   1.000  Cu
  Cu17     1.0000 0.69078  0.85068  0.13036  Biso   1.000  Cu
  Cu18     1.0000 0.71258  0.08019  0.24118  Biso   1.000  Cu
  S16      1.0000 0.62994  0.10539  0.23593  Biso   1.000  S
  S17      1.0000 0.72449  0.01039  0.14048  Biso   1.000  S
  S18      1.0000 0.60825  0.87652  0.13738  Biso   1.000  S
  N31      1.0000 0.74810  0.68840  0.21470  Biso   1.000  N
  N32      1.0000 0.68190  0.79270  0.03200  Biso   1.000  N
  N33      1.0000 0.59960  0.48410  0.61630  Biso   1.000  N
  N34      1.0000 0.61510  0.86500  0.30990  Biso   1.000  N
  N35      1.0000 0.76740  0.52760  0.68260  Biso   1.000  N
  C146     1.0000 0.69650  0.70090  0.01930  Biso   1.000  C
  H86      1.0000 0.71620  0.66530  0.05280  Biso   1.000  H
  C147     1.0000 0.65360  0.83980  0.98280  Biso   1.000  C
  H87      1.0000 0.64130  0.90470  0.99090  Biso   1.000  H
  C148     1.0000 0.64220  0.79660  0.92140  Biso   1.000  C
  H88      1.0000 0.62410  0.83560  0.88810  Biso   1.000  H
  C149     1.0000 0.65480  0.70500  0.90580  Biso   1.000  C
  C150     1.0000 0.72670  0.74710  0.18180  Biso   1.000  C
  C151     1.0000 0.60070  0.88110  0.37030  Biso   1.000  C
  H89      1.0000 0.57620  0.92980  0.37470  Biso   1.000  H
  C152     1.0000 0.64960  0.79690  0.30580  Biso   1.000  C
  H90      1.0000 0.66020  0.78470  0.26370  Biso   1.000  H
  C153     1.0000 0.67040  0.74380  0.35810  Biso   1.000  C
  H91      1.0000 0.69510  0.69610  0.35210  Biso   1.000  H
  C154     1.0000 0.65610  0.75860  0.41980  Biso   1.000  C
  C155     1.0000 0.73450  0.60090  0.68650  Biso   1.000  C
  H92      1.0000 0.72660  0.62000  0.72900  Biso   1.000  H
  C156     1.0000 0.77840  0.50730  0.62260  Biso   1.000  C
  H93      1.0000 0.80270  0.45810  0.61830  Biso   1.000  H
  N36      1.0000 0.51940  0.95890  0.24300  Biso   1.000  N
  C157     1.0000 0.52010  0.97800  0.24550  Biso   1.000  C
  C158     1.0000 0.75680  0.55290  0.56510  Biso   1.000  C
  H94      1.0000 0.76580  0.53310  0.52320  Biso   1.000  H
  C159     1.0000 0.58750  0.57620  0.63330  Biso   1.000  C
  H95      1.0000 0.56990  0.61700  0.60060  Biso   1.000  H
  C160     1.0000 0.63740  0.46650  0.72590  Biso   1.000  C
  H96      1.0000 0.66010  0.42610  0.75730  Biso   1.000  H
  C161     1.0000 0.62590  0.56200  0.74470  Biso   1.000  C
  C162     1.0000 0.63760  0.66750  0.83980  Biso   1.000  C
  H97      1.0000 0.61640  0.71290  0.81470  Biso   1.000  H
  C163     1.0000 0.68370  0.65410  0.95740  Biso   1.000  C
  H98      1.0000 0.69460  0.58770  0.95020  Biso   1.000  H
  C164     1.0000 0.59920  0.61710  0.69670  Biso   1.000  C
  H99      1.0000 0.58860  0.68280  0.70630  Biso   1.000  H
  C165     1.0000 0.64400  0.59620  0.81260  Biso   1.000  C
  H100     1.0000 0.66480  0.54950  0.83730  Biso   1.000  H
  C166     1.0000 0.72210  0.62730  0.56870  Biso   1.000  C
  C167     1.0000 0.62000  0.82960  0.42540  Biso   1.000  C
  H101     1.0000 0.60890  0.84240  0.46710  Biso   1.000  H
  C168     1.0000 0.81500  0.80190  0.47230  Biso   1.000  C
  C169     1.0000 0.70820  0.66070  0.49560  Biso   1.000  C
  C170     1.0000 0.71160  0.65020  0.63100  Biso   1.000  C
  H102     1.0000 0.68820  0.70070  0.63670  Biso   1.000  H
  C171     1.0000 0.63010  0.43500  0.65540  Biso   1.000  C
  C172     1.0000 0.61900  0.42400  0.67080  Biso   1.000  C
  C173     1.0000 0.66840  0.72110  0.48820  Biso   1.000  C
  C174     1.0000 0.69210  0.68610  0.46500  Biso   1.000  C
  W7       1.0000 0.85623  0.52903  0.35893  Biso   1.000  W
  Cu19     1.0000 0.91189  0.45525  0.26889  Biso   1.000  Cu
  Cu20     1.0000 0.80922  0.35068  0.36964  Biso   1.000  Cu
  Cu21     1.0000 0.78742  0.58019  0.25882  Biso   1.000  Cu
  S19      1.0000 0.87006  0.60539  0.26407  Biso   1.000  S
  S20      1.0000 0.77551  0.51039  0.35952  Biso   1.000  S
  S21      1.0000 0.89175  0.37652  0.36262  Biso   1.000  S
  N37      1.0000 0.75190  0.18840  0.28530  Biso   1.000  N
  N38      1.0000 0.81810  0.29270  0.46800  Biso   1.000  N
  N39      1.0000 0.90040  0.98410  0.88370  Biso   1.000  N
  N40      1.0000 0.88490  0.36500  0.19010  Biso   1.000  N
  N41      1.0000 0.73260  0.02760  0.81740  Biso   1.000  N
  C175     1.0000 0.80350  0.20090  0.48070  Biso   1.000  C
  H103     1.0000 0.78380  0.16530  0.44720  Biso   1.000  H
  C176     1.0000 0.84640  0.33980  0.51720  Biso   1.000  C
  H104     1.0000 0.85870  0.40470  0.50910  Biso   1.000  H
  C177     1.0000 0.85780  0.29660  0.57860  Biso   1.000  C
  H105     1.0000 0.87590  0.33560  0.61190  Biso   1.000  H
  C178     1.0000 0.84520  0.20500  0.59420  Biso   1.000  C
  C179     1.0000 0.77330  0.24710  0.31820  Biso   1.000  C
  C180     1.0000 0.89930  0.38110  0.12970  Biso   1.000  C
  H106     1.0000 0.92380  0.42980  0.12530  Biso   1.000  H
  C181     1.0000 0.85040  0.29690  0.19420  Biso   1.000  C
  H107     1.0000 0.83980  0.28470  0.23630  Biso   1.000  H
  C182     1.0000 0.82960  0.24380  0.14190  Biso   1.000  C
  H108     1.0000 0.80490  0.19610  0.14790  Biso   1.000  H
  C183     1.0000 0.84390  0.25860  0.08020  Biso   1.000  C
  C184     1.0000 0.76550  0.10090  0.81350  Biso   1.000  C
  H109     1.0000 0.77340  0.12000  0.77100  Biso   1.000  H
  C185     1.0000 0.72160  0.00730  0.87740  Biso   1.000  C
  H110     1.0000 0.69730  0.95810  0.88170  Biso   1.000  H
  N42      1.0000 0.98060  0.45890  0.25700  Biso   1.000  N
  C186     1.0000 0.97990  0.47800  0.25450  Biso   1.000  C
  C187     1.0000 0.74320  0.05290  0.93490  Biso   1.000  C
  H111     1.0000 0.73420  0.03310  0.97680  Biso   1.000  H
  C188     1.0000 0.91250  0.07620  0.86670  Biso   1.000  C
  H112     1.0000 0.93010  0.11700  0.89940  Biso   1.000  H
  C189     1.0000 0.86260  0.96650  0.77410  Biso   1.000  C
  H113     1.0000 0.83990  0.92610  0.74270  Biso   1.000  H
  C190     1.0000 0.87410  0.06200  0.75530  Biso   1.000  C
  C191     1.0000 0.86240  0.16750  0.66020  Biso   1.000  C
  H114     1.0000 0.88360  0.21290  0.68530  Biso   1.000  H
  C192     1.0000 0.81630  0.15410  0.54260  Biso   1.000  C
  H115     1.0000 0.80540  0.08770  0.54980  Biso   1.000  H
  C193     1.0000 0.90080  0.11710  0.80330  Biso   1.000  C
  H116     1.0000 0.91140  0.18280  0.79370  Biso   1.000  H
  C194     1.0000 0.85600  0.09620  0.68740  Biso   1.000  C
  H117     1.0000 0.83520  0.04950  0.66270  Biso   1.000  H
  C195     1.0000 0.77790  0.12730  0.93130  Biso   1.000  C
  C196     1.0000 0.88000  0.32960  0.07460  Biso   1.000  C
  H118     1.0000 0.89110  0.34240  0.03290  Biso   1.000  H
  C197     1.0000 0.68500  0.30190  0.02770  Biso   1.000  C
  C198     1.0000 0.79180  0.16070  0.00440  Biso   1.000  C
  C199     1.0000 0.78840  0.15020  0.86900  Biso   1.000  C
  H119     1.0000 0.81180  0.20070  0.86330  Biso   1.000  H
  C200     1.0000 0.86990  0.93500  0.84460  Biso   1.000  C
  C201     1.0000 0.88100  0.92400  0.82920  Biso   1.000  C
  C202     1.0000 0.83160  0.22110  0.01180  Biso   1.000  C
  C203     1.0000 0.80790  0.18610  0.03500  Biso   1.000  C
  W8       1.0000 0.35623  0.02903  0.35893  Biso   1.000  W
  Cu22     1.0000 0.41189  0.95525  0.26889  Biso   1.000  Cu
  Cu23     1.0000 0.30922  0.85068  0.36964  Biso   1.000  Cu
  Cu24     1.0000 0.28742  0.08019  0.25882  Biso   1.000  Cu
  S22      1.0000 0.37006  0.10539  0.26407  Biso   1.000  S
  S23      1.0000 0.27551  0.01039  0.35952  Biso   1.000  S
  S24      1.0000 0.39175  0.87652  0.36262  Biso   1.000  S
  N43      1.0000 0.25190  0.68840  0.28530  Biso   1.000  N
  N44      1.0000 0.31810  0.79270  0.46800  Biso   1.000  N
  N45      1.0000 0.40040  0.48410  0.88370  Biso   1.000  N
  N46      1.0000 0.38490  0.86500  0.19010  Biso   1.000  N
  N47      1.0000 0.23260  0.52760  0.81740  Biso   1.000  N
  C204     1.0000 0.30350  0.70090  0.48070  Biso   1.000  C
  H120     1.0000 0.28380  0.66530  0.44720  Biso   1.000  H
  C205     1.0000 0.34640  0.83980  0.51720  Biso   1.000  C
  H121     1.0000 0.35870  0.90470  0.50910  Biso   1.000  H
  C206     1.0000 0.35780  0.79660  0.57860  Biso   1.000  C
  H122     1.0000 0.37590  0.83560  0.61190  Biso   1.000  H
  C207     1.0000 0.34520  0.70500  0.59420  Biso   1.000  C
  C208     1.0000 0.27330  0.74710  0.31820  Biso   1.000  C
  C209     1.0000 0.39930  0.88110  0.12970  Biso   1.000  C
  H123     1.0000 0.42380  0.92980  0.12530  Biso   1.000  H
  C210     1.0000 0.35040  0.79690  0.19420  Biso   1.000  C
  H124     1.0000 0.33980  0.78470  0.23630  Biso   1.000  H
  C211     1.0000 0.32960  0.74380  0.14190  Biso   1.000  C
  H125     1.0000 0.30490  0.69610  0.14790  Biso   1.000  H
  C212     1.0000 0.34390  0.75860  0.08020  Biso   1.000  C
  C213     1.0000 0.26550  0.60090  0.81350  Biso   1.000  C
  H126     1.0000 0.27340  0.62000  0.77100  Biso   1.000  H
  C214     1.0000 0.22160  0.50730  0.87740  Biso   1.000  C
  H127     1.0000 0.19730  0.45810  0.88170  Biso   1.000  H
  N48      1.0000 0.48060  0.95890  0.25700  Biso   1.000  N
  C215     1.0000 0.47990  0.97800  0.25450  Biso   1.000  C
  C216     1.0000 0.24320  0.55290  0.93490  Biso   1.000  C
  H128     1.0000 0.23420  0.53310  0.97680  Biso   1.000  H
  C217     1.0000 0.41250  0.57620  0.86670  Biso   1.000  C
  H129     1.0000 0.43010  0.61700  0.89940  Biso   1.000  H
  C218     1.0000 0.36260  0.46650  0.77410  Biso   1.000  C
  H130     1.0000 0.33990  0.42610  0.74270  Biso   1.000  H
  C219     1.0000 0.37410  0.56200  0.75530  Biso   1.000  C
  C220     1.0000 0.36240  0.66750  0.66020  Biso   1.000  C
  H131     1.0000 0.38360  0.71290  0.68530  Biso   1.000  H
  C221     1.0000 0.31630  0.65410  0.54260  Biso   1.000  C
  H132     1.0000 0.30540  0.58770  0.54980  Biso   1.000  H
  C222     1.0000 0.40080  0.61710  0.80330  Biso   1.000  C
  H133     1.0000 0.41140  0.68280  0.79370  Biso   1.000  H
  C223     1.0000 0.35600  0.59620  0.68740  Biso   1.000  C
  H134     1.0000 0.33520  0.54950  0.66270  Biso   1.000  H
  C224     1.0000 0.27790  0.62730  0.93130  Biso   1.000  C
  C225     1.0000 0.38000  0.82960  0.07460  Biso   1.000  C
  H135     1.0000 0.39110  0.84240  0.03290  Biso   1.000  H
  C226     1.0000 0.18500  0.80190  0.02770  Biso   1.000  C
  C227     1.0000 0.29180  0.66070  0.00440  Biso   1.000  C
  C228     1.0000 0.28840  0.65020  0.86900  Biso   1.000  C
  H136     1.0000 0.31180  0.70070  0.86330  Biso   1.000  H
  C229     1.0000 0.36990  0.43500  0.84460  Biso   1.000  C
  C230     1.0000 0.38100  0.42400  0.82920  Biso   1.000  C
  C231     1.0000 0.33160  0.72110  0.01180  Biso   1.000  C
  C232     1.0000 0.30790  0.68610  0.03500  Biso   1.000  C
