data_image0
_cell_length_a       13.532
_cell_length_b       13.532
_cell_length_c       8.7172
_cell_angle_alpha    90
_cell_angle_beta     90
_cell_angle_gamma    120

_symmetry_space_group_name_H-M    "P 1"
_symmetry_int_tables_number       1

loop_
  _symmetry_equiv_pos_as_xyz
  'x, y, z'

loop_
  _atom_site_label
  _atom_site_occupancy
  _atom_site_fract_x
  _atom_site_fract_y
  _atom_site_fract_z
  _atom_site_thermal_displace_type
  _atom_site_B_iso_or_equiv
  _atom_site_type_symbol
  W1       1.0000 0.66667  0.33333  0.56159  Biso   1.000  W
  W2       1.0000 0.33333  0.66667  0.06159  Biso   1.000  W
  Cu1      1.0000 0.88116  0.44058  0.69251  Biso   1.000  Cu
  N1       1.0000 0.97570  0.48785  0.49160  Biso   1.000  N
  C1       1.0000 0.02690  0.51345  0.37640  Biso   1.000  C
  Cu2      1.0000 0.55942  0.44058  0.69251  Biso   1.000  Cu
  N2       1.0000 0.51215  0.48785  0.49160  Biso   1.000  N
  C2       1.0000 0.48655  0.51345  0.37640  Biso   1.000  C
  Cu3      1.0000 0.55942  0.11884  0.69251  Biso   1.000  Cu
  N3       1.0000 0.51215  0.02430  0.49160  Biso   1.000  N
  C3       1.0000 0.48655  0.97310  0.37640  Biso   1.000  C
  Cu4      1.0000 0.11884  0.55942  0.19251  Biso   1.000  Cu
  N4       1.0000 0.02430  0.51215  0.99160  Biso   1.000  N
  C4       1.0000 0.97310  0.48655  0.87640  Biso   1.000  C
  Cu5      1.0000 0.44058  0.55942  0.19251  Biso   1.000  Cu
  N5       1.0000 0.48785  0.51215  0.99160  Biso   1.000  N
  C5       1.0000 0.51345  0.48655  0.87640  Biso   1.000  C
  Cu6      1.0000 0.44058  0.88116  0.19251  Biso   1.000  Cu
  N6       1.0000 0.48785  0.97570  0.99160  Biso   1.000  N
  C6       1.0000 0.51345  0.02690  0.87640  Biso   1.000  C
  S1       1.0000 0.75669  0.51337  0.65260  Biso   1.000  S
  S2       1.0000 0.48663  0.24332  0.65260  Biso   1.000  S
  S3       1.0000 0.75669  0.24332  0.65260  Biso   1.000  S
  S4       1.0000 0.24332  0.48663  0.15260  Biso   1.000  S
  S5       1.0000 0.51337  0.75668  0.15260  Biso   1.000  S
  S6       1.0000 0.24332  0.75669  0.15260  Biso   1.000  S
  H1       1.0000 0.49350  0.80620  0.63770  Biso   1.000  H
  C7       1.0000 0.71110  0.76530  0.59800  Biso   1.000  C
  H2       1.0000 0.71590  0.76390  0.48610  Biso   1.000  H
  H3       1.0000 0.66870  0.68700  0.63710  Biso   1.000  H
  H4       1.0000 0.78820  0.80380  0.64170  Biso   1.000  H
  H5       1.0000 0.61660  0.74810  0.84630  Biso   1.000  H
  H6       1.0000 0.61240  0.86430  0.84630  Biso   1.000  H
  H7       1.0000 0.49350  0.68730  0.63770  Biso   1.000  H
  C8       1.0000 0.71110  0.94580  0.59800  Biso   1.000  C
  H8       1.0000 0.71590  0.95200  0.48610  Biso   1.000  H
  H9       1.0000 0.66870  0.98170  0.63710  Biso   1.000  H
  H10      1.0000 0.78820  0.98440  0.64170  Biso   1.000  H
  H11      1.0000 0.61660  0.86850  0.84630  Biso   1.000  H
  H12      1.0000 0.61240  0.74810  0.84630  Biso   1.000  H
  N7       1.0000 0.65280  0.82640  0.64200  Biso   1.000  N
  C9       1.0000 0.53050  0.76525  0.59740  Biso   1.000  C
  H13      1.0000 0.52410  0.76205  0.48540  Biso   1.000  H
  C10      1.0000 0.65370  0.82685  0.80840  Biso   1.000  C
  H14      1.0000 0.73270  0.86635  0.84520  Biso   1.000  H
  H15      1.0000 0.19380  0.68730  0.63770  Biso   1.000  H
  C11      1.0000 0.23470  0.94580  0.59800  Biso   1.000  C
  H16      1.0000 0.23610  0.95200  0.48610  Biso   1.000  H
  H17      1.0000 0.31300  0.98170  0.63710  Biso   1.000  H
  H18      1.0000 0.19620  0.98440  0.64170  Biso   1.000  H
  H19      1.0000 0.25190  0.86850  0.84630  Biso   1.000  H
  H20      1.0000 0.13570  0.74810  0.84630  Biso   1.000  H
  H21      1.0000 0.31270  0.80620  0.63770  Biso   1.000  H
  C12      1.0000 0.05420  0.76530  0.59800  Biso   1.000  C
  H22      1.0000 0.04800  0.76390  0.48610  Biso   1.000  H
  H23      1.0000 0.01830  0.68700  0.63710  Biso   1.000  H
  H24      1.0000 0.01560  0.80380  0.64170  Biso   1.000  H
  H25      1.0000 0.13150  0.74810  0.84630  Biso   1.000  H
  H26      1.0000 0.25190  0.86430  0.84630  Biso   1.000  H
  N8       1.0000 0.17360  0.82640  0.64200  Biso   1.000  N
  C13      1.0000 0.23475  0.76525  0.59740  Biso   1.000  C
  H27      1.0000 0.23795  0.76205  0.48540  Biso   1.000  H
  C14      1.0000 0.17315  0.82685  0.80840  Biso   1.000  C
  H28      1.0000 0.13365  0.86635  0.84520  Biso   1.000  H
  H29      1.0000 0.31270  0.50650  0.63770  Biso   1.000  H
  C15      1.0000 0.05420  0.28890  0.59800  Biso   1.000  C
  H30      1.0000 0.04800  0.28410  0.48610  Biso   1.000  H
  H31      1.0000 0.01830  0.33130  0.63710  Biso   1.000  H
  H32      1.0000 0.01560  0.21180  0.64170  Biso   1.000  H
  H33      1.0000 0.13150  0.38340  0.84630  Biso   1.000  H
  H34      1.0000 0.25190  0.38760  0.84630  Biso   1.000  H
  H35      1.0000 0.19380  0.50650  0.63770  Biso   1.000  H
  C16      1.0000 0.23470  0.28890  0.59800  Biso   1.000  C
  H36      1.0000 0.23610  0.28410  0.48610  Biso   1.000  H
  H37      1.0000 0.31300  0.33130  0.63710  Biso   1.000  H
  H38      1.0000 0.19620  0.21180  0.64170  Biso   1.000  H
  H39      1.0000 0.25190  0.38340  0.84630  Biso   1.000  H
  H40      1.0000 0.13570  0.38760  0.84630  Biso   1.000  H
  N9       1.0000 0.17360  0.34720  0.64200  Biso   1.000  N
  C17      1.0000 0.23475  0.46950  0.59740  Biso   1.000  C
  H41      1.0000 0.23795  0.47590  0.48540  Biso   1.000  H
  C18      1.0000 0.17315  0.34630  0.80840  Biso   1.000  C
  H42      1.0000 0.13365  0.26730  0.84520  Biso   1.000  H
  H43      1.0000 0.50650  0.19380  0.13770  Biso   1.000  H
  C19      1.0000 0.28890  0.23470  0.09800  Biso   1.000  C
  H44      1.0000 0.28410  0.23610  0.98610  Biso   1.000  H
  H45      1.0000 0.33130  0.31300  0.13710  Biso   1.000  H
  H46      1.0000 0.21180  0.19620  0.14170  Biso   1.000  H
  H47      1.0000 0.38340  0.25190  0.34630  Biso   1.000  H
  H48      1.0000 0.38760  0.13570  0.34630  Biso   1.000  H
  H49      1.0000 0.50650  0.31270  0.13770  Biso   1.000  H
  C20      1.0000 0.28890  0.05420  0.09800  Biso   1.000  C
  H50      1.0000 0.28410  0.04800  0.98610  Biso   1.000  H
  H51      1.0000 0.33130  0.01830  0.13710  Biso   1.000  H
  H52      1.0000 0.21180  0.01560  0.14170  Biso   1.000  H
  H53      1.0000 0.38340  0.13150  0.34630  Biso   1.000  H
  H54      1.0000 0.38760  0.25190  0.34630  Biso   1.000  H
  N10      1.0000 0.34720  0.17360  0.14200  Biso   1.000  N
  C21      1.0000 0.46950  0.23475  0.09740  Biso   1.000  C
  H55      1.0000 0.47590  0.23795  0.98540  Biso   1.000  H
  C22      1.0000 0.34630  0.17315  0.30840  Biso   1.000  C
  H56      1.0000 0.26730  0.13365  0.34520  Biso   1.000  H
  H57      1.0000 0.80620  0.31270  0.13770  Biso   1.000  H
  C23      1.0000 0.76530  0.05420  0.09800  Biso   1.000  C
  H58      1.0000 0.76390  0.04800  0.98610  Biso   1.000  H
  H59      1.0000 0.68700  0.01830  0.13710  Biso   1.000  H
  H60      1.0000 0.80380  0.01560  0.14170  Biso   1.000  H
  H61      1.0000 0.74810  0.13150  0.34630  Biso   1.000  H
  H62      1.0000 0.86430  0.25190  0.34630  Biso   1.000  H
  H63      1.0000 0.68730  0.19380  0.13770  Biso   1.000  H
  C24      1.0000 0.94580  0.23470  0.09800  Biso   1.000  C
  H64      1.0000 0.95200  0.23610  0.98610  Biso   1.000  H
  H65      1.0000 0.98170  0.31300  0.13710  Biso   1.000  H
  H66      1.0000 0.98440  0.19620  0.14170  Biso   1.000  H
  H67      1.0000 0.86850  0.25190  0.34630  Biso   1.000  H
  H68      1.0000 0.74810  0.13570  0.34630  Biso   1.000  H
  N11      1.0000 0.82640  0.17360  0.14200  Biso   1.000  N
  C25      1.0000 0.76525  0.23475  0.09740  Biso   1.000  C
  H69      1.0000 0.76205  0.23795  0.98540  Biso   1.000  H
  C26      1.0000 0.82685  0.17315  0.30840  Biso   1.000  C
  H70      1.0000 0.86635  0.13365  0.34520  Biso   1.000  H
  H71      1.0000 0.68730  0.49350  0.13770  Biso   1.000  H
  C27      1.0000 0.94580  0.71110  0.09800  Biso   1.000  C
  H72      1.0000 0.95200  0.71590  0.98610  Biso   1.000  H
  H73      1.0000 0.98170  0.66870  0.13710  Biso   1.000  H
  H74      1.0000 0.98440  0.78820  0.14170  Biso   1.000  H
  H75      1.0000 0.86850  0.61660  0.34630  Biso   1.000  H
  H76      1.0000 0.74810  0.61240  0.34630  Biso   1.000  H
  H77      1.0000 0.80620  0.49350  0.13770  Biso   1.000  H
  C28      1.0000 0.76530  0.71110  0.09800  Biso   1.000  C
  H78      1.0000 0.76390  0.71590  0.98610  Biso   1.000  H
  H79      1.0000 0.68700  0.66870  0.13710  Biso   1.000  H
  H80      1.0000 0.80380  0.78820  0.14170  Biso   1.000  H
  H81      1.0000 0.74810  0.61660  0.34630  Biso   1.000  H
  H82      1.0000 0.86430  0.61240  0.34630  Biso   1.000  H
  N12      1.0000 0.82640  0.65280  0.14200  Biso   1.000  N
  C29      1.0000 0.76525  0.53050  0.09740  Biso   1.000  C
  H83      1.0000 0.76205  0.52410  0.98540  Biso   1.000  H
  C30      1.0000 0.82685  0.65370  0.30840  Biso   1.000  C
  H84      1.0000 0.86635  0.73270  0.34520  Biso   1.000  H
