data_image0
_cell_length_a       10.7031
_cell_length_b       23.0805
_cell_length_c       7.2343
_cell_angle_alpha    90
_cell_angle_beta     90
_cell_angle_gamma    90

_symmetry_space_group_name_H-M    "P 1"
_symmetry_int_tables_number       1

loop_
  _symmetry_equiv_pos_as_xyz
  'x, y, z'

loop_
  _atom_site_label
  _atom_site_occupancy
  _atom_site_fract_x
  _atom_site_fract_y
  _atom_site_fract_z
  _atom_site_thermal_displace_type
  _atom_site_B_iso_or_equiv
  _atom_site_type_symbol
  Sb1      1.0000 0.27440  0.25860  0.79884  Biso   1.000  Sb
  O1       1.0000 0.33580  0.35930  0.91680  Biso   1.000  O
  O2       1.0000 0.46340  0.43182  0.84360  Biso   1.000  O
  O3       1.0000 0.09170  0.27814  0.70540  Biso   1.000  O
  O4       1.0000 0.96680  0.34121  0.56740  Biso   1.000  O
  O5       1.0000 0.46910  0.23955  0.71750  Biso   1.000  O
  O6       1.0000 0.59500  0.17154  0.60360  Biso   1.000  O
  O7       1.0000 0.18040  0.16422  0.86150  Biso   1.000  O
  O8       1.0000 0.57160  0.40784  0.23750  Biso   1.000  O
  O9       1.0000 0.31020  0.43886  0.20780  Biso   1.000  O
  O10      1.0000 0.31480  0.47030  0.28900  Biso   1.000  O
  N1       1.0000 0.30570  0.32507  0.56310  Biso   1.000  N
  N2       1.0000 0.26550  0.20215  0.53580  Biso   1.000  N
  C1       1.0000 0.40700  0.36664  0.60750  Biso   1.000  C
  H1       1.0000 0.40180  0.39950  0.52420  Biso   1.000  H
  H2       1.0000 0.48720  0.34800  0.58800  Biso   1.000  H
  C2       1.0000 0.39970  0.38810  0.80540  Biso   1.000  C
  C3       1.0000 0.18460  0.35700  0.53870  Biso   1.000  C
  H3       1.0000 0.17380  0.36590  0.40870  Biso   1.000  H
  H4       1.0000 0.18940  0.39340  0.60520  Biso   1.000  H
  C4       1.0000 0.07180  0.32414  0.60520  Biso   1.000  C
  C5       1.0000 0.34120  0.29279  0.39200  Biso   1.000  C
  H5       1.0000 0.42830  0.28140  0.39960  Biso   1.000  H
  H6       1.0000 0.33150  0.31790  0.28550  Biso   1.000  H
  C6       1.0000 0.26100  0.23946  0.36740  Biso   1.000  C
  H7       1.0000 0.17530  0.25100  0.34380  Biso   1.000  H
  H8       1.0000 0.29030  0.21760  0.26150  Biso   1.000  H
  C7       1.0000 0.37890  0.16447  0.53660  Biso   1.000  C
  H9       1.0000 0.39930  0.15380  0.41040  Biso   1.000  H
  H10      1.0000 0.36050  0.12910  0.60390  Biso   1.000  H
  C8       1.0000 0.49100  0.19369  0.62370  Biso   1.000  C
  C9       1.0000 0.15280  0.16439  0.53730  Biso   1.000  C
  H11      1.0000 0.16220  0.13410  0.44540  Biso   1.000  H
  H12      1.0000 0.07980  0.18720  0.50530  Biso   1.000  H
  C10      1.0000 0.63430  0.36271  0.22570  Biso   1.000  C
  Sb2      1.0000 0.72560  0.74140  0.79884  Biso   1.000  Sb
  O11      1.0000 0.66420  0.64070  0.91680  Biso   1.000  O
  O12      1.0000 0.53660  0.56818  0.84360  Biso   1.000  O
  O13      1.0000 0.90830  0.72186  0.70540  Biso   1.000  O
  O14      1.0000 0.03320  0.65879  0.56740  Biso   1.000  O
  O15      1.0000 0.53090  0.76045  0.71750  Biso   1.000  O
  O16      1.0000 0.40500  0.82846  0.60360  Biso   1.000  O
  O17      1.0000 0.81960  0.83578  0.86150  Biso   1.000  O
  O18      1.0000 0.42840  0.59216  0.23750  Biso   1.000  O
  O19      1.0000 0.68980  0.56114  0.20780  Biso   1.000  O
  O20      1.0000 0.68520  0.52970  0.28900  Biso   1.000  O
  N3       1.0000 0.69430  0.67493  0.56310  Biso   1.000  N
  N4       1.0000 0.73450  0.79785  0.53580  Biso   1.000  N
  C11      1.0000 0.59300  0.63336  0.60750  Biso   1.000  C
  H13      1.0000 0.59820  0.60050  0.52420  Biso   1.000  H
  H14      1.0000 0.51280  0.65200  0.58800  Biso   1.000  H
  C12      1.0000 0.60030  0.61190  0.80540  Biso   1.000  C
  C13      1.0000 0.81540  0.64300  0.53870  Biso   1.000  C
  H15      1.0000 0.82620  0.63410  0.40870  Biso   1.000  H
  H16      1.0000 0.81060  0.60660  0.60520  Biso   1.000  H
  C14      1.0000 0.92820  0.67586  0.60520  Biso   1.000  C
  C15      1.0000 0.65880  0.70721  0.39200  Biso   1.000  C
  H17      1.0000 0.57170  0.71860  0.39960  Biso   1.000  H
  H18      1.0000 0.66850  0.68210  0.28550  Biso   1.000  H
  C16      1.0000 0.73900  0.76054  0.36740  Biso   1.000  C
  H19      1.0000 0.82470  0.74900  0.34380  Biso   1.000  H
  H20      1.0000 0.70970  0.78240  0.26150  Biso   1.000  H
  C17      1.0000 0.62110  0.83553  0.53660  Biso   1.000  C
  H21      1.0000 0.60070  0.84620  0.41040  Biso   1.000  H
  H22      1.0000 0.63950  0.87090  0.60390  Biso   1.000  H
  C18      1.0000 0.50900  0.80631  0.62370  Biso   1.000  C
  C19      1.0000 0.84720  0.83561  0.53730  Biso   1.000  C
  H23      1.0000 0.83780  0.86590  0.44540  Biso   1.000  H
  H24      1.0000 0.92020  0.81280  0.50530  Biso   1.000  H
  C20      1.0000 0.36570  0.63729  0.22570  Biso   1.000  C
  Sb3      1.0000 0.77440  0.24140  0.29884  Biso   1.000  Sb
  O21      1.0000 0.83580  0.14070  0.41680  Biso   1.000  O
  O22      1.0000 0.96340  0.06818  0.34360  Biso   1.000  O
  O23      1.0000 0.59170  0.22186  0.20540  Biso   1.000  O
  O24      1.0000 0.46680  0.15879  0.06740  Biso   1.000  O
  O25      1.0000 0.96910  0.26045  0.21750  Biso   1.000  O
  O26      1.0000 0.09500  0.32846  0.10360  Biso   1.000  O
  O27      1.0000 0.68040  0.33578  0.36150  Biso   1.000  O
  O28      1.0000 0.07160  0.09216  0.73750  Biso   1.000  O
  O29      1.0000 0.81020  0.06114  0.70780  Biso   1.000  O
  O30      1.0000 0.81480  0.02970  0.78900  Biso   1.000  O
  N5       1.0000 0.80570  0.17493  0.06310  Biso   1.000  N
  N6       1.0000 0.76550  0.29785  0.03580  Biso   1.000  N
  C21      1.0000 0.90700  0.13336  0.10750  Biso   1.000  C
  H25      1.0000 0.90180  0.10050  0.02420  Biso   1.000  H
  H26      1.0000 0.98720  0.15200  0.08800  Biso   1.000  H
  C22      1.0000 0.89970  0.11190  0.30540  Biso   1.000  C
  C23      1.0000 0.68460  0.14300  0.03870  Biso   1.000  C
  H27      1.0000 0.67380  0.13410  0.90870  Biso   1.000  H
  H28      1.0000 0.68940  0.10660  0.10520  Biso   1.000  H
  C24      1.0000 0.57180  0.17586  0.10520  Biso   1.000  C
  C25      1.0000 0.84120  0.20721  0.89200  Biso   1.000  C
  H29      1.0000 0.92830  0.21860  0.89960  Biso   1.000  H
  H30      1.0000 0.83150  0.18210  0.78550  Biso   1.000  H
  C26      1.0000 0.76100  0.26054  0.86740  Biso   1.000  C
  H31      1.0000 0.67530  0.24900  0.84380  Biso   1.000  H
  H32      1.0000 0.79030  0.28240  0.76150  Biso   1.000  H
  C27      1.0000 0.87890  0.33553  0.03660  Biso   1.000  C
  H33      1.0000 0.89930  0.34620  0.91040  Biso   1.000  H
  H34      1.0000 0.86050  0.37090  0.10390  Biso   1.000  H
  C28      1.0000 0.99100  0.30631  0.12370  Biso   1.000  C
  C29      1.0000 0.65280  0.33561  0.03730  Biso   1.000  C
  H35      1.0000 0.66220  0.36590  0.94540  Biso   1.000  H
  H36      1.0000 0.57980  0.31280  0.00530  Biso   1.000  H
  C30      1.0000 0.13430  0.13729  0.72570  Biso   1.000  C
  Sb4      1.0000 0.22560  0.75860  0.29884  Biso   1.000  Sb
  O31      1.0000 0.16420  0.85930  0.41680  Biso   1.000  O
  O32      1.0000 0.03660  0.93182  0.34360  Biso   1.000  O
  O33      1.0000 0.40830  0.77814  0.20540  Biso   1.000  O
  O34      1.0000 0.53320  0.84121  0.06740  Biso   1.000  O
  O35      1.0000 0.03090  0.73955  0.21750  Biso   1.000  O
  O36      1.0000 0.90500  0.67154  0.10360  Biso   1.000  O
  O37      1.0000 0.31960  0.66422  0.36150  Biso   1.000  O
  O38      1.0000 0.92840  0.90784  0.73750  Biso   1.000  O
  O39      1.0000 0.18980  0.93886  0.70780  Biso   1.000  O
  O40      1.0000 0.18520  0.97030  0.78900  Biso   1.000  O
  N7       1.0000 0.19430  0.82507  0.06310  Biso   1.000  N
  N8       1.0000 0.23450  0.70215  0.03580  Biso   1.000  N
  C31      1.0000 0.09300  0.86664  0.10750  Biso   1.000  C
  H37      1.0000 0.09820  0.89950  0.02420  Biso   1.000  H
  H38      1.0000 0.01280  0.84800  0.08800  Biso   1.000  H
  C32      1.0000 0.10030  0.88810  0.30540  Biso   1.000  C
  C33      1.0000 0.31540  0.85700  0.03870  Biso   1.000  C
  H39      1.0000 0.32620  0.86590  0.90870  Biso   1.000  H
  H40      1.0000 0.31060  0.89340  0.10520  Biso   1.000  H
  C34      1.0000 0.42820  0.82414  0.10520  Biso   1.000  C
  C35      1.0000 0.15880  0.79279  0.89200  Biso   1.000  C
  H41      1.0000 0.07170  0.78140  0.89960  Biso   1.000  H
  H42      1.0000 0.16850  0.81790  0.78550  Biso   1.000  H
  C36      1.0000 0.23900  0.73946  0.86740  Biso   1.000  C
  H43      1.0000 0.32470  0.75100  0.84380  Biso   1.000  H
  H44      1.0000 0.20970  0.71760  0.76150  Biso   1.000  H
  C37      1.0000 0.12110  0.66447  0.03660  Biso   1.000  C
  H45      1.0000 0.10070  0.65380  0.91040  Biso   1.000  H
  H46      1.0000 0.13950  0.62910  0.10390  Biso   1.000  H
  C38      1.0000 0.00900  0.69369  0.12370  Biso   1.000  C
  C39      1.0000 0.34720  0.66439  0.03730  Biso   1.000  C
  H47      1.0000 0.33780  0.63410  0.94540  Biso   1.000  H
  H48      1.0000 0.42020  0.68720  0.00530  Biso   1.000  H
  C40      1.0000 0.86570  0.86271  0.72570  Biso   1.000  C
  Pr1      1.0000 0.50000  0.50000  0.10300  Biso   1.000  Pr
  Pr2      1.0000 0.00000  0.00000  0.60300  Biso   1.000  Pr
