data_image0
_cell_length_a       9.015
_cell_length_b       9.4739
_cell_length_c       19.7373
_cell_angle_alpha    88.964
_cell_angle_beta     78.938
_cell_angle_gamma    85.489

_symmetry_space_group_name_H-M    "P 1"
_symmetry_int_tables_number       1

loop_
  _symmetry_equiv_pos_as_xyz
  'x, y, z'

loop_
  _atom_site_label
  _atom_site_occupancy
  _atom_site_fract_x
  _atom_site_fract_y
  _atom_site_fract_z
  _atom_site_thermal_displace_type
  _atom_site_B_iso_or_equiv
  _atom_site_type_symbol
  Al1      1.0000 0.15988  0.63639  0.02591  Biso   1.000  Al
  Al2      1.0000 0.72449  0.88045  0.10985  Biso   1.000  Al
  Al3      1.0000 0.14973  0.84515  0.29312  Biso   1.000  Al
  Al4      1.0000 0.26612  0.89300  0.49047  Biso   1.000  Al
  Al5      1.0000 0.14981  0.32512  0.45137  Biso   1.000  Al
  Al6      1.0000 0.29180  0.05933  0.09872  Biso   1.000  Al
  P1       1.0000 0.44837  0.15512  0.43532  Biso   1.000  P
  P2       1.0000 0.44140  0.94901  0.21998  Biso   1.000  P
  P3       1.0000 0.13438  0.64856  0.42451  Biso   1.000  P
  P4       1.0000 0.03316  0.06567  0.39997  Biso   1.000  P
  P5       1.0000 0.37925  0.85852  0.96883  Biso   1.000  P
  P6       1.0000 0.04227  0.83409  0.15265  Biso   1.000  P
  P7       1.0000 0.84205  0.68875  0.97960  Biso   1.000  P
  O1       1.0000 0.46710  0.19700  0.35883  Biso   1.000  O
  O2       1.0000 0.55500  0.85710  0.16661  Biso   1.000  O
  O3       1.0000 0.52760  0.03530  0.25997  Biso   1.000  O
  O4       1.0000 0.11530  0.96550  0.12468  Biso   1.000  O
  O5       1.0000 0.37230  0.92320  0.03888  Biso   1.000  O
  O6       1.0000 0.33380  0.03890  0.18345  Biso   1.000  O
  O7       1.0000 0.31730  0.25370  0.47329  Biso   1.000  O
  O8       1.0000 0.75080  0.74780  0.04766  Biso   1.000  O
  O9       1.0000 0.27980  0.95400  0.92812  Biso   1.000  O
  O10      1.0000 0.01020  0.66690  0.98331  Biso   1.000  O
  O11      1.0000 0.06380  0.79840  0.22631  Biso   1.000  O
  O12      1.0000 0.18270  0.48980  0.41535  Biso   1.000  O
  O13      1.0000 0.87150  0.85410  0.15539  Biso   1.000  O
  O14      1.0000 0.34500  0.84560  0.26769  Biso   1.000  O
  O15      1.0000 0.25140  0.71970  0.45547  Biso   1.000  O
  O16      1.0000 0.97900  0.66270  0.47151  Biso   1.000  O
  O17      1.0000 0.12450  0.97470  0.44213  Biso   1.000  O
  O18      1.0000 0.08450  0.21740  0.39460  Biso   1.000  O
  O19      1.0000 0.05970  0.00610  0.32650  Biso   1.000  O
  O20      1.0000 0.10670  0.70260  0.10929  Biso   1.000  O
  O21      1.0000 0.82440  0.78780  0.92038  Biso   1.000  O
  O22      1.0000 0.40880  0.00260  0.44482  Biso   1.000  O
  O23      1.0000 0.31250  0.71430  0.97752  Biso   1.000  O
  O24      1.0000 0.78760  0.54400  0.96796  Biso   1.000  O
  O25      1.0000 0.86270  0.07290  0.42909  Biso   1.000  O
  O26      1.0000 0.58910  0.18560  0.46128  Biso   1.000  O
  O27      1.0000 0.12000  0.70910  0.35397  Biso   1.000  O
  O28      1.0000 0.53870  0.83590  0.92819  Biso   1.000  O
  H1       1.0000 0.52800  0.10800  0.34100  Biso   1.000  H
  Al7      1.0000 0.84012  0.36361  0.97409  Biso   1.000  Al
  Al8      1.0000 0.27551  0.11955  0.89015  Biso   1.000  Al
  Al9      1.0000 0.85027  0.15485  0.70688  Biso   1.000  Al
  Al10     1.0000 0.73388  0.10700  0.50953  Biso   1.000  Al
  Al11     1.0000 0.85019  0.67488  0.54863  Biso   1.000  Al
  Al12     1.0000 0.70820  0.94067  0.90128  Biso   1.000  Al
  P8       1.0000 0.55163  0.84488  0.56468  Biso   1.000  P
  P9       1.0000 0.55860  0.05099  0.78002  Biso   1.000  P
  P10      1.0000 0.86562  0.35144  0.57549  Biso   1.000  P
  P11      1.0000 0.96684  0.93433  0.60003  Biso   1.000  P
  P12      1.0000 0.62075  0.14148  0.03117  Biso   1.000  P
  P13      1.0000 0.95773  0.16591  0.84735  Biso   1.000  P
  P14      1.0000 0.15795  0.31125  0.02040  Biso   1.000  P
  O29      1.0000 0.53290  0.80300  0.64117  Biso   1.000  O
  O30      1.0000 0.44500  0.14290  0.83339  Biso   1.000  O
  O31      1.0000 0.47240  0.96470  0.74003  Biso   1.000  O
  O32      1.0000 0.88470  0.03450  0.87532  Biso   1.000  O
  O33      1.0000 0.62770  0.07680  0.96112  Biso   1.000  O
  O34      1.0000 0.66620  0.96110  0.81655  Biso   1.000  O
  O35      1.0000 0.68270  0.74630  0.52671  Biso   1.000  O
  O36      1.0000 0.24920  0.25220  0.95234  Biso   1.000  O
  O37      1.0000 0.72020  0.04600  0.07188  Biso   1.000  O
  O38      1.0000 0.98980  0.33310  0.01669  Biso   1.000  O
  O39      1.0000 0.93620  0.20160  0.77369  Biso   1.000  O
  O40      1.0000 0.81730  0.51020  0.58465  Biso   1.000  O
  O41      1.0000 0.12850  0.14590  0.84461  Biso   1.000  O
  O42      1.0000 0.65500  0.15440  0.73231  Biso   1.000  O
  O43      1.0000 0.74860  0.28030  0.54453  Biso   1.000  O
  O44      1.0000 0.02100  0.33730  0.52849  Biso   1.000  O
  O45      1.0000 0.87550  0.02530  0.55787  Biso   1.000  O
  O46      1.0000 0.91550  0.78260  0.60540  Biso   1.000  O
  O47      1.0000 0.94030  0.99390  0.67350  Biso   1.000  O
  O48      1.0000 0.89330  0.29740  0.89071  Biso   1.000  O
  O49      1.0000 0.17560  0.21220  0.07962  Biso   1.000  O
  O50      1.0000 0.59120  0.99740  0.55518  Biso   1.000  O
  O51      1.0000 0.68750  0.28570  0.02248  Biso   1.000  O
  O52      1.0000 0.21240  0.45600  0.03204  Biso   1.000  O
  O53      1.0000 0.13730  0.92710  0.57091  Biso   1.000  O
  O54      1.0000 0.41090  0.81440  0.53872  Biso   1.000  O
  O55      1.0000 0.88000  0.29090  0.64603  Biso   1.000  O
  O56      1.0000 0.46130  0.16410  0.07181  Biso   1.000  O
  H2       1.0000 0.47200  0.89200  0.65900  Biso   1.000  H
