data_image0
_cell_length_a       16.2527
_cell_length_b       12.3588
_cell_length_c       17.4471
_cell_angle_alpha    90
_cell_angle_beta     114.657
_cell_angle_gamma    90

_symmetry_space_group_name_H-M    "P 1"
_symmetry_int_tables_number       1

loop_
  _symmetry_equiv_pos_as_xyz
  'x, y, z'

loop_
  _atom_site_label
  _atom_site_occupancy
  _atom_site_fract_x
  _atom_site_fract_y
  _atom_site_fract_z
  _atom_site_thermal_displace_type
  _atom_site_B_iso_or_equiv
  _atom_site_type_symbol
  Cu1      1.0000 0.38111  0.39912  0.12487  Biso   1.000  Cu
  Cu2      1.0000 0.46858  0.33072  0.04226  Biso   1.000  Cu
  Cu3      1.0000 0.92410  0.38380  0.07140  Biso   1.000  Cu
  N1       1.0000 0.02890  0.37460  0.04950  Biso   1.000  N
  N2       1.0000 0.27410  0.36360  0.02180  Biso   1.000  N
  N3       1.0000 0.35450  0.30730  0.94690  Biso   1.000  N
  N4       1.0000 0.36990  0.18900  0.72650  Biso   1.000  N
  N5       1.0000 0.50420  0.69280  0.38010  Biso   1.000  N
  N6       1.0000 0.49010  0.48770  0.18250  Biso   1.000  N
  N7       1.0000 0.56960  0.42250  0.10820  Biso   1.000  N
  N8       1.0000 0.81350  0.39160  0.08060  Biso   1.000  N
  C1       1.0000 0.09740  0.44080  0.09090  Biso   1.000  C
  H1       1.0000 0.09080  0.49080  0.12780  Biso   1.000  H
  C2       1.0000 0.17800  0.43920  0.08200  Biso   1.000  C
  H2       1.0000 0.22480  0.48590  0.11370  Biso   1.000  H
  C3       1.0000 0.18910  0.36680  0.02480  Biso   1.000  C
  C4       1.0000 0.11720  0.30290  0.98120  Biso   1.000  C
  H3       1.0000 0.12040  0.25420  0.94200  Biso   1.000  H
  C5       1.0000 0.03810  0.30880  0.99410  Biso   1.000  C
  H4       1.0000 0.98970  0.26440  0.96220  Biso   1.000  H
  C6       1.0000 0.27690  0.32410  0.95180  Biso   1.000  C
  H5       1.0000 0.22310  0.30810  0.90570  Biso   1.000  H
  C7       1.0000 0.43740  0.18090  0.80300  Biso   1.000  C
  H6       1.0000 0.49050  0.14730  0.80770  Biso   1.000  H
  C8       1.0000 0.43360  0.21930  0.87580  Biso   1.000  C
  H7       1.0000 0.48360  0.21260  0.92730  Biso   1.000  H
  C9       1.0000 0.35440  0.26830  0.87170  Biso   1.000  C
  C10      1.0000 0.28540  0.28280  0.79090  Biso   1.000  C
  H8       1.0000 0.23290  0.32010  0.78360  Biso   1.000  H
  C11      1.0000 0.29590  0.24140  0.72210  Biso   1.000  C
  H9       1.0000 0.24850  0.25050  0.66920  Biso   1.000  H
  C12      1.0000 0.42970  0.68360  0.30830  Biso   1.000  C
  H10      1.0000 0.37960  0.72490  0.30240  Biso   1.000  H
  C13      1.0000 0.42250  0.61710  0.24280  Biso   1.000  C
  H11      1.0000 0.36880  0.61430  0.19410  Biso   1.000  H
  C14      1.0000 0.49660  0.55350  0.25010  Biso   1.000  C
  C15      1.0000 0.57350  0.55920  0.32600  Biso   1.000  C
  H12      1.0000 0.62390  0.51690  0.33460  Biso   1.000  H
  C16      1.0000 0.57390  0.62810  0.38800  Biso   1.000  C
  H13      1.0000 0.62550  0.63020  0.43850  Biso   1.000  H
  C17      1.0000 0.56400  0.48210  0.16890  Biso   1.000  C
  H14      1.0000 0.61440  0.52190  0.20360  Biso   1.000  H
  C18      1.0000 0.73180  0.37070  0.01710  Biso   1.000  C
  H15      1.0000 0.72950  0.34720  0.96560  Biso   1.000  H
  C19      1.0000 0.65160  0.38320  0.02590  Biso   1.000  C
  H16      1.0000 0.59680  0.36880  0.98040  Biso   1.000  H
  C20      1.0000 0.65250  0.41690  0.10170  Biso   1.000  C
  C21      1.0000 0.73660  0.43470  0.16770  Biso   1.000  C
  H17      1.0000 0.74060  0.45430  0.22060  Biso   1.000  H
  C22      1.0000 0.81370  0.42320  0.15470  Biso   1.000  C
  H18      1.0000 0.86910  0.43800  0.19930  Biso   1.000  H
  Cu4      1.0000 0.91140  0.36750  0.04670  Biso   1.000  Cu
  Cu5      1.0000 0.61889  0.89912  0.37513  Biso   1.000  Cu
  Cu6      1.0000 0.53142  0.83072  0.45774  Biso   1.000  Cu
  Cu7      1.0000 0.07590  0.88380  0.42860  Biso   1.000  Cu
  N9       1.0000 0.97110  0.87460  0.45050  Biso   1.000  N
  N10      1.0000 0.72590  0.86360  0.47820  Biso   1.000  N
  N11      1.0000 0.64550  0.80730  0.55310  Biso   1.000  N
  N12      1.0000 0.63010  0.68900  0.77350  Biso   1.000  N
  N13      1.0000 0.49580  0.19280  0.11990  Biso   1.000  N
  N14      1.0000 0.50990  0.98770  0.31750  Biso   1.000  N
  N15      1.0000 0.43040  0.92250  0.39180  Biso   1.000  N
  N16      1.0000 0.18650  0.89160  0.41940  Biso   1.000  N
  C23      1.0000 0.90260  0.94080  0.40910  Biso   1.000  C
  H19      1.0000 0.90920  0.99080  0.37220  Biso   1.000  H
  C24      1.0000 0.82200  0.93920  0.41800  Biso   1.000  C
  H20      1.0000 0.77520  0.98590  0.38630  Biso   1.000  H
  C25      1.0000 0.81090  0.86680  0.47520  Biso   1.000  C
  C26      1.0000 0.88280  0.80290  0.51880  Biso   1.000  C
  H21      1.0000 0.87960  0.75420  0.55800  Biso   1.000  H
  C27      1.0000 0.96190  0.80880  0.50590  Biso   1.000  C
  H22      1.0000 0.01030  0.76440  0.53780  Biso   1.000  H
  C28      1.0000 0.72310  0.82410  0.54820  Biso   1.000  C
  H23      1.0000 0.77690  0.80810  0.59430  Biso   1.000  H
  C29      1.0000 0.56260  0.68090  0.69700  Biso   1.000  C
  H24      1.0000 0.50950  0.64730  0.69230  Biso   1.000  H
  C30      1.0000 0.56640  0.71930  0.62420  Biso   1.000  C
  H25      1.0000 0.51640  0.71260  0.57270  Biso   1.000  H
  C31      1.0000 0.64560  0.76830  0.62830  Biso   1.000  C
  C32      1.0000 0.71460  0.78280  0.70910  Biso   1.000  C
  H26      1.0000 0.76710  0.82010  0.71640  Biso   1.000  H
  C33      1.0000 0.70410  0.74140  0.77790  Biso   1.000  C
  H27      1.0000 0.75150  0.75050  0.83080  Biso   1.000  H
  C34      1.0000 0.57030  0.18360  0.19170  Biso   1.000  C
  H28      1.0000 0.62040  0.22490  0.19760  Biso   1.000  H
  C35      1.0000 0.57750  0.11710  0.25720  Biso   1.000  C
  H29      1.0000 0.63120  0.11430  0.30590  Biso   1.000  H
  C36      1.0000 0.50340  0.05350  0.24990  Biso   1.000  C
  C37      1.0000 0.42650  0.05920  0.17400  Biso   1.000  C
  H30      1.0000 0.37610  0.01690  0.16540  Biso   1.000  H
  C38      1.0000 0.42610  0.12810  0.11200  Biso   1.000  C
  H31      1.0000 0.37450  0.13020  0.06150  Biso   1.000  H
  C39      1.0000 0.43600  0.98210  0.33110  Biso   1.000  C
  H32      1.0000 0.38560  0.02190  0.29640  Biso   1.000  H
  C40      1.0000 0.26820  0.87070  0.48290  Biso   1.000  C
  H33      1.0000 0.27050  0.84720  0.53440  Biso   1.000  H
  C41      1.0000 0.34840  0.88320  0.47410  Biso   1.000  C
  H34      1.0000 0.40320  0.86880  0.51960  Biso   1.000  H
  C42      1.0000 0.34750  0.91690  0.39830  Biso   1.000  C
  C43      1.0000 0.26340  0.93470  0.33230  Biso   1.000  C
  H35      1.0000 0.25940  0.95430  0.27940  Biso   1.000  H
  C44      1.0000 0.18630  0.92320  0.34530  Biso   1.000  C
  H36      1.0000 0.13090  0.93800  0.30070  Biso   1.000  H
  Cu8      1.0000 0.08860  0.86750  0.45330  Biso   1.000  Cu
  Cu9      1.0000 0.61889  0.60088  0.87513  Biso   1.000  Cu
  Cu10     1.0000 0.53142  0.66928  0.95774  Biso   1.000  Cu
  Cu11     1.0000 0.07590  0.61620  0.92860  Biso   1.000  Cu
  N17      1.0000 0.97110  0.62540  0.95050  Biso   1.000  N
  N18      1.0000 0.72590  0.63640  0.97820  Biso   1.000  N
  N19      1.0000 0.64550  0.69270  0.05310  Biso   1.000  N
  N20      1.0000 0.63010  0.81100  0.27350  Biso   1.000  N
  N21      1.0000 0.49580  0.30720  0.61990  Biso   1.000  N
  N22      1.0000 0.50990  0.51230  0.81750  Biso   1.000  N
  N23      1.0000 0.43040  0.57750  0.89180  Biso   1.000  N
  N24      1.0000 0.18650  0.60840  0.91940  Biso   1.000  N
  C45      1.0000 0.90260  0.55920  0.90910  Biso   1.000  C
  H37      1.0000 0.90920  0.50920  0.87220  Biso   1.000  H
  C46      1.0000 0.82200  0.56080  0.91800  Biso   1.000  C
  H38      1.0000 0.77520  0.51410  0.88630  Biso   1.000  H
  C47      1.0000 0.81090  0.63320  0.97520  Biso   1.000  C
  C48      1.0000 0.88280  0.69710  0.01880  Biso   1.000  C
  H39      1.0000 0.87960  0.74580  0.05800  Biso   1.000  H
  C49      1.0000 0.96190  0.69120  0.00590  Biso   1.000  C
  H40      1.0000 0.01030  0.73560  0.03780  Biso   1.000  H
  C50      1.0000 0.72310  0.67590  0.04820  Biso   1.000  C
  H41      1.0000 0.77690  0.69190  0.09430  Biso   1.000  H
  C51      1.0000 0.56260  0.81910  0.19700  Biso   1.000  C
  H42      1.0000 0.50950  0.85270  0.19230  Biso   1.000  H
  C52      1.0000 0.56640  0.78070  0.12420  Biso   1.000  C
  H43      1.0000 0.51640  0.78740  0.07270  Biso   1.000  H
  C53      1.0000 0.64560  0.73170  0.12830  Biso   1.000  C
  C54      1.0000 0.71460  0.71720  0.20910  Biso   1.000  C
  H44      1.0000 0.76710  0.67990  0.21640  Biso   1.000  H
  C55      1.0000 0.70410  0.75860  0.27790  Biso   1.000  C
  H45      1.0000 0.75150  0.74950  0.33080  Biso   1.000  H
  C56      1.0000 0.57030  0.31640  0.69170  Biso   1.000  C
  H46      1.0000 0.62040  0.27510  0.69760  Biso   1.000  H
  C57      1.0000 0.57750  0.38290  0.75720  Biso   1.000  C
  H47      1.0000 0.63120  0.38570  0.80590  Biso   1.000  H
  C58      1.0000 0.50340  0.44650  0.74990  Biso   1.000  C
  C59      1.0000 0.42650  0.44080  0.67400  Biso   1.000  C
  H48      1.0000 0.37610  0.48310  0.66540  Biso   1.000  H
  C60      1.0000 0.42610  0.37190  0.61200  Biso   1.000  C
  H49      1.0000 0.37450  0.36980  0.56150  Biso   1.000  H
  C61      1.0000 0.43600  0.51790  0.83110  Biso   1.000  C
  H50      1.0000 0.38560  0.47810  0.79640  Biso   1.000  H
  C62      1.0000 0.26820  0.62930  0.98290  Biso   1.000  C
  H51      1.0000 0.27050  0.65280  0.03440  Biso   1.000  H
  C63      1.0000 0.34840  0.61680  0.97410  Biso   1.000  C
  H52      1.0000 0.40320  0.63120  0.01960  Biso   1.000  H
  C64      1.0000 0.34750  0.58310  0.89830  Biso   1.000  C
  C65      1.0000 0.26340  0.56530  0.83230  Biso   1.000  C
  H53      1.0000 0.25940  0.54570  0.77940  Biso   1.000  H
  C66      1.0000 0.18630  0.57680  0.84530  Biso   1.000  C
  H54      1.0000 0.13090  0.56200  0.80070  Biso   1.000  H
  Cu12     1.0000 0.08860  0.63250  0.95330  Biso   1.000  Cu
  Cu13     1.0000 0.38111  0.10088  0.62487  Biso   1.000  Cu
  Cu14     1.0000 0.46858  0.16928  0.54226  Biso   1.000  Cu
  Cu15     1.0000 0.92410  0.11620  0.57140  Biso   1.000  Cu
  N25      1.0000 0.02890  0.12540  0.54950  Biso   1.000  N
  N26      1.0000 0.27410  0.13640  0.52180  Biso   1.000  N
  N27      1.0000 0.35450  0.19270  0.44690  Biso   1.000  N
  N28      1.0000 0.36990  0.31100  0.22650  Biso   1.000  N
  N29      1.0000 0.50420  0.80720  0.88010  Biso   1.000  N
  N30      1.0000 0.49010  0.01230  0.68250  Biso   1.000  N
  N31      1.0000 0.56960  0.07750  0.60820  Biso   1.000  N
  N32      1.0000 0.81350  0.10840  0.58060  Biso   1.000  N
  C67      1.0000 0.09740  0.05920  0.59090  Biso   1.000  C
  H55      1.0000 0.09080  0.00920  0.62780  Biso   1.000  H
  C68      1.0000 0.17800  0.06080  0.58200  Biso   1.000  C
  H56      1.0000 0.22480  0.01410  0.61370  Biso   1.000  H
  C69      1.0000 0.18910  0.13320  0.52480  Biso   1.000  C
  C70      1.0000 0.11720  0.19710  0.48120  Biso   1.000  C
  H57      1.0000 0.12040  0.24580  0.44200  Biso   1.000  H
  C71      1.0000 0.03810  0.19120  0.49410  Biso   1.000  C
  H58      1.0000 0.98970  0.23560  0.46220  Biso   1.000  H
  C72      1.0000 0.27690  0.17590  0.45180  Biso   1.000  C
  H59      1.0000 0.22310  0.19190  0.40570  Biso   1.000  H
  C73      1.0000 0.43740  0.31910  0.30300  Biso   1.000  C
  H60      1.0000 0.49050  0.35270  0.30770  Biso   1.000  H
  C74      1.0000 0.43360  0.28070  0.37580  Biso   1.000  C
  H61      1.0000 0.48360  0.28740  0.42730  Biso   1.000  H
  C75      1.0000 0.35440  0.23170  0.37170  Biso   1.000  C
  C76      1.0000 0.28540  0.21720  0.29090  Biso   1.000  C
  H62      1.0000 0.23290  0.17990  0.28360  Biso   1.000  H
  C77      1.0000 0.29590  0.25860  0.22210  Biso   1.000  C
  H63      1.0000 0.24850  0.24950  0.16920  Biso   1.000  H
  C78      1.0000 0.42970  0.81640  0.80830  Biso   1.000  C
  H64      1.0000 0.37960  0.77510  0.80240  Biso   1.000  H
  C79      1.0000 0.42250  0.88290  0.74280  Biso   1.000  C
  H65      1.0000 0.36880  0.88570  0.69410  Biso   1.000  H
  C80      1.0000 0.49660  0.94650  0.75010  Biso   1.000  C
  C81      1.0000 0.57350  0.94080  0.82600  Biso   1.000  C
  H66      1.0000 0.62390  0.98310  0.83460  Biso   1.000  H
  C82      1.0000 0.57390  0.87190  0.88800  Biso   1.000  C
  H67      1.0000 0.62550  0.86980  0.93850  Biso   1.000  H
  C83      1.0000 0.56400  0.01790  0.66890  Biso   1.000  C
  H68      1.0000 0.61440  0.97810  0.70360  Biso   1.000  H
  C84      1.0000 0.73180  0.12930  0.51710  Biso   1.000  C
  H69      1.0000 0.72950  0.15280  0.46560  Biso   1.000  H
  C85      1.0000 0.65160  0.11680  0.52590  Biso   1.000  C
  H70      1.0000 0.59680  0.13120  0.48040  Biso   1.000  H
  C86      1.0000 0.65250  0.08310  0.60170  Biso   1.000  C
  C87      1.0000 0.73660  0.06530  0.66770  Biso   1.000  C
  H71      1.0000 0.74060  0.04570  0.72060  Biso   1.000  H
  C88      1.0000 0.81370  0.07680  0.65470  Biso   1.000  C
  H72      1.0000 0.86910  0.06200  0.69930  Biso   1.000  H
  Cu16     1.0000 0.91140  0.13250  0.54670  Biso   1.000  Cu
