data_image0
_cell_length_a       25.4084
_cell_length_b       25.4084
_cell_length_c       25.4084
_cell_angle_alpha    90
_cell_angle_beta     90
_cell_angle_gamma    90

_symmetry_space_group_name_H-M    "P 1"
_symmetry_int_tables_number       1

loop_
  _symmetry_equiv_pos_as_xyz
  'x, y, z'

loop_
  _atom_site_label
  _atom_site_occupancy
  _atom_site_fract_x
  _atom_site_fract_y
  _atom_site_fract_z
  _atom_site_thermal_displace_type
  _atom_site_B_iso_or_equiv
  _atom_site_type_symbol
  C1       1.0000 0.63970  0.67510  0.95950  Biso   1.000  C
  H1       1.0000 0.61480  0.67490  0.93100  Biso   1.000  H
  C2       1.0000 0.67870  0.71400  0.96140  Biso   1.000  C
  H2       1.0000 0.67940  0.74100  0.93490  Biso   1.000  H
  C3       1.0000 0.36030  0.32490  0.95950  Biso   1.000  C
  H3       1.0000 0.38520  0.32510  0.93100  Biso   1.000  H
  C4       1.0000 0.32130  0.28600  0.96140  Biso   1.000  C
  H4       1.0000 0.32060  0.25900  0.93490  Biso   1.000  H
  C5       1.0000 0.36030  0.67510  0.04050  Biso   1.000  C
  H5       1.0000 0.38520  0.67490  0.06900  Biso   1.000  H
  C6       1.0000 0.32130  0.71400  0.03860  Biso   1.000  C
  H6       1.0000 0.32060  0.74100  0.06510  Biso   1.000  H
  C7       1.0000 0.63970  0.32490  0.04050  Biso   1.000  C
  H7       1.0000 0.61480  0.32510  0.06900  Biso   1.000  H
  C8       1.0000 0.67870  0.28600  0.03860  Biso   1.000  C
  H8       1.0000 0.67940  0.25900  0.06510  Biso   1.000  H
  C9       1.0000 0.95950  0.63970  0.67510  Biso   1.000  C
  H9       1.0000 0.93100  0.61480  0.67490  Biso   1.000  H
  C10      1.0000 0.96140  0.67870  0.71400  Biso   1.000  C
  H10      1.0000 0.93490  0.67940  0.74100  Biso   1.000  H
  C11      1.0000 0.95950  0.36030  0.32490  Biso   1.000  C
  H11      1.0000 0.93100  0.38520  0.32510  Biso   1.000  H
  C12      1.0000 0.96140  0.32130  0.28600  Biso   1.000  C
  H12      1.0000 0.93490  0.32060  0.25900  Biso   1.000  H
  C13      1.0000 0.04050  0.36030  0.67510  Biso   1.000  C
  H13      1.0000 0.06900  0.38520  0.67490  Biso   1.000  H
  C14      1.0000 0.03860  0.32130  0.71400  Biso   1.000  C
  H14      1.0000 0.06510  0.32060  0.74100  Biso   1.000  H
  C15      1.0000 0.04050  0.63970  0.32490  Biso   1.000  C
  H15      1.0000 0.06900  0.61480  0.32510  Biso   1.000  H
  C16      1.0000 0.03860  0.67870  0.28600  Biso   1.000  C
  H16      1.0000 0.06510  0.67940  0.25900  Biso   1.000  H
  C17      1.0000 0.67510  0.95950  0.63970  Biso   1.000  C
  H17      1.0000 0.67490  0.93100  0.61480  Biso   1.000  H
  C18      1.0000 0.71400  0.96140  0.67870  Biso   1.000  C
  H18      1.0000 0.74100  0.93490  0.67940  Biso   1.000  H
  C19      1.0000 0.32490  0.95950  0.36030  Biso   1.000  C
  H19      1.0000 0.32510  0.93100  0.38520  Biso   1.000  H
  C20      1.0000 0.28600  0.96140  0.32130  Biso   1.000  C
  H20      1.0000 0.25900  0.93490  0.32060  Biso   1.000  H
  C21      1.0000 0.67510  0.04050  0.36030  Biso   1.000  C
  H21      1.0000 0.67490  0.06900  0.38520  Biso   1.000  H
  C22      1.0000 0.71400  0.03860  0.32130  Biso   1.000  C
  H22      1.0000 0.74100  0.06510  0.32060  Biso   1.000  H
  C23      1.0000 0.32490  0.04050  0.63970  Biso   1.000  C
  H23      1.0000 0.32510  0.06900  0.61480  Biso   1.000  H
  C24      1.0000 0.28600  0.03860  0.67870  Biso   1.000  C
  H24      1.0000 0.25900  0.06510  0.67940  Biso   1.000  H
  C25      1.0000 0.67510  0.63970  0.04050  Biso   1.000  C
  H25      1.0000 0.67490  0.61480  0.06900  Biso   1.000  H
  C26      1.0000 0.71400  0.67870  0.03860  Biso   1.000  C
  H26      1.0000 0.74100  0.67940  0.06510  Biso   1.000  H
  C27      1.0000 0.32490  0.36030  0.04050  Biso   1.000  C
  H27      1.0000 0.32510  0.38520  0.06900  Biso   1.000  H
  C28      1.0000 0.28600  0.32130  0.03860  Biso   1.000  C
  H28      1.0000 0.25900  0.32060  0.06510  Biso   1.000  H
  C29      1.0000 0.67510  0.36030  0.95950  Biso   1.000  C
  H29      1.0000 0.67490  0.38520  0.93100  Biso   1.000  H
  C30      1.0000 0.71400  0.32130  0.96140  Biso   1.000  C
  H30      1.0000 0.74100  0.32060  0.93490  Biso   1.000  H
  C31      1.0000 0.32490  0.63970  0.95950  Biso   1.000  C
  H31      1.0000 0.32510  0.61480  0.93100  Biso   1.000  H
  C32      1.0000 0.28600  0.67870  0.96140  Biso   1.000  C
  H32      1.0000 0.25900  0.67940  0.93490  Biso   1.000  H
  C33      1.0000 0.63970  0.95950  0.32490  Biso   1.000  C
  H33      1.0000 0.61480  0.93100  0.32510  Biso   1.000  H
  C34      1.0000 0.67870  0.96140  0.28600  Biso   1.000  C
  H34      1.0000 0.67940  0.93490  0.25900  Biso   1.000  H
  C35      1.0000 0.36030  0.95950  0.67510  Biso   1.000  C
  H35      1.0000 0.38520  0.93100  0.67490  Biso   1.000  H
  C36      1.0000 0.32130  0.96140  0.71400  Biso   1.000  C
  H36      1.0000 0.32060  0.93490  0.74100  Biso   1.000  H
  C37      1.0000 0.36030  0.04050  0.32490  Biso   1.000  C
  H37      1.0000 0.38520  0.06900  0.32510  Biso   1.000  H
  C38      1.0000 0.32130  0.03860  0.28600  Biso   1.000  C
  H38      1.0000 0.32060  0.06510  0.25900  Biso   1.000  H
  C39      1.0000 0.63970  0.04050  0.67510  Biso   1.000  C
  H39      1.0000 0.61480  0.06900  0.67490  Biso   1.000  H
  C40      1.0000 0.67870  0.03860  0.71400  Biso   1.000  C
  H40      1.0000 0.67940  0.06510  0.74100  Biso   1.000  H
  C41      1.0000 0.95950  0.67510  0.36030  Biso   1.000  C
  H41      1.0000 0.93100  0.67490  0.38520  Biso   1.000  H
  C42      1.0000 0.96140  0.71400  0.32130  Biso   1.000  C
  H42      1.0000 0.93490  0.74100  0.32060  Biso   1.000  H
  C43      1.0000 0.95950  0.32490  0.63970  Biso   1.000  C
  H43      1.0000 0.93100  0.32510  0.61480  Biso   1.000  H
  C44      1.0000 0.96140  0.28600  0.67870  Biso   1.000  C
  H44      1.0000 0.93490  0.25900  0.67940  Biso   1.000  H
  C45      1.0000 0.04050  0.67510  0.63970  Biso   1.000  C
  H45      1.0000 0.06900  0.67490  0.61480  Biso   1.000  H
  C46      1.0000 0.03860  0.71400  0.67870  Biso   1.000  C
  H46      1.0000 0.06510  0.74100  0.67940  Biso   1.000  H
  C47      1.0000 0.04050  0.32490  0.36030  Biso   1.000  C
  H47      1.0000 0.06900  0.32510  0.38520  Biso   1.000  H
  C48      1.0000 0.03860  0.28600  0.32130  Biso   1.000  C
  H48      1.0000 0.06510  0.25900  0.32060  Biso   1.000  H
  C49      1.0000 0.36030  0.32490  0.04050  Biso   1.000  C
  H49      1.0000 0.38520  0.32510  0.06900  Biso   1.000  H
  C50      1.0000 0.32130  0.28600  0.03860  Biso   1.000  C
  H50      1.0000 0.32060  0.25900  0.06510  Biso   1.000  H
  C51      1.0000 0.63970  0.67510  0.04050  Biso   1.000  C
  H51      1.0000 0.61480  0.67490  0.06900  Biso   1.000  H
  C52      1.0000 0.67870  0.71400  0.03860  Biso   1.000  C
  H52      1.0000 0.67940  0.74100  0.06510  Biso   1.000  H
  C53      1.0000 0.63970  0.32490  0.95950  Biso   1.000  C
  H53      1.0000 0.61480  0.32510  0.93100  Biso   1.000  H
  C54      1.0000 0.67870  0.28600  0.96140  Biso   1.000  C
  H54      1.0000 0.67940  0.25900  0.93490  Biso   1.000  H
  C55      1.0000 0.36030  0.67510  0.95950  Biso   1.000  C
  H55      1.0000 0.38520  0.67490  0.93100  Biso   1.000  H
  C56      1.0000 0.32130  0.71400  0.96140  Biso   1.000  C
  H56      1.0000 0.32060  0.74100  0.93490  Biso   1.000  H
  C57      1.0000 0.04050  0.36030  0.32490  Biso   1.000  C
  H57      1.0000 0.06900  0.38520  0.32510  Biso   1.000  H
  C58      1.0000 0.03860  0.32130  0.28600  Biso   1.000  C
  H58      1.0000 0.06510  0.32060  0.25900  Biso   1.000  H
  C59      1.0000 0.04050  0.63970  0.67510  Biso   1.000  C
  H59      1.0000 0.06900  0.61480  0.67490  Biso   1.000  H
  C60      1.0000 0.03860  0.67870  0.71400  Biso   1.000  C
  H60      1.0000 0.06510  0.67940  0.74100  Biso   1.000  H
  C61      1.0000 0.95950  0.63970  0.32490  Biso   1.000  C
  H61      1.0000 0.93100  0.61480  0.32510  Biso   1.000  H
  C62      1.0000 0.96140  0.67870  0.28600  Biso   1.000  C
  H62      1.0000 0.93490  0.67940  0.25900  Biso   1.000  H
  C63      1.0000 0.95950  0.36030  0.67510  Biso   1.000  C
  H63      1.0000 0.93100  0.38520  0.67490  Biso   1.000  H
  C64      1.0000 0.96140  0.32130  0.71400  Biso   1.000  C
  H64      1.0000 0.93490  0.32060  0.74100  Biso   1.000  H
  C65      1.0000 0.32490  0.04050  0.36030  Biso   1.000  C
  H65      1.0000 0.32510  0.06900  0.38520  Biso   1.000  H
  C66      1.0000 0.28600  0.03860  0.32130  Biso   1.000  C
  H66      1.0000 0.25900  0.06510  0.32060  Biso   1.000  H
  C67      1.0000 0.67510  0.04050  0.63970  Biso   1.000  C
  H67      1.0000 0.67490  0.06900  0.61480  Biso   1.000  H
  C68      1.0000 0.71400  0.03860  0.67870  Biso   1.000  C
  H68      1.0000 0.74100  0.06510  0.67940  Biso   1.000  H
  C69      1.0000 0.32490  0.95950  0.63970  Biso   1.000  C
  H69      1.0000 0.32510  0.93100  0.61480  Biso   1.000  H
  C70      1.0000 0.28600  0.96140  0.67870  Biso   1.000  C
  H70      1.0000 0.25900  0.93490  0.67940  Biso   1.000  H
  C71      1.0000 0.67510  0.95950  0.36030  Biso   1.000  C
  H71      1.0000 0.67490  0.93100  0.38520  Biso   1.000  H
  C72      1.0000 0.71400  0.96140  0.32130  Biso   1.000  C
  H72      1.0000 0.74100  0.93490  0.32060  Biso   1.000  H
  C73      1.0000 0.32490  0.36030  0.95950  Biso   1.000  C
  H73      1.0000 0.32510  0.38520  0.93100  Biso   1.000  H
  C74      1.0000 0.28600  0.32130  0.96140  Biso   1.000  C
  H74      1.0000 0.25900  0.32060  0.93490  Biso   1.000  H
  C75      1.0000 0.67510  0.63970  0.95950  Biso   1.000  C
  H75      1.0000 0.67490  0.61480  0.93100  Biso   1.000  H
  C76      1.0000 0.71400  0.67870  0.96140  Biso   1.000  C
  H76      1.0000 0.74100  0.67940  0.93490  Biso   1.000  H
  C77      1.0000 0.32490  0.63970  0.04050  Biso   1.000  C
  H77      1.0000 0.32510  0.61480  0.06900  Biso   1.000  H
  C78      1.0000 0.28600  0.67870  0.03860  Biso   1.000  C
  H78      1.0000 0.25900  0.67940  0.06510  Biso   1.000  H
  C79      1.0000 0.67510  0.36030  0.04050  Biso   1.000  C
  H79      1.0000 0.67490  0.38520  0.06900  Biso   1.000  H
  C80      1.0000 0.71400  0.32130  0.03860  Biso   1.000  C
  H80      1.0000 0.74100  0.32060  0.06510  Biso   1.000  H
  C81      1.0000 0.36030  0.04050  0.67510  Biso   1.000  C
  H81      1.0000 0.38520  0.06900  0.67490  Biso   1.000  H
  C82      1.0000 0.32130  0.03860  0.71400  Biso   1.000  C
  H82      1.0000 0.32060  0.06510  0.74100  Biso   1.000  H
  C83      1.0000 0.63970  0.04050  0.32490  Biso   1.000  C
  H83      1.0000 0.61480  0.06900  0.32510  Biso   1.000  H
  C84      1.0000 0.67870  0.03860  0.28600  Biso   1.000  C
  H84      1.0000 0.67940  0.06510  0.25900  Biso   1.000  H
  C85      1.0000 0.63970  0.95950  0.67510  Biso   1.000  C
  H85      1.0000 0.61480  0.93100  0.67490  Biso   1.000  H
  C86      1.0000 0.67870  0.96140  0.71400  Biso   1.000  C
  H86      1.0000 0.67940  0.93490  0.74100  Biso   1.000  H
  C87      1.0000 0.36030  0.95950  0.32490  Biso   1.000  C
  H87      1.0000 0.38520  0.93100  0.32510  Biso   1.000  H
  C88      1.0000 0.32130  0.96140  0.28600  Biso   1.000  C
  H88      1.0000 0.32060  0.93490  0.25900  Biso   1.000  H
  C89      1.0000 0.04050  0.32490  0.63970  Biso   1.000  C
  H89      1.0000 0.06900  0.32510  0.61480  Biso   1.000  H
  C90      1.0000 0.03860  0.28600  0.67870  Biso   1.000  C
  H90      1.0000 0.06510  0.25900  0.67940  Biso   1.000  H
  C91      1.0000 0.04050  0.67510  0.36030  Biso   1.000  C
  H91      1.0000 0.06900  0.67490  0.38520  Biso   1.000  H
  C92      1.0000 0.03860  0.71400  0.32130  Biso   1.000  C
  H92      1.0000 0.06510  0.74100  0.32060  Biso   1.000  H
  C93      1.0000 0.95950  0.32490  0.36030  Biso   1.000  C
  H93      1.0000 0.93100  0.32510  0.38520  Biso   1.000  H
  C94      1.0000 0.96140  0.28600  0.32130  Biso   1.000  C
  H94      1.0000 0.93490  0.25900  0.32060  Biso   1.000  H
  C95      1.0000 0.95950  0.67510  0.63970  Biso   1.000  C
  H95      1.0000 0.93100  0.67490  0.61480  Biso   1.000  H
  C96      1.0000 0.96140  0.71400  0.67870  Biso   1.000  C
  H96      1.0000 0.93490  0.74100  0.67940  Biso   1.000  H
  Zr1      1.0000 0.00000  0.90239  0.00000  Biso   1.000  Zr
  Zr2      1.0000 0.00000  0.09761  0.00000  Biso   1.000  Zr
  Zr3      1.0000 0.00000  0.00000  0.90239  Biso   1.000  Zr
  Zr4      1.0000 0.00000  0.00000  0.09761  Biso   1.000  Zr
  Zr5      1.0000 0.90239  0.00000  0.00000  Biso   1.000  Zr
  Zr6      1.0000 0.09761  0.00000  0.00000  Biso   1.000  Zr
  Zn1      1.0000 0.50000  0.50000  0.00000  Biso   1.000  Zn
  Zn2      1.0000 0.00000  0.50000  0.50000  Biso   1.000  Zn
  Zn3      1.0000 0.50000  0.00000  0.50000  Biso   1.000  Zn
  O1       1.0000 0.95200  0.95200  0.95200  Biso   1.000  O
  O2       1.0000 0.04800  0.04800  0.95200  Biso   1.000  O
  O3       1.0000 0.04800  0.95200  0.04800  Biso   1.000  O
  O4       1.0000 0.95200  0.04800  0.04800  Biso   1.000  O
  O5       1.0000 0.95200  0.95200  0.04800  Biso   1.000  O
  O6       1.0000 0.04800  0.04800  0.04800  Biso   1.000  O
  O7       1.0000 0.95200  0.04800  0.95200  Biso   1.000  O
  O8       1.0000 0.04800  0.95200  0.95200  Biso   1.000  O
  O9       1.0000 0.92360  0.85990  0.00000  Biso   1.000  O
  C97      1.0000 0.84680  0.78160  0.00000  Biso   1.000  C
  H97      1.0000 0.88190  0.77120  0.00000  Biso   1.000  H
  C98      1.0000 0.80730  0.74420  0.00000  Biso   1.000  C
  H98      1.0000 0.81670  0.70890  0.00000  Biso   1.000  H
  C99      1.0000 0.61210  0.54320  0.00000  Biso   1.000  C
  C100     1.0000 0.66640  0.52640  0.00000  Biso   1.000  C
  H99      1.0000 0.69580  0.54810  0.00000  Biso   1.000  H
  O10      1.0000 0.07640  0.14010  0.00000  Biso   1.000  O
  C101     1.0000 0.15320  0.21840  0.00000  Biso   1.000  C
  H100     1.0000 0.11810  0.22880  0.00000  Biso   1.000  H
  C102     1.0000 0.19270  0.25580  0.00000  Biso   1.000  C
  H101     1.0000 0.18330  0.29110  0.00000  Biso   1.000  H
  C103     1.0000 0.38790  0.45680  0.00000  Biso   1.000  C
  C104     1.0000 0.33360  0.47360  0.00000  Biso   1.000  C
  H102     1.0000 0.30420  0.45190  0.00000  Biso   1.000  H
  O11      1.0000 0.07640  0.85990  0.00000  Biso   1.000  O
  C105     1.0000 0.15320  0.78160  0.00000  Biso   1.000  C
  H103     1.0000 0.11810  0.77120  0.00000  Biso   1.000  H
  C106     1.0000 0.19270  0.74420  0.00000  Biso   1.000  C
  H104     1.0000 0.18330  0.70890  0.00000  Biso   1.000  H
  C107     1.0000 0.38790  0.54320  0.00000  Biso   1.000  C
  C108     1.0000 0.33360  0.52640  0.00000  Biso   1.000  C
  H105     1.0000 0.30420  0.54810  0.00000  Biso   1.000  H
  O12      1.0000 0.92360  0.14010  0.00000  Biso   1.000  O
  C109     1.0000 0.84680  0.21840  0.00000  Biso   1.000  C
  H106     1.0000 0.88190  0.22880  0.00000  Biso   1.000  H
  C110     1.0000 0.80730  0.25580  0.00000  Biso   1.000  C
  H107     1.0000 0.81670  0.29110  0.00000  Biso   1.000  H
  C111     1.0000 0.61210  0.45680  0.00000  Biso   1.000  C
  C112     1.0000 0.66640  0.47360  0.00000  Biso   1.000  C
  H108     1.0000 0.69580  0.45190  0.00000  Biso   1.000  H
  O13      1.0000 0.00000  0.92360  0.85990  Biso   1.000  O
  C113     1.0000 0.00000  0.84680  0.78160  Biso   1.000  C
  H109     1.0000 0.00000  0.88190  0.77120  Biso   1.000  H
  C114     1.0000 0.00000  0.80730  0.74420  Biso   1.000  C
  H110     1.0000 0.00000  0.81670  0.70890  Biso   1.000  H
  C115     1.0000 0.00000  0.61210  0.54320  Biso   1.000  C
  C116     1.0000 0.00000  0.66640  0.52640  Biso   1.000  C
  H111     1.0000 0.00000  0.69580  0.54810  Biso   1.000  H
  O14      1.0000 0.00000  0.07640  0.14010  Biso   1.000  O
  C117     1.0000 0.00000  0.15320  0.21840  Biso   1.000  C
  H112     1.0000 0.00000  0.11810  0.22880  Biso   1.000  H
  C118     1.0000 0.00000  0.19270  0.25580  Biso   1.000  C
  H113     1.0000 0.00000  0.18330  0.29110  Biso   1.000  H
  C119     1.0000 0.00000  0.38790  0.45680  Biso   1.000  C
  C120     1.0000 0.00000  0.33360  0.47360  Biso   1.000  C
  H114     1.0000 0.00000  0.30420  0.45190  Biso   1.000  H
  O15      1.0000 0.00000  0.07640  0.85990  Biso   1.000  O
  C121     1.0000 0.00000  0.15320  0.78160  Biso   1.000  C
  H115     1.0000 0.00000  0.11810  0.77120  Biso   1.000  H
  C122     1.0000 0.00000  0.19270  0.74420  Biso   1.000  C
  H116     1.0000 0.00000  0.18330  0.70890  Biso   1.000  H
  C123     1.0000 0.00000  0.38790  0.54320  Biso   1.000  C
  C124     1.0000 0.00000  0.33360  0.52640  Biso   1.000  C
  H117     1.0000 0.00000  0.30420  0.54810  Biso   1.000  H
  O16      1.0000 0.00000  0.92360  0.14010  Biso   1.000  O
  C125     1.0000 0.00000  0.84680  0.21840  Biso   1.000  C
  H118     1.0000 0.00000  0.88190  0.22880  Biso   1.000  H
  C126     1.0000 0.00000  0.80730  0.25580  Biso   1.000  C
  H119     1.0000 0.00000  0.81670  0.29110  Biso   1.000  H
  C127     1.0000 0.00000  0.61210  0.45680  Biso   1.000  C
  C128     1.0000 0.00000  0.66640  0.47360  Biso   1.000  C
  H120     1.0000 0.00000  0.69580  0.45190  Biso   1.000  H
  O17      1.0000 0.85990  0.00000  0.92360  Biso   1.000  O
  C129     1.0000 0.78160  0.00000  0.84680  Biso   1.000  C
  H121     1.0000 0.77120  0.00000  0.88190  Biso   1.000  H
  C130     1.0000 0.74420  0.00000  0.80730  Biso   1.000  C
  H122     1.0000 0.70890  0.00000  0.81670  Biso   1.000  H
  C131     1.0000 0.54320  0.00000  0.61210  Biso   1.000  C
  C132     1.0000 0.52640  0.00000  0.66640  Biso   1.000  C
  H123     1.0000 0.54810  0.00000  0.69580  Biso   1.000  H
  O18      1.0000 0.14010  0.00000  0.07640  Biso   1.000  O
  C133     1.0000 0.21840  0.00000  0.15320  Biso   1.000  C
  H124     1.0000 0.22880  0.00000  0.11810  Biso   1.000  H
  C134     1.0000 0.25580  0.00000  0.19270  Biso   1.000  C
  H125     1.0000 0.29110  0.00000  0.18330  Biso   1.000  H
  C135     1.0000 0.45680  0.00000  0.38790  Biso   1.000  C
  C136     1.0000 0.47360  0.00000  0.33360  Biso   1.000  C
  H126     1.0000 0.45190  0.00000  0.30420  Biso   1.000  H
  O19      1.0000 0.85990  0.00000  0.07640  Biso   1.000  O
  C137     1.0000 0.78160  0.00000  0.15320  Biso   1.000  C
  H127     1.0000 0.77120  0.00000  0.11810  Biso   1.000  H
  C138     1.0000 0.74420  0.00000  0.19270  Biso   1.000  C
  H128     1.0000 0.70890  0.00000  0.18330  Biso   1.000  H
  C139     1.0000 0.54320  0.00000  0.38790  Biso   1.000  C
  C140     1.0000 0.52640  0.00000  0.33360  Biso   1.000  C
  H129     1.0000 0.54810  0.00000  0.30420  Biso   1.000  H
  O20      1.0000 0.14010  0.00000  0.92360  Biso   1.000  O
  C141     1.0000 0.21840  0.00000  0.84680  Biso   1.000  C
  H130     1.0000 0.22880  0.00000  0.88190  Biso   1.000  H
  C142     1.0000 0.25580  0.00000  0.80730  Biso   1.000  C
  H131     1.0000 0.29110  0.00000  0.81670  Biso   1.000  H
  C143     1.0000 0.45680  0.00000  0.61210  Biso   1.000  C
  C144     1.0000 0.47360  0.00000  0.66640  Biso   1.000  C
  H132     1.0000 0.45190  0.00000  0.69580  Biso   1.000  H
  O21      1.0000 0.85990  0.92360  0.00000  Biso   1.000  O
  C145     1.0000 0.78160  0.84680  0.00000  Biso   1.000  C
  H133     1.0000 0.77120  0.88190  0.00000  Biso   1.000  H
  C146     1.0000 0.74420  0.80730  0.00000  Biso   1.000  C
  H134     1.0000 0.70890  0.81670  0.00000  Biso   1.000  H
  C147     1.0000 0.54320  0.61210  0.00000  Biso   1.000  C
  C148     1.0000 0.52640  0.66640  0.00000  Biso   1.000  C
  H135     1.0000 0.54810  0.69580  0.00000  Biso   1.000  H
  O22      1.0000 0.14010  0.07640  0.00000  Biso   1.000  O
  C149     1.0000 0.21840  0.15320  0.00000  Biso   1.000  C
  H136     1.0000 0.22880  0.11810  0.00000  Biso   1.000  H
  C150     1.0000 0.25580  0.19270  0.00000  Biso   1.000  C
  H137     1.0000 0.29110  0.18330  0.00000  Biso   1.000  H
  C151     1.0000 0.45680  0.38790  0.00000  Biso   1.000  C
  C152     1.0000 0.47360  0.33360  0.00000  Biso   1.000  C
  H138     1.0000 0.45190  0.30420  0.00000  Biso   1.000  H
  O23      1.0000 0.85990  0.07640  0.00000  Biso   1.000  O
  C153     1.0000 0.78160  0.15320  0.00000  Biso   1.000  C
  H139     1.0000 0.77120  0.11810  0.00000  Biso   1.000  H
  C154     1.0000 0.74420  0.19270  0.00000  Biso   1.000  C
  H140     1.0000 0.70890  0.18330  0.00000  Biso   1.000  H
  C155     1.0000 0.54320  0.38790  0.00000  Biso   1.000  C
  C156     1.0000 0.52640  0.33360  0.00000  Biso   1.000  C
  H141     1.0000 0.54810  0.30420  0.00000  Biso   1.000  H
  O24      1.0000 0.14010  0.92360  0.00000  Biso   1.000  O
  C157     1.0000 0.21840  0.84680  0.00000  Biso   1.000  C
  H142     1.0000 0.22880  0.88190  0.00000  Biso   1.000  H
  C158     1.0000 0.25580  0.80730  0.00000  Biso   1.000  C
  H143     1.0000 0.29110  0.81670  0.00000  Biso   1.000  H
  C159     1.0000 0.45680  0.61210  0.00000  Biso   1.000  C
  C160     1.0000 0.47360  0.66640  0.00000  Biso   1.000  C
  H144     1.0000 0.45190  0.69580  0.00000  Biso   1.000  H
  O25      1.0000 0.92360  0.00000  0.14010  Biso   1.000  O
  C161     1.0000 0.84680  0.00000  0.21840  Biso   1.000  C
  H145     1.0000 0.88190  0.00000  0.22880  Biso   1.000  H
  C162     1.0000 0.80730  0.00000  0.25580  Biso   1.000  C
  H146     1.0000 0.81670  0.00000  0.29110  Biso   1.000  H
  C163     1.0000 0.61210  0.00000  0.45680  Biso   1.000  C
  C164     1.0000 0.66640  0.00000  0.47360  Biso   1.000  C
  H147     1.0000 0.69580  0.00000  0.45190  Biso   1.000  H
  O26      1.0000 0.07640  0.00000  0.85990  Biso   1.000  O
  C165     1.0000 0.15320  0.00000  0.78160  Biso   1.000  C
  H148     1.0000 0.11810  0.00000  0.77120  Biso   1.000  H
  C166     1.0000 0.19270  0.00000  0.74420  Biso   1.000  C
  H149     1.0000 0.18330  0.00000  0.70890  Biso   1.000  H
  C167     1.0000 0.38790  0.00000  0.54320  Biso   1.000  C
  C168     1.0000 0.33360  0.00000  0.52640  Biso   1.000  C
  H150     1.0000 0.30420  0.00000  0.54810  Biso   1.000  H
  O27      1.0000 0.07640  0.00000  0.14010  Biso   1.000  O
  C169     1.0000 0.15320  0.00000  0.21840  Biso   1.000  C
  H151     1.0000 0.11810  0.00000  0.22880  Biso   1.000  H
  C170     1.0000 0.19270  0.00000  0.25580  Biso   1.000  C
  H152     1.0000 0.18330  0.00000  0.29110  Biso   1.000  H
  C171     1.0000 0.38790  0.00000  0.45680  Biso   1.000  C
  C172     1.0000 0.33360  0.00000  0.47360  Biso   1.000  C
  H153     1.0000 0.30420  0.00000  0.45190  Biso   1.000  H
  O28      1.0000 0.92360  0.00000  0.85990  Biso   1.000  O
  C173     1.0000 0.84680  0.00000  0.78160  Biso   1.000  C
  H154     1.0000 0.88190  0.00000  0.77120  Biso   1.000  H
  C174     1.0000 0.80730  0.00000  0.74420  Biso   1.000  C
  H155     1.0000 0.81670  0.00000  0.70890  Biso   1.000  H
  C175     1.0000 0.61210  0.00000  0.54320  Biso   1.000  C
  C176     1.0000 0.66640  0.00000  0.52640  Biso   1.000  C
  H156     1.0000 0.69580  0.00000  0.54810  Biso   1.000  H
  O29      1.0000 0.00000  0.85990  0.07640  Biso   1.000  O
  C177     1.0000 0.00000  0.78160  0.15320  Biso   1.000  C
  H157     1.0000 0.00000  0.77120  0.11810  Biso   1.000  H
  C178     1.0000 0.00000  0.74420  0.19270  Biso   1.000  C
  H158     1.0000 0.00000  0.70890  0.18330  Biso   1.000  H
  C179     1.0000 0.00000  0.54320  0.38790  Biso   1.000  C
  C180     1.0000 0.00000  0.52640  0.33360  Biso   1.000  C
  H159     1.0000 0.00000  0.54810  0.30420  Biso   1.000  H
  O30      1.0000 0.00000  0.14010  0.92360  Biso   1.000  O
  C181     1.0000 0.00000  0.21840  0.84680  Biso   1.000  C
  H160     1.0000 0.00000  0.22880  0.88190  Biso   1.000  H
  C182     1.0000 0.00000  0.25580  0.80730  Biso   1.000  C
  H161     1.0000 0.00000  0.29110  0.81670  Biso   1.000  H
  C183     1.0000 0.00000  0.45680  0.61210  Biso   1.000  C
  C184     1.0000 0.00000  0.47360  0.66640  Biso   1.000  C
  H162     1.0000 0.00000  0.45190  0.69580  Biso   1.000  H
  O31      1.0000 0.00000  0.85990  0.92360  Biso   1.000  O
  C185     1.0000 0.00000  0.78160  0.84680  Biso   1.000  C
  H163     1.0000 0.00000  0.77120  0.88190  Biso   1.000  H
  C186     1.0000 0.00000  0.74420  0.80730  Biso   1.000  C
  H164     1.0000 0.00000  0.70890  0.81670  Biso   1.000  H
  C187     1.0000 0.00000  0.54320  0.61210  Biso   1.000  C
  C188     1.0000 0.00000  0.52640  0.66640  Biso   1.000  C
  H165     1.0000 0.00000  0.54810  0.69580  Biso   1.000  H
  O32      1.0000 0.00000  0.14010  0.07640  Biso   1.000  O
  C189     1.0000 0.00000  0.21840  0.15320  Biso   1.000  C
  H166     1.0000 0.00000  0.22880  0.11810  Biso   1.000  H
  C190     1.0000 0.00000  0.25580  0.19270  Biso   1.000  C
  H167     1.0000 0.00000  0.29110  0.18330  Biso   1.000  H
  C191     1.0000 0.00000  0.45680  0.38790  Biso   1.000  C
  C192     1.0000 0.00000  0.47360  0.33360  Biso   1.000  C
  H168     1.0000 0.00000  0.45190  0.30420  Biso   1.000  H
  C193     1.0000 0.87590  0.87590  0.00000  Biso   1.000  C
  C194     1.0000 0.83410  0.83410  0.00000  Biso   1.000  C
  C195     1.0000 0.75640  0.75640  0.00000  Biso   1.000  C
  C196     1.0000 0.71700  0.71700  0.00000  Biso   1.000  C
  C197     1.0000 0.59590  0.59590  0.00000  Biso   1.000  C
  C198     1.0000 0.63700  0.63700  0.00000  Biso   1.000  C
  C199     1.0000 0.12410  0.12410  0.00000  Biso   1.000  C
  C200     1.0000 0.16590  0.16590  0.00000  Biso   1.000  C
  C201     1.0000 0.24360  0.24360  0.00000  Biso   1.000  C
  C202     1.0000 0.28300  0.28300  0.00000  Biso   1.000  C
  C203     1.0000 0.40410  0.40410  0.00000  Biso   1.000  C
  C204     1.0000 0.36300  0.36300  0.00000  Biso   1.000  C
  C205     1.0000 0.12410  0.87590  0.00000  Biso   1.000  C
  C206     1.0000 0.16590  0.83410  0.00000  Biso   1.000  C
  C207     1.0000 0.24360  0.75640  0.00000  Biso   1.000  C
  C208     1.0000 0.28300  0.71700  0.00000  Biso   1.000  C
  C209     1.0000 0.40410  0.59590  0.00000  Biso   1.000  C
  C210     1.0000 0.36300  0.63700  0.00000  Biso   1.000  C
  C211     1.0000 0.87590  0.12410  0.00000  Biso   1.000  C
  C212     1.0000 0.83410  0.16590  0.00000  Biso   1.000  C
  C213     1.0000 0.75640  0.24360  0.00000  Biso   1.000  C
  C214     1.0000 0.71700  0.28300  0.00000  Biso   1.000  C
  C215     1.0000 0.59590  0.40410  0.00000  Biso   1.000  C
  C216     1.0000 0.63700  0.36300  0.00000  Biso   1.000  C
  C217     1.0000 0.00000  0.87590  0.87590  Biso   1.000  C
  C218     1.0000 0.00000  0.83410  0.83410  Biso   1.000  C
  C219     1.0000 0.00000  0.75640  0.75640  Biso   1.000  C
  C220     1.0000 0.00000  0.71700  0.71700  Biso   1.000  C
  C221     1.0000 0.00000  0.59590  0.59590  Biso   1.000  C
  C222     1.0000 0.00000  0.63700  0.63700  Biso   1.000  C
  C223     1.0000 0.00000  0.12410  0.12410  Biso   1.000  C
  C224     1.0000 0.00000  0.16590  0.16590  Biso   1.000  C
  C225     1.0000 0.00000  0.24360  0.24360  Biso   1.000  C
  C226     1.0000 0.00000  0.28300  0.28300  Biso   1.000  C
  C227     1.0000 0.00000  0.40410  0.40410  Biso   1.000  C
  C228     1.0000 0.00000  0.36300  0.36300  Biso   1.000  C
  C229     1.0000 0.00000  0.12410  0.87590  Biso   1.000  C
  C230     1.0000 0.00000  0.16590  0.83410  Biso   1.000  C
  C231     1.0000 0.00000  0.24360  0.75640  Biso   1.000  C
  C232     1.0000 0.00000  0.28300  0.71700  Biso   1.000  C
  C233     1.0000 0.00000  0.40410  0.59590  Biso   1.000  C
  C234     1.0000 0.00000  0.36300  0.63700  Biso   1.000  C
  C235     1.0000 0.00000  0.87590  0.12410  Biso   1.000  C
  C236     1.0000 0.00000  0.83410  0.16590  Biso   1.000  C
  C237     1.0000 0.00000  0.75640  0.24360  Biso   1.000  C
  C238     1.0000 0.00000  0.71700  0.28300  Biso   1.000  C
  C239     1.0000 0.00000  0.59590  0.40410  Biso   1.000  C
  C240     1.0000 0.00000  0.63700  0.36300  Biso   1.000  C
  C241     1.0000 0.87590  0.00000  0.87590  Biso   1.000  C
  C242     1.0000 0.83410  0.00000  0.83410  Biso   1.000  C
  C243     1.0000 0.75640  0.00000  0.75640  Biso   1.000  C
  C244     1.0000 0.71700  0.00000  0.71700  Biso   1.000  C
  C245     1.0000 0.59590  0.00000  0.59590  Biso   1.000  C
  C246     1.0000 0.63700  0.00000  0.63700  Biso   1.000  C
  C247     1.0000 0.12410  0.00000  0.12410  Biso   1.000  C
  C248     1.0000 0.16590  0.00000  0.16590  Biso   1.000  C
  C249     1.0000 0.24360  0.00000  0.24360  Biso   1.000  C
  C250     1.0000 0.28300  0.00000  0.28300  Biso   1.000  C
  C251     1.0000 0.40410  0.00000  0.40410  Biso   1.000  C
  C252     1.0000 0.36300  0.00000  0.36300  Biso   1.000  C
  C253     1.0000 0.87590  0.00000  0.12410  Biso   1.000  C
  C254     1.0000 0.83410  0.00000  0.16590  Biso   1.000  C
  C255     1.0000 0.75640  0.00000  0.24360  Biso   1.000  C
  C256     1.0000 0.71700  0.00000  0.28300  Biso   1.000  C
  C257     1.0000 0.59590  0.00000  0.40410  Biso   1.000  C
  C258     1.0000 0.63700  0.00000  0.36300  Biso   1.000  C
  C259     1.0000 0.12410  0.00000  0.87590  Biso   1.000  C
  C260     1.0000 0.16590  0.00000  0.83410  Biso   1.000  C
  C261     1.0000 0.24360  0.00000  0.75640  Biso   1.000  C
  C262     1.0000 0.28300  0.00000  0.71700  Biso   1.000  C
  C263     1.0000 0.40410  0.00000  0.59590  Biso   1.000  C
  C264     1.0000 0.36300  0.00000  0.63700  Biso   1.000  C
  N1       1.0000 0.58010  0.50000  0.00000  Biso   1.000  N
  N2       1.0000 0.41990  0.50000  0.00000  Biso   1.000  N
  N3       1.0000 0.00000  0.58010  0.50000  Biso   1.000  N
  N4       1.0000 0.00000  0.41990  0.50000  Biso   1.000  N
  N5       1.0000 0.50000  0.00000  0.58010  Biso   1.000  N
  N6       1.0000 0.50000  0.00000  0.41990  Biso   1.000  N
  N7       1.0000 0.50000  0.58010  0.00000  Biso   1.000  N
  N8       1.0000 0.50000  0.41990  0.00000  Biso   1.000  N
  N9       1.0000 0.58010  0.00000  0.50000  Biso   1.000  N
  N10      1.0000 0.41990  0.00000  0.50000  Biso   1.000  N
  N11      1.0000 0.00000  0.50000  0.41990  Biso   1.000  N
  N12      1.0000 0.00000  0.50000  0.58010  Biso   1.000  N
