data_image0
_cell_length_a       20.251
_cell_length_b       20.251
_cell_length_c       20.251
_cell_angle_alpha    90
_cell_angle_beta     90
_cell_angle_gamma    90

_symmetry_space_group_name_H-M    "P 1"
_symmetry_int_tables_number       1

loop_
  _symmetry_equiv_pos_as_xyz
  'x, y, z'

loop_
  _atom_site_label
  _atom_site_occupancy
  _atom_site_fract_x
  _atom_site_fract_y
  _atom_site_fract_z
  _atom_site_thermal_displace_type
  _atom_site_B_iso_or_equiv
  _atom_site_type_symbol
  Zn1      1.0000 0.16237  0.16237  0.16237  Biso   1.000  Zn
  Zn2      1.0000 0.26359  0.26359  0.26359  Biso   1.000  Zn
  O1       1.0000 0.32400  0.32400  0.32400  Biso   1.000  O
  Zn3      1.0000 0.83763  0.83763  0.16237  Biso   1.000  Zn
  Zn4      1.0000 0.73641  0.73641  0.26359  Biso   1.000  Zn
  O2       1.0000 0.67600  0.67600  0.32400  Biso   1.000  O
  Zn5      1.0000 0.83763  0.16237  0.83763  Biso   1.000  Zn
  Zn6      1.0000 0.73641  0.26359  0.73641  Biso   1.000  Zn
  O3       1.0000 0.67600  0.32400  0.67600  Biso   1.000  O
  Zn7      1.0000 0.16237  0.83763  0.83763  Biso   1.000  Zn
  Zn8      1.0000 0.26359  0.73641  0.73641  Biso   1.000  Zn
  O4       1.0000 0.32400  0.67600  0.67600  Biso   1.000  O
  Zn9      1.0000 0.16237  0.16237  0.83763  Biso   1.000  Zn
  Zn10     1.0000 0.26359  0.26359  0.73641  Biso   1.000  Zn
  O5       1.0000 0.32400  0.32400  0.67600  Biso   1.000  O
  Zn11     1.0000 0.83763  0.83763  0.83763  Biso   1.000  Zn
  Zn12     1.0000 0.73641  0.73641  0.73641  Biso   1.000  Zn
  O6       1.0000 0.67600  0.67600  0.67600  Biso   1.000  O
  Zn13     1.0000 0.16237  0.83763  0.16237  Biso   1.000  Zn
  Zn14     1.0000 0.26359  0.73641  0.26359  Biso   1.000  Zn
  O7       1.0000 0.32400  0.67600  0.32400  Biso   1.000  O
  Zn15     1.0000 0.83763  0.16237  0.16237  Biso   1.000  Zn
  Zn16     1.0000 0.73641  0.26359  0.26359  Biso   1.000  Zn
  O8       1.0000 0.67600  0.32400  0.32400  Biso   1.000  O
  O9       1.0000 0.17950  0.28290  0.28290  Biso   1.000  O
  O10      1.0000 0.05780  0.42940  0.42940  Biso   1.000  O
  O11      1.0000 0.11880  0.22350  0.22350  Biso   1.000  O
  C1       1.0000 0.05830  0.33910  0.33910  Biso   1.000  C
  H1       1.0000 0.09850  0.35620  0.35620  Biso   1.000  H
  C2       1.0000 0.06070  0.29050  0.29050  Biso   1.000  C
  C3       1.0000 0.12580  0.26530  0.26530  Biso   1.000  C
  O12      1.0000 0.28400  0.33800  0.33800  Biso   1.000  O
  O13      1.0000 0.82050  0.71710  0.28290  Biso   1.000  O
  O14      1.0000 0.94220  0.57060  0.42940  Biso   1.000  O
  O15      1.0000 0.88120  0.77650  0.22350  Biso   1.000  O
  C4       1.0000 0.94170  0.66090  0.33910  Biso   1.000  C
  H2       1.0000 0.90150  0.64380  0.35620  Biso   1.000  H
  C5       1.0000 0.93930  0.70950  0.29050  Biso   1.000  C
  C6       1.0000 0.87420  0.73470  0.26530  Biso   1.000  C
  O16      1.0000 0.71600  0.66200  0.33800  Biso   1.000  O
  O17      1.0000 0.82050  0.28290  0.71710  Biso   1.000  O
  O18      1.0000 0.94220  0.42940  0.57060  Biso   1.000  O
  O19      1.0000 0.88120  0.22350  0.77650  Biso   1.000  O
  C7       1.0000 0.94170  0.33910  0.66090  Biso   1.000  C
  H3       1.0000 0.90150  0.35620  0.64380  Biso   1.000  H
  C8       1.0000 0.93930  0.29050  0.70950  Biso   1.000  C
  C9       1.0000 0.87420  0.26530  0.73470  Biso   1.000  C
  O20      1.0000 0.71600  0.33800  0.66200  Biso   1.000  O
  O21      1.0000 0.17950  0.71710  0.71710  Biso   1.000  O
  O22      1.0000 0.05780  0.57060  0.57060  Biso   1.000  O
  O23      1.0000 0.11880  0.77650  0.77650  Biso   1.000  O
  C10      1.0000 0.05830  0.66090  0.66090  Biso   1.000  C
  H4       1.0000 0.09850  0.64380  0.64380  Biso   1.000  H
  C11      1.0000 0.06070  0.70950  0.70950  Biso   1.000  C
  C12      1.0000 0.12580  0.73470  0.73470  Biso   1.000  C
  O24      1.0000 0.28400  0.66200  0.66200  Biso   1.000  O
  O25      1.0000 0.28290  0.17950  0.28290  Biso   1.000  O
  O26      1.0000 0.42940  0.05780  0.42940  Biso   1.000  O
  O27      1.0000 0.22350  0.11880  0.22350  Biso   1.000  O
  C13      1.0000 0.33910  0.05830  0.33910  Biso   1.000  C
  H5       1.0000 0.35620  0.09850  0.35620  Biso   1.000  H
  C14      1.0000 0.29050  0.06070  0.29050  Biso   1.000  C
  C15      1.0000 0.26530  0.12580  0.26530  Biso   1.000  C
  O28      1.0000 0.33800  0.28400  0.33800  Biso   1.000  O
  O29      1.0000 0.28290  0.82050  0.71710  Biso   1.000  O
  O30      1.0000 0.42940  0.94220  0.57060  Biso   1.000  O
  O31      1.0000 0.22350  0.88120  0.77650  Biso   1.000  O
  C16      1.0000 0.33910  0.94170  0.66090  Biso   1.000  C
  H6       1.0000 0.35620  0.90150  0.64380  Biso   1.000  H
  C17      1.0000 0.29050  0.93930  0.70950  Biso   1.000  C
  C18      1.0000 0.26530  0.87420  0.73470  Biso   1.000  C
  O32      1.0000 0.33800  0.71600  0.66200  Biso   1.000  O
  O33      1.0000 0.71710  0.82050  0.28290  Biso   1.000  O
  O34      1.0000 0.57060  0.94220  0.42940  Biso   1.000  O
  O35      1.0000 0.77650  0.88120  0.22350  Biso   1.000  O
  C19      1.0000 0.66090  0.94170  0.33910  Biso   1.000  C
  H7       1.0000 0.64380  0.90150  0.35620  Biso   1.000  H
  C20      1.0000 0.70950  0.93930  0.29050  Biso   1.000  C
  C21      1.0000 0.73470  0.87420  0.26530  Biso   1.000  C
  O36      1.0000 0.66200  0.71600  0.33800  Biso   1.000  O
  O37      1.0000 0.71710  0.17950  0.71710  Biso   1.000  O
  O38      1.0000 0.57060  0.05780  0.57060  Biso   1.000  O
  O39      1.0000 0.77650  0.11880  0.77650  Biso   1.000  O
  C22      1.0000 0.66090  0.05830  0.66090  Biso   1.000  C
  H8       1.0000 0.64380  0.09850  0.64380  Biso   1.000  H
  C23      1.0000 0.70950  0.06070  0.70950  Biso   1.000  C
  C24      1.0000 0.73470  0.12580  0.73470  Biso   1.000  C
  O40      1.0000 0.66200  0.28400  0.66200  Biso   1.000  O
  O41      1.0000 0.28290  0.28290  0.17950  Biso   1.000  O
  O42      1.0000 0.42940  0.42940  0.05780  Biso   1.000  O
  O43      1.0000 0.22350  0.22350  0.11880  Biso   1.000  O
  C25      1.0000 0.33910  0.33910  0.05830  Biso   1.000  C
  H9       1.0000 0.35620  0.35620  0.09850  Biso   1.000  H
  C26      1.0000 0.29050  0.29050  0.06070  Biso   1.000  C
  C27      1.0000 0.26530  0.26530  0.12580  Biso   1.000  C
  O44      1.0000 0.33800  0.33800  0.28400  Biso   1.000  O
  O45      1.0000 0.71710  0.28290  0.82050  Biso   1.000  O
  O46      1.0000 0.57060  0.42940  0.94220  Biso   1.000  O
  O47      1.0000 0.77650  0.22350  0.88120  Biso   1.000  O
  C28      1.0000 0.66090  0.33910  0.94170  Biso   1.000  C
  H10      1.0000 0.64380  0.35620  0.90150  Biso   1.000  H
  C29      1.0000 0.70950  0.29050  0.93930  Biso   1.000  C
  C30      1.0000 0.73470  0.26530  0.87420  Biso   1.000  C
  O48      1.0000 0.66200  0.33800  0.71600  Biso   1.000  O
  O49      1.0000 0.28290  0.71710  0.82050  Biso   1.000  O
  O50      1.0000 0.42940  0.57060  0.94220  Biso   1.000  O
  O51      1.0000 0.22350  0.77650  0.88120  Biso   1.000  O
  C31      1.0000 0.33910  0.66090  0.94170  Biso   1.000  C
  H11      1.0000 0.35620  0.64380  0.90150  Biso   1.000  H
  C32      1.0000 0.29050  0.70950  0.93930  Biso   1.000  C
  C33      1.0000 0.26530  0.73470  0.87420  Biso   1.000  C
  O52      1.0000 0.33800  0.66200  0.71600  Biso   1.000  O
  O53      1.0000 0.71710  0.71710  0.17950  Biso   1.000  O
  O54      1.0000 0.57060  0.57060  0.05780  Biso   1.000  O
  O55      1.0000 0.77650  0.77650  0.11880  Biso   1.000  O
  C34      1.0000 0.66090  0.66090  0.05830  Biso   1.000  C
  H12      1.0000 0.64380  0.64380  0.09850  Biso   1.000  H
  C35      1.0000 0.70950  0.70950  0.06070  Biso   1.000  C
  C36      1.0000 0.73470  0.73470  0.12580  Biso   1.000  C
  O56      1.0000 0.66200  0.66200  0.28400  Biso   1.000  O
  O57      1.0000 0.28290  0.17950  0.71710  Biso   1.000  O
  O58      1.0000 0.42940  0.05780  0.57060  Biso   1.000  O
  O59      1.0000 0.22350  0.11880  0.77650  Biso   1.000  O
  C37      1.0000 0.33910  0.05830  0.66090  Biso   1.000  C
  H13      1.0000 0.35620  0.09850  0.64380  Biso   1.000  H
  C38      1.0000 0.29050  0.06070  0.70950  Biso   1.000  C
  C39      1.0000 0.26530  0.12580  0.73470  Biso   1.000  C
  O60      1.0000 0.33800  0.28400  0.66200  Biso   1.000  O
  O61      1.0000 0.71710  0.82050  0.71710  Biso   1.000  O
  O62      1.0000 0.57060  0.94220  0.57060  Biso   1.000  O
  O63      1.0000 0.77650  0.88120  0.77650  Biso   1.000  O
  C40      1.0000 0.66090  0.94170  0.66090  Biso   1.000  C
  H14      1.0000 0.64380  0.90150  0.64380  Biso   1.000  H
  C41      1.0000 0.70950  0.93930  0.70950  Biso   1.000  C
  C42      1.0000 0.73470  0.87420  0.73470  Biso   1.000  C
  O64      1.0000 0.66200  0.71600  0.66200  Biso   1.000  O
  O65      1.0000 0.28290  0.82050  0.28290  Biso   1.000  O
  O66      1.0000 0.42940  0.94220  0.42940  Biso   1.000  O
  O67      1.0000 0.22350  0.88120  0.22350  Biso   1.000  O
  C43      1.0000 0.33910  0.94170  0.33910  Biso   1.000  C
  H15      1.0000 0.35620  0.90150  0.35620  Biso   1.000  H
  C44      1.0000 0.29050  0.93930  0.29050  Biso   1.000  C
  C45      1.0000 0.26530  0.87420  0.26530  Biso   1.000  C
  O68      1.0000 0.33800  0.71600  0.33800  Biso   1.000  O
  O69      1.0000 0.71710  0.17950  0.28290  Biso   1.000  O
  O70      1.0000 0.57060  0.05780  0.42940  Biso   1.000  O
  O71      1.0000 0.77650  0.11880  0.22350  Biso   1.000  O
  C46      1.0000 0.66090  0.05830  0.33910  Biso   1.000  C
  H16      1.0000 0.64380  0.09850  0.35620  Biso   1.000  H
  C47      1.0000 0.70950  0.06070  0.29050  Biso   1.000  C
  C48      1.0000 0.73470  0.12580  0.26530  Biso   1.000  C
  O72      1.0000 0.66200  0.28400  0.33800  Biso   1.000  O
  O73      1.0000 0.17950  0.28290  0.71710  Biso   1.000  O
  O74      1.0000 0.05780  0.42940  0.57060  Biso   1.000  O
  O75      1.0000 0.11880  0.22350  0.77650  Biso   1.000  O
  C49      1.0000 0.05830  0.33910  0.66090  Biso   1.000  C
  H17      1.0000 0.09850  0.35620  0.64380  Biso   1.000  H
  C50      1.0000 0.06070  0.29050  0.70950  Biso   1.000  C
  C51      1.0000 0.12580  0.26530  0.73470  Biso   1.000  C
  O76      1.0000 0.28400  0.33800  0.66200  Biso   1.000  O
  O77      1.0000 0.82050  0.28290  0.28290  Biso   1.000  O
  O78      1.0000 0.94220  0.42940  0.42940  Biso   1.000  O
  O79      1.0000 0.88120  0.22350  0.22350  Biso   1.000  O
  C52      1.0000 0.94170  0.33910  0.33910  Biso   1.000  C
  H18      1.0000 0.90150  0.35620  0.35620  Biso   1.000  H
  C53      1.0000 0.93930  0.29050  0.29050  Biso   1.000  C
  C54      1.0000 0.87420  0.26530  0.26530  Biso   1.000  C
  O80      1.0000 0.71600  0.33800  0.33800  Biso   1.000  O
  O81      1.0000 0.82050  0.71710  0.71710  Biso   1.000  O
  O82      1.0000 0.94220  0.57060  0.57060  Biso   1.000  O
  O83      1.0000 0.88120  0.77650  0.77650  Biso   1.000  O
  C55      1.0000 0.94170  0.66090  0.66090  Biso   1.000  C
  H19      1.0000 0.90150  0.64380  0.64380  Biso   1.000  H
  C56      1.0000 0.93930  0.70950  0.70950  Biso   1.000  C
  C57      1.0000 0.87420  0.73470  0.73470  Biso   1.000  C
  O84      1.0000 0.71600  0.66200  0.66200  Biso   1.000  O
  O85      1.0000 0.17950  0.71710  0.28290  Biso   1.000  O
  O86      1.0000 0.05780  0.57060  0.42940  Biso   1.000  O
  O87      1.0000 0.11880  0.77650  0.22350  Biso   1.000  O
  C58      1.0000 0.05830  0.66090  0.33910  Biso   1.000  C
  H20      1.0000 0.09850  0.64380  0.35620  Biso   1.000  H
  C59      1.0000 0.06070  0.70950  0.29050  Biso   1.000  C
  C60      1.0000 0.12580  0.73470  0.26530  Biso   1.000  C
  O88      1.0000 0.28400  0.66200  0.33800  Biso   1.000  O
  O89      1.0000 0.28290  0.28290  0.82050  Biso   1.000  O
  O90      1.0000 0.42940  0.42940  0.94220  Biso   1.000  O
  O91      1.0000 0.22350  0.22350  0.88120  Biso   1.000  O
  C61      1.0000 0.33910  0.33910  0.94170  Biso   1.000  C
  H21      1.0000 0.35620  0.35620  0.90150  Biso   1.000  H
  C62      1.0000 0.29050  0.29050  0.93930  Biso   1.000  C
  C63      1.0000 0.26530  0.26530  0.87420  Biso   1.000  C
  O92      1.0000 0.33800  0.33800  0.71600  Biso   1.000  O
  O93      1.0000 0.28290  0.71710  0.17950  Biso   1.000  O
  O94      1.0000 0.42940  0.57060  0.05780  Biso   1.000  O
  O95      1.0000 0.22350  0.77650  0.11880  Biso   1.000  O
  C64      1.0000 0.33910  0.66090  0.05830  Biso   1.000  C
  H22      1.0000 0.35620  0.64380  0.09850  Biso   1.000  H
  C65      1.0000 0.29050  0.70950  0.06070  Biso   1.000  C
  C66      1.0000 0.26530  0.73470  0.12580  Biso   1.000  C
  O96      1.0000 0.33800  0.66200  0.28400  Biso   1.000  O
  O97      1.0000 0.71710  0.28290  0.17950  Biso   1.000  O
  O98      1.0000 0.57060  0.42940  0.05780  Biso   1.000  O
  O99      1.0000 0.77650  0.22350  0.11880  Biso   1.000  O
  C67      1.0000 0.66090  0.33910  0.05830  Biso   1.000  C
  H23      1.0000 0.64380  0.35620  0.09850  Biso   1.000  H
  C68      1.0000 0.70950  0.29050  0.06070  Biso   1.000  C
  C69      1.0000 0.73470  0.26530  0.12580  Biso   1.000  C
  O100     1.0000 0.66200  0.33800  0.28400  Biso   1.000  O
  O101     1.0000 0.71710  0.71710  0.82050  Biso   1.000  O
  O102     1.0000 0.57060  0.57060  0.94220  Biso   1.000  O
  O103     1.0000 0.77650  0.77650  0.88120  Biso   1.000  O
  C70      1.0000 0.66090  0.66090  0.94170  Biso   1.000  C
  H24      1.0000 0.64380  0.64380  0.90150  Biso   1.000  H
  C71      1.0000 0.70950  0.70950  0.93930  Biso   1.000  C
  C72      1.0000 0.73470  0.73470  0.87420  Biso   1.000  C
  O104     1.0000 0.66200  0.66200  0.71600  Biso   1.000  O
  O105     1.0000 0.28190  0.37700  0.28190  Biso   1.000  O
  O106     1.0000 0.71810  0.62300  0.28190  Biso   1.000  O
  O107     1.0000 0.71810  0.37700  0.71810  Biso   1.000  O
  O108     1.0000 0.28190  0.62300  0.71810  Biso   1.000  O
  O109     1.0000 0.28190  0.28190  0.37700  Biso   1.000  O
  O110     1.0000 0.28190  0.71810  0.62300  Biso   1.000  O
  O111     1.0000 0.71810  0.71810  0.37700  Biso   1.000  O
  O112     1.0000 0.71810  0.28190  0.62300  Biso   1.000  O
  O113     1.0000 0.37700  0.28190  0.28190  Biso   1.000  O
  O114     1.0000 0.62300  0.28190  0.71810  Biso   1.000  O
  O115     1.0000 0.37700  0.71810  0.71810  Biso   1.000  O
  O116     1.0000 0.62300  0.71810  0.28190  Biso   1.000  O
  O117     1.0000 0.37700  0.28190  0.71810  Biso   1.000  O
  O118     1.0000 0.62300  0.71810  0.71810  Biso   1.000  O
  O119     1.0000 0.37700  0.71810  0.28190  Biso   1.000  O
  O120     1.0000 0.62300  0.28190  0.28190  Biso   1.000  O
  O121     1.0000 0.28190  0.28190  0.62300  Biso   1.000  O
  O122     1.0000 0.71810  0.28190  0.37700  Biso   1.000  O
  O123     1.0000 0.71810  0.71810  0.62300  Biso   1.000  O
  O124     1.0000 0.28190  0.71810  0.37700  Biso   1.000  O
  O125     1.0000 0.28190  0.37700  0.71810  Biso   1.000  O
  O126     1.0000 0.28190  0.62300  0.28190  Biso   1.000  O
  O127     1.0000 0.71810  0.37700  0.28190  Biso   1.000  O
  O128     1.0000 0.71810  0.62300  0.71810  Biso   1.000  O
  Zn17     1.0000 0.07310  0.50000  0.50000  Biso   1.000  Zn
  Zn18     1.0000 0.92690  0.50000  0.50000  Biso   1.000  Zn
  Zn19     1.0000 0.50000  0.07310  0.50000  Biso   1.000  Zn
  Zn20     1.0000 0.50000  0.92690  0.50000  Biso   1.000  Zn
  Zn21     1.0000 0.50000  0.50000  0.07310  Biso   1.000  Zn
  Zn22     1.0000 0.50000  0.50000  0.92690  Biso   1.000  Zn
  C73      1.0000 0.00000  0.36300  0.36300  Biso   1.000  C
  C74      1.0000 0.00000  0.26610  0.26610  Biso   1.000  C
  H25      1.0000 0.00000  0.23300  0.23300  Biso   1.000  H
  C75      1.0000 0.00000  0.42050  0.42050  Biso   1.000  C
  C76      1.0000 0.00000  0.63700  0.36300  Biso   1.000  C
  C77      1.0000 0.00000  0.73390  0.26610  Biso   1.000  C
  H26      1.0000 0.00000  0.76700  0.23300  Biso   1.000  H
  C78      1.0000 0.00000  0.57950  0.42050  Biso   1.000  C
  C79      1.0000 0.00000  0.36300  0.63700  Biso   1.000  C
  C80      1.0000 0.00000  0.26610  0.73390  Biso   1.000  C
  H27      1.0000 0.00000  0.23300  0.76700  Biso   1.000  H
  C81      1.0000 0.00000  0.42050  0.57950  Biso   1.000  C
  C82      1.0000 0.00000  0.63700  0.63700  Biso   1.000  C
  C83      1.0000 0.00000  0.73390  0.73390  Biso   1.000  C
  H28      1.0000 0.00000  0.76700  0.76700  Biso   1.000  H
  C84      1.0000 0.00000  0.57950  0.57950  Biso   1.000  C
  C85      1.0000 0.36300  0.00000  0.36300  Biso   1.000  C
  C86      1.0000 0.26610  0.00000  0.26610  Biso   1.000  C
  H29      1.0000 0.23300  0.00000  0.23300  Biso   1.000  H
  C87      1.0000 0.42050  0.00000  0.42050  Biso   1.000  C
  C88      1.0000 0.36300  0.00000  0.63700  Biso   1.000  C
  C89      1.0000 0.26610  0.00000  0.73390  Biso   1.000  C
  H30      1.0000 0.23300  0.00000  0.76700  Biso   1.000  H
  C90      1.0000 0.42050  0.00000  0.57950  Biso   1.000  C
  C91      1.0000 0.63700  0.00000  0.36300  Biso   1.000  C
  C92      1.0000 0.73390  0.00000  0.26610  Biso   1.000  C
  H31      1.0000 0.76700  0.00000  0.23300  Biso   1.000  H
  C93      1.0000 0.57950  0.00000  0.42050  Biso   1.000  C
  C94      1.0000 0.63700  0.00000  0.63700  Biso   1.000  C
  C95      1.0000 0.73390  0.00000  0.73390  Biso   1.000  C
  H32      1.0000 0.76700  0.00000  0.76700  Biso   1.000  H
  C96      1.0000 0.57950  0.00000  0.57950  Biso   1.000  C
  C97      1.0000 0.36300  0.36300  0.00000  Biso   1.000  C
  C98      1.0000 0.26610  0.26610  0.00000  Biso   1.000  C
  H33      1.0000 0.23300  0.23300  0.00000  Biso   1.000  H
  C99      1.0000 0.42050  0.42050  0.00000  Biso   1.000  C
  C100     1.0000 0.63700  0.36300  0.00000  Biso   1.000  C
  C101     1.0000 0.73390  0.26610  0.00000  Biso   1.000  C
  H34      1.0000 0.76700  0.23300  0.00000  Biso   1.000  H
  C102     1.0000 0.57950  0.42050  0.00000  Biso   1.000  C
  C103     1.0000 0.36300  0.63700  0.00000  Biso   1.000  C
  C104     1.0000 0.26610  0.73390  0.00000  Biso   1.000  C
  H35      1.0000 0.23300  0.76700  0.00000  Biso   1.000  H
  C105     1.0000 0.42050  0.57950  0.00000  Biso   1.000  C
  C106     1.0000 0.63700  0.63700  0.00000  Biso   1.000  C
  C107     1.0000 0.73390  0.73390  0.00000  Biso   1.000  C
  H36      1.0000 0.76700  0.76700  0.00000  Biso   1.000  H
  C108     1.0000 0.57950  0.57950  0.00000  Biso   1.000  C
