data_image0
_cell_length_a       21.5819
_cell_length_b       19.2279
_cell_length_c       25.74
_cell_angle_alpha    90
_cell_angle_beta     95.2863
_cell_angle_gamma    90

_symmetry_space_group_name_H-M    "P 1"
_symmetry_int_tables_number       1

loop_
  _symmetry_equiv_pos_as_xyz
  'x, y, z'

loop_
  _atom_site_label
  _atom_site_occupancy
  _atom_site_fract_x
  _atom_site_fract_y
  _atom_site_fract_z
  _atom_site_thermal_displace_type
  _atom_site_B_iso_or_equiv
  _atom_site_type_symbol
  W1       1.0000 0.76237  0.64948  0.52995  Biso   1.000  W
  W2       1.0000 0.69997  0.64716  0.66311  Biso   1.000  W
  W3       1.0000 0.57954  0.55951  0.73885  Biso   1.000  W
  W4       1.0000 0.44658  0.42999  0.73244  Biso   1.000  W
  W5       1.0000 0.35850  0.30117  0.64116  Biso   1.000  W
  W6       1.0000 0.25588  0.42381  0.60690  Biso   1.000  W
  W7       1.0000 0.34737  0.55417  0.69251  Biso   1.000  W
  W8       1.0000 0.47831  0.68367  0.70340  Biso   1.000  W
  W9       1.0000 0.59672  0.76918  0.62449  Biso   1.000  W
  W10      1.0000 0.66310  0.77546  0.49364  Biso   1.000  W
  O1       1.0000 0.75080  0.55290  0.54010  Biso   1.000  O
  O2       1.0000 0.74130  0.67270  0.60120  Biso   1.000  O
  O3       1.0000 0.64390  0.61450  0.71260  Biso   1.000  O
  O4       1.0000 0.60950  0.48630  0.70010  Biso   1.000  O
  O5       1.0000 0.50630  0.50320  0.74520  Biso   1.000  O
  O6       1.0000 0.51110  0.38880  0.69570  Biso   1.000  O
  O7       1.0000 0.38950  0.36570  0.70410  Biso   1.000  O
  O8       1.0000 0.43880  0.29170  0.63040  Biso   1.000  O
  O9       1.0000 0.27870  0.34270  0.64580  Biso   1.000  O
  O10      1.0000 0.37940  0.48990  0.74490  Biso   1.000  O
  O11      1.0000 0.53280  0.64100  0.75670  Biso   1.000  O
  O12      1.0000 0.61470  0.65630  0.60750  Biso   1.000  O
  O13      1.0000 0.66880  0.74430  0.66250  Biso   1.000  O
  O14      1.0000 0.65760  0.65970  0.51010  Biso   1.000  O
  O15      1.0000 0.74670  0.74700  0.51180  Biso   1.000  O
  O16      1.0000 0.66980  0.74420  0.42360  Biso   1.000  O
  O17      1.0000 0.65080  0.78380  0.56230  Biso   1.000  O
  O18      1.0000 0.54490  0.73490  0.67650  Biso   1.000  O
  O19      1.0000 0.41620  0.61760  0.71260  Biso   1.000  O
  O20      1.0000 0.29060  0.47800  0.66100  Biso   1.000  O
  O21      1.0000 0.23620  0.37260  0.54750  Biso   1.000  O
  O22      1.0000 0.17830  0.43300  0.61850  Biso   1.000  O
  O23      1.0000 0.57620  0.77040  0.47460  Biso   1.000  O
  O24      1.0000 0.52670  0.76360  0.57760  Biso   1.000  O
  O25      1.0000 0.43890  0.69910  0.63340  Biso   1.000  O
  O26      1.0000 0.33590  0.59970  0.62970  Biso   1.000  O
  O27      1.0000 0.26640  0.50150  0.56300  Biso   1.000  O
  O28      1.0000 0.52160  0.59160  0.66650  Biso   1.000  O
  O29      1.0000 0.35770  0.39900  0.59010  Biso   1.000  O
  O30      1.0000 0.42220  0.49080  0.65760  Biso   1.000  O
  O31      1.0000 0.70250  0.55300  0.64370  Biso   1.000  O
  W11      1.0000 0.58255  0.40486  0.65640  Biso   1.000  W
  W12      1.0000 0.70278  0.49027  0.58141  Biso   1.000  W
  O32      1.0000 0.37680  0.64600  0.54790  Biso   1.000  O
  O33      1.0000 0.46740  0.71300  0.49970  Biso   1.000  O
  O34      1.0000 0.64520  0.43700  0.61350  Biso   1.000  O
  P1       1.0000 0.60850  0.63000  0.54610  Biso   1.000  P
  P2       1.0000 0.47830  0.53500  0.63210  Biso   1.000  P
  O35      1.0000 0.52470  0.47950  0.61390  Biso   1.000  O
  O36      1.0000 0.44910  0.57750  0.58090  Biso   1.000  O
  O37      1.0000 0.62360  0.55340  0.55230  Biso   1.000  O
  O38      1.0000 0.54670  0.64400  0.51300  Biso   1.000  O
  W13      1.0000 0.38002  0.66064  0.57765  Biso   1.000  W
  O39      1.0000 0.46000  0.81600  0.48760  Biso   1.000  O
  W14      1.0000 0.49775  0.74433  0.50024  Biso   1.000  W
  O40      1.0000 0.53950  0.33900  0.59700  Biso   1.000  O
  O41      1.0000 0.68800  0.44300  0.51730  Biso   1.000  O
  Cu1      1.0000 0.11548  0.41587  0.68376  Biso   1.000  Cu
  Cu2      1.0000 0.23671  0.33875  0.75853  Biso   1.000  Cu
  Cu3      1.0000 0.27992  0.17093  0.72772  Biso   1.000  Cu
  Cu4      1.0000 0.18002  0.09010  0.63911  Biso   1.000  Cu
  Cu5      1.0000 0.83571  0.25356  0.34229  Biso   1.000  Cu
  N1       1.0000 0.85870  0.36140  0.31900  Biso   1.000  N
  N2       1.0000 0.84150  0.38460  0.27150  Biso   1.000  N
  N3       1.0000 0.85620  0.44760  0.26490  Biso   1.000  N
  H1       1.0000 0.84880  0.47020  0.23610  Biso   1.000  H
  N4       1.0000 0.88670  0.47540  0.31130  Biso   1.000  N
  N5       1.0000 0.98930  0.41950  0.55530  Biso   1.000  N
  N6       1.0000 0.98330  0.41860  0.63330  Biso   1.000  N
  N7       1.0000 0.04570  0.41520  0.62840  Biso   1.000  N
  N8       1.0000 0.13660  0.30140  0.67760  Biso   1.000  N
  N9       1.0000 0.18850  0.28230  0.70760  Biso   1.000  N
  N10      1.0000 0.20540  0.21870  0.69680  Biso   1.000  N
  N11      1.0000 0.16440  0.19610  0.65650  Biso   1.000  N
  N12      1.0000 0.92590  0.24870  0.48900  Biso   1.000  N
  N13      1.0000 0.86530  0.25160  0.50450  Biso   1.000  N
  N14      1.0000 0.86190  0.25150  0.41760  Biso   1.000  N
  N15      1.0000 0.90760  0.92050  0.38630  Biso   1.000  N
  N16      1.0000 0.01080  0.93450  0.39230  Biso   1.000  N
  N17      1.0000 0.99320  0.92470  0.43920  Biso   1.000  N
  N18      1.0000 0.17640  0.87310  0.65230  Biso   1.000  N
  N19      1.0000 0.21770  0.89750  0.69250  Biso   1.000  N
  N20      1.0000 0.22290  0.96030  0.68570  Biso   1.000  N
  H2       1.0000 0.24730  0.98600  0.70590  Biso   1.000  H
  N21      1.0000 0.18890  0.98530  0.64570  Biso   1.000  N
  C1       1.0000 0.88750  0.41970  0.34450  Biso   1.000  C
  C2       1.0000 0.91920  0.42350  0.39820  Biso   1.000  C
  C3       1.0000 0.88160  0.42860  0.43220  Biso   1.000  C
  H3       1.0000 0.83950  0.43260  0.42110  Biso   1.000  H
  C4       1.0000 0.89960  0.42850  0.48760  Biso   1.000  C
  H4       1.0000 0.87240  0.43480  0.51320  Biso   1.000  H
  C5       1.0000 0.96480  0.41760  0.49750  Biso   1.000  C
  C6       1.0000 0.00170  0.41070  0.46160  Biso   1.000  C
  H5       1.0000 0.04420  0.40540  0.47020  Biso   1.000  H
  C7       1.0000 0.97650  0.41130  0.40850  Biso   1.000  C
  H6       1.0000 0.00180  0.40300  0.38180  Biso   1.000  H
  C8       1.0000 0.94730  0.42760  0.59410  Biso   1.000  C
  H7       1.0000 0.90480  0.43700  0.59080  Biso   1.000  H
  C9       1.0000 0.04620  0.41290  0.57820  Biso   1.000  C
  H8       1.0000 0.08170  0.40740  0.56070  Biso   1.000  H
  C10      1.0000 0.12450  0.24650  0.64870  Biso   1.000  C
  C11      1.0000 0.06970  0.24580  0.60370  Biso   1.000  C
  C12      1.0000 0.01490  0.24550  0.61830  Biso   1.000  C
  H9       1.0000 0.00890  0.24430  0.65360  Biso   1.000  H
  C13      1.0000 0.96120  0.24690  0.57870  Biso   1.000  C
  H10      1.0000 0.92040  0.24770  0.58750  Biso   1.000  H
  C14      1.0000 0.97540  0.24700  0.52790  Biso   1.000  C
  C15      1.0000 0.03290  0.24890  0.51310  Biso   1.000  C
  H11      1.0000 0.03930  0.24880  0.47780  Biso   1.000  H
  C16      1.0000 0.08540  0.25110  0.55270  Biso   1.000  C
  H12      1.0000 0.12630  0.25560  0.54450  Biso   1.000  H
  C17      1.0000 0.92730  0.25300  0.43790  Biso   1.000  C
  H13      1.0000 0.96200  0.25620  0.41920  Biso   1.000  H
  C18      1.0000 0.82760  0.25340  0.45820  Biso   1.000  C
  H14      1.0000 0.78440  0.25570  0.45550  Biso   1.000  H
  C19      1.0000 0.96030  0.92950  0.35950  Biso   1.000  C
  H15      1.0000 0.95980  0.93170  0.32340  Biso   1.000  H
  C20      1.0000 0.93210  0.91390  0.43790  Biso   1.000  C
  H16      1.0000 0.90990  0.90390  0.46630  Biso   1.000  H
  C21      1.0000 0.03110  0.92600  0.48630  Biso   1.000  C
  C22      1.0000 0.00990  0.90700  0.53300  Biso   1.000  C
  H17      1.0000 0.96880  0.89480  0.53650  Biso   1.000  H
  C23      1.0000 0.05570  0.90790  0.57430  Biso   1.000  C
  H18      1.0000 0.04340  0.89200  0.60590  Biso   1.000  H
  C24      1.0000 0.11640  0.92860  0.57550  Biso   1.000  C
  C25      1.0000 0.13900  0.94420  0.52920  Biso   1.000  C
  H19      1.0000 0.18080  0.95560  0.52860  Biso   1.000  H
  C26      1.0000 0.09880  0.94350  0.48110  Biso   1.000  C
  H20      1.0000 0.11350  0.95310  0.44900  Biso   1.000  H
  C27      1.0000 0.15880  0.92740  0.62350  Biso   1.000  C
  O42      1.0000 0.26400  0.10170  0.67650  Biso   1.000  O
  H21      1.0000 0.29610  0.07230  0.66860  Biso   1.000  H
  O43      1.0000 0.18390  0.40980  0.73210  Biso   1.000  O
  H22      1.0000 0.19470  0.45270  0.74700  Biso   1.000  H
  O44      1.0000 0.79780  0.24020  0.27060  Biso   1.000  O
  H23      1.0000 0.83330  0.22160  0.25400  Biso   1.000  H
  K1       1.0000 0.45080  0.55990  0.48210  Biso   1.000  K
  O45      1.0000 0.47500  0.53100  0.48000  Biso   1.000  O
  P3       1.0000 0.55350  0.59960  0.60950  Biso   1.000  P
  P4       1.0000 0.62200  0.60510  0.46670  Biso   1.000  P
  O46      1.0000 0.57470  0.52500  0.59620  Biso   1.000  O
  O47      1.0000 0.62400  0.52840  0.48960  Biso   1.000  O
  O48      1.0000 0.60850  0.48830  0.43580  Biso   1.000  O
  P5       1.0000 0.58910  0.54470  0.39740  Biso   1.000  P
  O49      1.0000 0.55280  0.62420  0.46200  Biso   1.000  O
  W15      1.0000 0.28655  0.53376  0.49338  Biso   1.000  W
  O50      1.0000 0.33110  0.59560  0.52140  Biso   1.000  O
  O51      1.0000 0.32080  0.55000  0.42750  Biso   1.000  O
  W16      1.0000 0.34560  0.53659  0.36114  Biso   1.000  W
  W17      1.0000 0.47483  0.66619  0.36664  Biso   1.000  W
  O52      1.0000 0.41240  0.61600  0.37010  Biso   1.000  O
  O53      1.0000 0.47300  0.69700  0.43270  Biso   1.000  O
  O54      1.0000 0.43230  0.69820  0.52940  Biso   1.000  O
  O55      1.0000 0.52220  0.58180  0.40780  Biso   1.000  O
  O56      1.0000 0.50410  0.62020  0.57320  Biso   1.000  O
  W18      1.0000 0.31699  0.58352  0.55287  Biso   1.000  W
  W19      1.0000 0.44441  0.71542  0.56417  Biso   1.000  W
  W20      1.0000 0.50625  0.72081  0.43349  Biso   1.000  W
  O57      1.0000 0.40600  0.78600  0.55800  Biso   1.000  O
  O58      1.0000 0.47180  0.79910  0.41080  Biso   1.000  O
  W21      1.0000 0.73763  0.14948  0.97005  Biso   1.000  W
  W22      1.0000 0.80003  0.14716  0.83689  Biso   1.000  W
  W23      1.0000 0.92046  0.05951  0.76115  Biso   1.000  W
  W24      1.0000 0.05342  0.92999  0.76756  Biso   1.000  W
  W25      1.0000 0.14150  0.80117  0.85884  Biso   1.000  W
  W26      1.0000 0.24412  0.92381  0.89310  Biso   1.000  W
  W27      1.0000 0.15263  0.05417  0.80749  Biso   1.000  W
  W28      1.0000 0.02169  0.18367  0.79660  Biso   1.000  W
  W29      1.0000 0.90328  0.26918  0.87551  Biso   1.000  W
  W30      1.0000 0.83690  0.27546  0.00636  Biso   1.000  W
  O59      1.0000 0.74920  0.05290  0.95990  Biso   1.000  O
  O60      1.0000 0.75870  0.17270  0.89880  Biso   1.000  O
  O61      1.0000 0.85610  0.11450  0.78740  Biso   1.000  O
  O62      1.0000 0.89050  0.98630  0.79990  Biso   1.000  O
  O63      1.0000 0.99370  0.00320  0.75480  Biso   1.000  O
  O64      1.0000 0.98890  0.88880  0.80430  Biso   1.000  O
  O65      1.0000 0.11050  0.86570  0.79590  Biso   1.000  O
  O66      1.0000 0.06120  0.79170  0.86960  Biso   1.000  O
  O67      1.0000 0.22130  0.84270  0.85420  Biso   1.000  O
  O68      1.0000 0.12060  0.98990  0.75510  Biso   1.000  O
  O69      1.0000 0.96720  0.14100  0.74330  Biso   1.000  O
  O70      1.0000 0.88530  0.15630  0.89250  Biso   1.000  O
  O71      1.0000 0.83120  0.24430  0.83750  Biso   1.000  O
  O72      1.0000 0.84240  0.15970  0.98990  Biso   1.000  O
  O73      1.0000 0.75330  0.24700  0.98820  Biso   1.000  O
  O74      1.0000 0.83020  0.24420  0.07640  Biso   1.000  O
  O75      1.0000 0.84920  0.28380  0.93770  Biso   1.000  O
  O76      1.0000 0.95510  0.23490  0.82350  Biso   1.000  O
  O77      1.0000 0.08380  0.11760  0.78740  Biso   1.000  O
  O78      1.0000 0.20940  0.97800  0.83900  Biso   1.000  O
  O79      1.0000 0.26380  0.87260  0.95250  Biso   1.000  O
  O80      1.0000 0.32170  0.93300  0.88150  Biso   1.000  O
  O81      1.0000 0.92380  0.27040  0.02540  Biso   1.000  O
  O82      1.0000 0.97330  0.26360  0.92240  Biso   1.000  O
  O83      1.0000 0.06110  0.19910  0.86660  Biso   1.000  O
  O84      1.0000 0.16410  0.09970  0.87030  Biso   1.000  O
  O85      1.0000 0.23360  0.00150  0.93700  Biso   1.000  O
  O86      1.0000 0.97840  0.09160  0.83350  Biso   1.000  O
  O87      1.0000 0.14230  0.89900  0.90990  Biso   1.000  O
  O88      1.0000 0.07780  0.99080  0.84240  Biso   1.000  O
  O89      1.0000 0.79750  0.05300  0.85630  Biso   1.000  O
  W31      1.0000 0.91745  0.90486  0.84360  Biso   1.000  W
  W32      1.0000 0.79722  0.99027  0.91859  Biso   1.000  W
  O90      1.0000 0.12320  0.14600  0.95210  Biso   1.000  O
  O91      1.0000 0.03260  0.21300  0.00030  Biso   1.000  O
  O92      1.0000 0.85480  0.93700  0.88650  Biso   1.000  O
  P6       1.0000 0.89150  0.13000  0.95390  Biso   1.000  P
  P7       1.0000 0.02170  0.03500  0.86790  Biso   1.000  P
  O93      1.0000 0.97530  0.97950  0.88610  Biso   1.000  O
  O94      1.0000 0.05090  0.07750  0.91910  Biso   1.000  O
  O95      1.0000 0.87640  0.05340  0.94770  Biso   1.000  O
  O96      1.0000 0.95330  0.14400  0.98700  Biso   1.000  O
  W33      1.0000 0.11998  0.16064  0.92235  Biso   1.000  W
  O97      1.0000 0.04000  0.31600  0.01240  Biso   1.000  O
  W34      1.0000 0.00225  0.24433  0.99976  Biso   1.000  W
  O98      1.0000 0.96050  0.83900  0.90300  Biso   1.000  O
  O99      1.0000 0.81200  0.94300  0.98270  Biso   1.000  O
  Cu6      1.0000 0.38452  0.91587  0.81624  Biso   1.000  Cu
  Cu7      1.0000 0.26329  0.83875  0.74147  Biso   1.000  Cu
  Cu8      1.0000 0.22008  0.67093  0.77228  Biso   1.000  Cu
  Cu9      1.0000 0.31998  0.59010  0.86089  Biso   1.000  Cu
  Cu10     1.0000 0.66429  0.75356  0.15771  Biso   1.000  Cu
  N22      1.0000 0.64130  0.86140  0.18100  Biso   1.000  N
  N23      1.0000 0.65850  0.88460  0.22850  Biso   1.000  N
  N24      1.0000 0.64380  0.94760  0.23510  Biso   1.000  N
  H24      1.0000 0.65120  0.97020  0.26390  Biso   1.000  H
  N25      1.0000 0.61330  0.97540  0.18870  Biso   1.000  N
  N26      1.0000 0.51070  0.91950  0.94470  Biso   1.000  N
  N27      1.0000 0.51670  0.91860  0.86670  Biso   1.000  N
  N28      1.0000 0.45430  0.91520  0.87160  Biso   1.000  N
  N29      1.0000 0.36340  0.80140  0.82240  Biso   1.000  N
  N30      1.0000 0.31150  0.78230  0.79240  Biso   1.000  N
  N31      1.0000 0.29460  0.71870  0.80320  Biso   1.000  N
  N32      1.0000 0.33560  0.69610  0.84350  Biso   1.000  N
  N33      1.0000 0.57410  0.74870  0.01100  Biso   1.000  N
  N34      1.0000 0.63470  0.75160  0.99550  Biso   1.000  N
  N35      1.0000 0.63810  0.75150  0.08240  Biso   1.000  N
  N36      1.0000 0.59240  0.42050  0.11370  Biso   1.000  N
  N37      1.0000 0.48920  0.43450  0.10770  Biso   1.000  N
  N38      1.0000 0.50680  0.42470  0.06080  Biso   1.000  N
  N39      1.0000 0.32360  0.37310  0.84770  Biso   1.000  N
  N40      1.0000 0.28230  0.39750  0.80750  Biso   1.000  N
  N41      1.0000 0.27710  0.46030  0.81430  Biso   1.000  N
  H25      1.0000 0.25270  0.48600  0.79410  Biso   1.000  H
  N42      1.0000 0.31110  0.48530  0.85430  Biso   1.000  N
  C28      1.0000 0.61250  0.91970  0.15550  Biso   1.000  C
  C29      1.0000 0.58080  0.92350  0.10180  Biso   1.000  C
  C30      1.0000 0.61840  0.92860  0.06780  Biso   1.000  C
  H26      1.0000 0.66050  0.93260  0.07890  Biso   1.000  H
  C31      1.0000 0.60040  0.92850  0.01240  Biso   1.000  C
  H27      1.0000 0.62760  0.93480  0.98680  Biso   1.000  H
  C32      1.0000 0.53520  0.91760  0.00250  Biso   1.000  C
  C33      1.0000 0.49830  0.91070  0.03840  Biso   1.000  C
  H28      1.0000 0.45580  0.90540  0.02980  Biso   1.000  H
  C34      1.0000 0.52350  0.91130  0.09150  Biso   1.000  C
  H29      1.0000 0.49820  0.90300  0.11820  Biso   1.000  H
  C35      1.0000 0.55270  0.92760  0.90590  Biso   1.000  C
  H30      1.0000 0.59520  0.93700  0.90920  Biso   1.000  H
  C36      1.0000 0.45380  0.91290  0.92180  Biso   1.000  C
  H31      1.0000 0.41830  0.90740  0.93930  Biso   1.000  H
  C37      1.0000 0.37550  0.74650  0.85130  Biso   1.000  C
  C38      1.0000 0.43030  0.74580  0.89630  Biso   1.000  C
  C39      1.0000 0.48510  0.74550  0.88170  Biso   1.000  C
  H32      1.0000 0.49110  0.74430  0.84640  Biso   1.000  H
  C40      1.0000 0.53880  0.74690  0.92130  Biso   1.000  C
  H33      1.0000 0.57960  0.74770  0.91250  Biso   1.000  H
  C41      1.0000 0.52460  0.74700  0.97210  Biso   1.000  C
  C42      1.0000 0.46710  0.74890  0.98690  Biso   1.000  C
  H34      1.0000 0.46070  0.74880  0.02220  Biso   1.000  H
  C43      1.0000 0.41460  0.75110  0.94730  Biso   1.000  C
  H35      1.0000 0.37370  0.75560  0.95550  Biso   1.000  H
  C44      1.0000 0.57270  0.75300  0.06210  Biso   1.000  C
  H36      1.0000 0.53800  0.75620  0.08080  Biso   1.000  H
  C45      1.0000 0.67240  0.75340  0.04180  Biso   1.000  C
  H37      1.0000 0.71560  0.75570  0.04450  Biso   1.000  H
  C46      1.0000 0.53970  0.42950  0.14050  Biso   1.000  C
  H38      1.0000 0.54020  0.43170  0.17660  Biso   1.000  H
  C47      1.0000 0.56790  0.41390  0.06210  Biso   1.000  C
  H39      1.0000 0.59010  0.40390  0.03370  Biso   1.000  H
  C48      1.0000 0.46890  0.42600  0.01370  Biso   1.000  C
  C49      1.0000 0.49010  0.40700  0.96700  Biso   1.000  C
  H40      1.0000 0.53120  0.39480  0.96350  Biso   1.000  H
  C50      1.0000 0.44430  0.40790  0.92570  Biso   1.000  C
  H41      1.0000 0.45660  0.39200  0.89410  Biso   1.000  H
  C51      1.0000 0.38360  0.42860  0.92450  Biso   1.000  C
  C52      1.0000 0.36100  0.44420  0.97080  Biso   1.000  C
  H42      1.0000 0.31920  0.45560  0.97140  Biso   1.000  H
  C53      1.0000 0.40120  0.44350  0.01890  Biso   1.000  C
  H43      1.0000 0.38650  0.45310  0.05100  Biso   1.000  H
  C54      1.0000 0.34120  0.42740  0.87650  Biso   1.000  C
  O100     1.0000 0.23600  0.60170  0.82350  Biso   1.000  O
  H44      1.0000 0.20390  0.57230  0.83140  Biso   1.000  H
  O101     1.0000 0.31610  0.90980  0.76790  Biso   1.000  O
  H45      1.0000 0.30530  0.95270  0.75300  Biso   1.000  H
  O102     1.0000 0.70220  0.74020  0.22940  Biso   1.000  O
  H46      1.0000 0.66670  0.72160  0.24600  Biso   1.000  H
  K2       1.0000 0.04920  0.05990  0.01790  Biso   1.000  K
  O103     1.0000 0.02500  0.03100  0.02000  Biso   1.000  O
  P8       1.0000 0.94650  0.09960  0.89050  Biso   1.000  P
  P9       1.0000 0.87800  0.10510  0.03330  Biso   1.000  P
  O104     1.0000 0.92530  0.02500  0.90380  Biso   1.000  O
  O105     1.0000 0.87600  0.02840  0.01040  Biso   1.000  O
  O106     1.0000 0.89150  0.98830  0.06420  Biso   1.000  O
  P10      1.0000 0.91090  0.04470  0.10260  Biso   1.000  P
  O107     1.0000 0.94720  0.12420  0.03800  Biso   1.000  O
  W35      1.0000 0.21345  0.03376  0.00662  Biso   1.000  W
  O108     1.0000 0.16890  0.09560  0.97860  Biso   1.000  O
  O109     1.0000 0.17920  0.05000  0.07250  Biso   1.000  O
  W36      1.0000 0.15440  0.03659  0.13886  Biso   1.000  W
  W37      1.0000 0.02517  0.16619  0.13336  Biso   1.000  W
  O110     1.0000 0.08760  0.11600  0.12990  Biso   1.000  O
  O111     1.0000 0.02700  0.19700  0.06730  Biso   1.000  O
  O112     1.0000 0.06770  0.19820  0.97060  Biso   1.000  O
  O113     1.0000 0.97780  0.08180  0.09220  Biso   1.000  O
  O114     1.0000 0.99590  0.12020  0.92680  Biso   1.000  O
  W38      1.0000 0.18301  0.08352  0.94713  Biso   1.000  W
  W39      1.0000 0.05559  0.21542  0.93583  Biso   1.000  W
  W40      1.0000 0.99375  0.22081  0.06651  Biso   1.000  W
  O115     1.0000 0.09400  0.28600  0.94200  Biso   1.000  O
  O116     1.0000 0.02820  0.29910  0.08920  Biso   1.000  O
  W41      1.0000 0.23763  0.35052  0.47005  Biso   1.000  W
  W42      1.0000 0.30003  0.35284  0.33689  Biso   1.000  W
  W43      1.0000 0.42046  0.44049  0.26115  Biso   1.000  W
  W44      1.0000 0.55342  0.57001  0.26756  Biso   1.000  W
  W45      1.0000 0.64150  0.69883  0.35884  Biso   1.000  W
  W46      1.0000 0.74412  0.57619  0.39310  Biso   1.000  W
  W47      1.0000 0.65263  0.44583  0.30749  Biso   1.000  W
  W48      1.0000 0.52169  0.31633  0.29660  Biso   1.000  W
  W49      1.0000 0.40328  0.23082  0.37551  Biso   1.000  W
  W50      1.0000 0.33690  0.22454  0.50636  Biso   1.000  W
  O117     1.0000 0.24920  0.44710  0.45990  Biso   1.000  O
  O118     1.0000 0.25870  0.32730  0.39880  Biso   1.000  O
  O119     1.0000 0.35610  0.38550  0.28740  Biso   1.000  O
  O120     1.0000 0.39050  0.51370  0.29990  Biso   1.000  O
  O121     1.0000 0.49370  0.49680  0.25480  Biso   1.000  O
  O122     1.0000 0.48890  0.61120  0.30430  Biso   1.000  O
  O123     1.0000 0.61050  0.63430  0.29590  Biso   1.000  O
  O124     1.0000 0.56120  0.70830  0.36960  Biso   1.000  O
  O125     1.0000 0.72130  0.65730  0.35420  Biso   1.000  O
  O126     1.0000 0.62060  0.51010  0.25510  Biso   1.000  O
  O127     1.0000 0.46720  0.35900  0.24330  Biso   1.000  O
  O128     1.0000 0.38530  0.34370  0.39250  Biso   1.000  O
  O129     1.0000 0.33120  0.25570  0.33750  Biso   1.000  O
  O130     1.0000 0.34240  0.34030  0.48990  Biso   1.000  O
  O131     1.0000 0.25330  0.25300  0.48820  Biso   1.000  O
  O132     1.0000 0.33020  0.25580  0.57640  Biso   1.000  O
  O133     1.0000 0.34920  0.21620  0.43770  Biso   1.000  O
  O134     1.0000 0.45510  0.26510  0.32350  Biso   1.000  O
  O135     1.0000 0.58380  0.38240  0.28740  Biso   1.000  O
  O136     1.0000 0.70940  0.52200  0.33900  Biso   1.000  O
  O137     1.0000 0.76380  0.62740  0.45250  Biso   1.000  O
  O138     1.0000 0.82170  0.56700  0.38150  Biso   1.000  O
  O139     1.0000 0.42380  0.22960  0.52540  Biso   1.000  O
  O140     1.0000 0.47330  0.23640  0.42240  Biso   1.000  O
  O141     1.0000 0.56110  0.30090  0.36660  Biso   1.000  O
  O142     1.0000 0.66410  0.40030  0.37030  Biso   1.000  O
  O143     1.0000 0.73360  0.49850  0.43700  Biso   1.000  O
  O144     1.0000 0.47840  0.40840  0.33350  Biso   1.000  O
  O145     1.0000 0.64230  0.60100  0.40990  Biso   1.000  O
  O146     1.0000 0.57780  0.50920  0.34240  Biso   1.000  O
  O147     1.0000 0.29750  0.44700  0.35630  Biso   1.000  O
  W51      1.0000 0.41745  0.59514  0.34360  Biso   1.000  W
  W52      1.0000 0.29722  0.50973  0.41859  Biso   1.000  W
  O148     1.0000 0.62320  0.35400  0.45210  Biso   1.000  O
  O149     1.0000 0.53260  0.28700  0.50030  Biso   1.000  O
  O150     1.0000 0.35480  0.56300  0.38650  Biso   1.000  O
  P11      1.0000 0.39150  0.37000  0.45390  Biso   1.000  P
  P12      1.0000 0.52170  0.46500  0.36790  Biso   1.000  P
  O151     1.0000 0.47530  0.52050  0.38610  Biso   1.000  O
  O152     1.0000 0.55090  0.42250  0.41910  Biso   1.000  O
  O153     1.0000 0.37640  0.44660  0.44770  Biso   1.000  O
  O154     1.0000 0.45330  0.35600  0.48700  Biso   1.000  O
  W53      1.0000 0.61998  0.33936  0.42235  Biso   1.000  W
  O155     1.0000 0.54000  0.18400  0.51240  Biso   1.000  O
  W54      1.0000 0.50225  0.25567  0.49976  Biso   1.000  W
  O156     1.0000 0.46050  0.66100  0.40300  Biso   1.000  O
  O157     1.0000 0.31200  0.55700  0.48270  Biso   1.000  O
  Cu11     1.0000 0.88452  0.58413  0.31624  Biso   1.000  Cu
  Cu12     1.0000 0.76329  0.66125  0.24147  Biso   1.000  Cu
  Cu13     1.0000 0.72008  0.82907  0.27228  Biso   1.000  Cu
  Cu14     1.0000 0.81998  0.90990  0.36089  Biso   1.000  Cu
  Cu15     1.0000 0.16429  0.74644  0.65771  Biso   1.000  Cu
  N43      1.0000 0.14130  0.63860  0.68100  Biso   1.000  N
  N44      1.0000 0.15850  0.61540  0.72850  Biso   1.000  N
  N45      1.0000 0.14380  0.55240  0.73510  Biso   1.000  N
  H47      1.0000 0.15120  0.52980  0.76390  Biso   1.000  H
  N46      1.0000 0.11330  0.52460  0.68870  Biso   1.000  N
  N47      1.0000 0.01070  0.58050  0.44470  Biso   1.000  N
  N48      1.0000 0.01670  0.58140  0.36670  Biso   1.000  N
  N49      1.0000 0.95430  0.58480  0.37160  Biso   1.000  N
  N50      1.0000 0.86340  0.69860  0.32240  Biso   1.000  N
  N51      1.0000 0.81150  0.71770  0.29240  Biso   1.000  N
  N52      1.0000 0.79460  0.78130  0.30320  Biso   1.000  N
  N53      1.0000 0.83560  0.80390  0.34350  Biso   1.000  N
  N54      1.0000 0.07410  0.75130  0.51100  Biso   1.000  N
  N55      1.0000 0.13470  0.74840  0.49550  Biso   1.000  N
  N56      1.0000 0.13810  0.74850  0.58240  Biso   1.000  N
  N57      1.0000 0.09240  0.07950  0.61370  Biso   1.000  N
  N58      1.0000 0.98920  0.06550  0.60770  Biso   1.000  N
  N59      1.0000 0.00680  0.07530  0.56080  Biso   1.000  N
  N60      1.0000 0.82360  0.12690  0.34770  Biso   1.000  N
  N61      1.0000 0.78230  0.10250  0.30750  Biso   1.000  N
  N62      1.0000 0.77710  0.03970  0.31430  Biso   1.000  N
  H48      1.0000 0.75270  0.01400  0.29410  Biso   1.000  H
  N63      1.0000 0.81110  0.01470  0.35430  Biso   1.000  N
  C55      1.0000 0.11250  0.58030  0.65550  Biso   1.000  C
  C56      1.0000 0.08080  0.57650  0.60180  Biso   1.000  C
  C57      1.0000 0.11840  0.57140  0.56780  Biso   1.000  C
  H49      1.0000 0.16050  0.56740  0.57890  Biso   1.000  H
  C58      1.0000 0.10040  0.57150  0.51240  Biso   1.000  C
  H50      1.0000 0.12760  0.56520  0.48680  Biso   1.000  H
  C59      1.0000 0.03520  0.58240  0.50250  Biso   1.000  C
  C60      1.0000 0.99830  0.58930  0.53840  Biso   1.000  C
  H51      1.0000 0.95580  0.59460  0.52980  Biso   1.000  H
  C61      1.0000 0.02350  0.58870  0.59150  Biso   1.000  C
  H52      1.0000 0.99820  0.59700  0.61820  Biso   1.000  H
  C62      1.0000 0.05270  0.57240  0.40590  Biso   1.000  C
  H53      1.0000 0.09520  0.56300  0.40920  Biso   1.000  H
  C63      1.0000 0.95380  0.58710  0.42180  Biso   1.000  C
  H54      1.0000 0.91830  0.59260  0.43930  Biso   1.000  H
  C64      1.0000 0.87550  0.75350  0.35130  Biso   1.000  C
  C65      1.0000 0.93030  0.75420  0.39630  Biso   1.000  C
  C66      1.0000 0.98510  0.75450  0.38170  Biso   1.000  C
  H55      1.0000 0.99110  0.75570  0.34640  Biso   1.000  H
  C67      1.0000 0.03880  0.75310  0.42130  Biso   1.000  C
  H56      1.0000 0.07960  0.75230  0.41250  Biso   1.000  H
  C68      1.0000 0.02460  0.75300  0.47210  Biso   1.000  C
  C69      1.0000 0.96710  0.75110  0.48690  Biso   1.000  C
  H57      1.0000 0.96070  0.75120  0.52220  Biso   1.000  H
  C70      1.0000 0.91460  0.74890  0.44730  Biso   1.000  C
  H58      1.0000 0.87370  0.74440  0.45550  Biso   1.000  H
  C71      1.0000 0.07270  0.74700  0.56210  Biso   1.000  C
  H59      1.0000 0.03800  0.74380  0.58080  Biso   1.000  H
  C72      1.0000 0.17240  0.74660  0.54180  Biso   1.000  C
  H60      1.0000 0.21560  0.74430  0.54450  Biso   1.000  H
  C73      1.0000 0.03970  0.07050  0.64050  Biso   1.000  C
  H61      1.0000 0.04020  0.06830  0.67660  Biso   1.000  H
  C74      1.0000 0.06790  0.08610  0.56210  Biso   1.000  C
  H62      1.0000 0.09010  0.09610  0.53370  Biso   1.000  H
  C75      1.0000 0.96890  0.07400  0.51370  Biso   1.000  C
  C76      1.0000 0.99010  0.09300  0.46700  Biso   1.000  C
  H63      1.0000 0.03120  0.10520  0.46350  Biso   1.000  H
  C77      1.0000 0.94430  0.09210  0.42570  Biso   1.000  C
  H64      1.0000 0.95660  0.10800  0.39410  Biso   1.000  H
  C78      1.0000 0.88360  0.07140  0.42450  Biso   1.000  C
  C79      1.0000 0.86100  0.05580  0.47080  Biso   1.000  C
  H65      1.0000 0.81920  0.04440  0.47140  Biso   1.000  H
  C80      1.0000 0.90120  0.05650  0.51890  Biso   1.000  C
  H66      1.0000 0.88650  0.04690  0.55100  Biso   1.000  H
  C81      1.0000 0.84120  0.07260  0.37650  Biso   1.000  C
  O158     1.0000 0.73600  0.89830  0.32350  Biso   1.000  O
  H67      1.0000 0.70390  0.92770  0.33140  Biso   1.000  H
  O159     1.0000 0.81610  0.59020  0.26790  Biso   1.000  O
  H68      1.0000 0.80530  0.54730  0.25300  Biso   1.000  H
  O160     1.0000 0.20220  0.75980  0.72940  Biso   1.000  O
  H69      1.0000 0.16670  0.77840  0.74600  Biso   1.000  H
  K3       1.0000 0.54920  0.44010  0.51790  Biso   1.000  K
  O161     1.0000 0.52500  0.46900  0.52000  Biso   1.000  O
  P13      1.0000 0.44650  0.40040  0.39050  Biso   1.000  P
  P14      1.0000 0.37800  0.39490  0.53330  Biso   1.000  P
  O162     1.0000 0.42530  0.47500  0.40380  Biso   1.000  O
  O163     1.0000 0.37600  0.47160  0.51040  Biso   1.000  O
  O164     1.0000 0.39150  0.51170  0.56420  Biso   1.000  O
  P15      1.0000 0.41090  0.45530  0.60260  Biso   1.000  P
  O165     1.0000 0.44720  0.37580  0.53800  Biso   1.000  O
  W55      1.0000 0.71345  0.46624  0.50662  Biso   1.000  W
  O166     1.0000 0.66890  0.40440  0.47860  Biso   1.000  O
  O167     1.0000 0.67920  0.45000  0.57250  Biso   1.000  O
  W56      1.0000 0.65440  0.46341  0.63886  Biso   1.000  W
  W57      1.0000 0.52517  0.33381  0.63336  Biso   1.000  W
  O168     1.0000 0.58760  0.38400  0.62990  Biso   1.000  O
  O169     1.0000 0.52700  0.30300  0.56730  Biso   1.000  O
  O170     1.0000 0.56770  0.30180  0.47060  Biso   1.000  O
  O171     1.0000 0.47780  0.41820  0.59220  Biso   1.000  O
  O172     1.0000 0.49590  0.37980  0.42680  Biso   1.000  O
  W58      1.0000 0.68301  0.41648  0.44713  Biso   1.000  W
  W59      1.0000 0.55559  0.28458  0.43583  Biso   1.000  W
  W60      1.0000 0.49375  0.27919  0.56651  Biso   1.000  W
  O173     1.0000 0.59400  0.21400  0.44200  Biso   1.000  O
  O174     1.0000 0.52820  0.20090  0.58920  Biso   1.000  O
  W61      1.0000 0.26237  0.85052  0.02995  Biso   1.000  W
  W62      1.0000 0.19997  0.85284  0.16311  Biso   1.000  W
  W63      1.0000 0.07954  0.94049  0.23885  Biso   1.000  W
  W64      1.0000 0.94658  0.07001  0.23244  Biso   1.000  W
  W65      1.0000 0.85850  0.19883  0.14116  Biso   1.000  W
  W66      1.0000 0.75588  0.07619  0.10690  Biso   1.000  W
  W67      1.0000 0.84737  0.94583  0.19251  Biso   1.000  W
  W68      1.0000 0.97831  0.81633  0.20340  Biso   1.000  W
  W69      1.0000 0.09672  0.73082  0.12449  Biso   1.000  W
  W70      1.0000 0.16310  0.72454  0.99364  Biso   1.000  W
  O175     1.0000 0.25080  0.94710  0.04010  Biso   1.000  O
  O176     1.0000 0.24130  0.82730  0.10120  Biso   1.000  O
  O177     1.0000 0.14390  0.88550  0.21260  Biso   1.000  O
  O178     1.0000 0.10950  0.01370  0.20010  Biso   1.000  O
  O179     1.0000 0.00630  0.99680  0.24520  Biso   1.000  O
  O180     1.0000 0.01110  0.11120  0.19570  Biso   1.000  O
  O181     1.0000 0.88950  0.13430  0.20410  Biso   1.000  O
  O182     1.0000 0.93880  0.20830  0.13040  Biso   1.000  O
  O183     1.0000 0.77870  0.15730  0.14580  Biso   1.000  O
  O184     1.0000 0.87940  0.01010  0.24490  Biso   1.000  O
  O185     1.0000 0.03280  0.85900  0.25670  Biso   1.000  O
  O186     1.0000 0.11470  0.84370  0.10750  Biso   1.000  O
  O187     1.0000 0.16880  0.75570  0.16250  Biso   1.000  O
  O188     1.0000 0.15760  0.84030  0.01010  Biso   1.000  O
  O189     1.0000 0.24670  0.75300  0.01180  Biso   1.000  O
  O190     1.0000 0.16980  0.75580  0.92360  Biso   1.000  O
  O191     1.0000 0.15080  0.71620  0.06230  Biso   1.000  O
  O192     1.0000 0.04490  0.76510  0.17650  Biso   1.000  O
  O193     1.0000 0.91620  0.88240  0.21260  Biso   1.000  O
  O194     1.0000 0.79060  0.02200  0.16100  Biso   1.000  O
  O195     1.0000 0.73620  0.12740  0.04750  Biso   1.000  O
  O196     1.0000 0.67830  0.06700  0.11850  Biso   1.000  O
  O197     1.0000 0.07620  0.72960  0.97460  Biso   1.000  O
  O198     1.0000 0.02670  0.73640  0.07760  Biso   1.000  O
  O199     1.0000 0.93890  0.80090  0.13340  Biso   1.000  O
  O200     1.0000 0.83590  0.90030  0.12970  Biso   1.000  O
  O201     1.0000 0.76640  0.99850  0.06300  Biso   1.000  O
  O202     1.0000 0.02160  0.90840  0.16650  Biso   1.000  O
  O203     1.0000 0.85770  0.10100  0.09010  Biso   1.000  O
  O204     1.0000 0.92220  0.00920  0.15760  Biso   1.000  O
  O205     1.0000 0.20250  0.94700  0.14370  Biso   1.000  O
  W71      1.0000 0.08255  0.09514  0.15640  Biso   1.000  W
  W72      1.0000 0.20278  0.00973  0.08141  Biso   1.000  W
  O206     1.0000 0.87680  0.85400  0.04790  Biso   1.000  O
  O207     1.0000 0.96740  0.78700  0.99970  Biso   1.000  O
  O208     1.0000 0.14520  0.06300  0.11350  Biso   1.000  O
  P16      1.0000 0.10850  0.87000  0.04610  Biso   1.000  P
  P17      1.0000 0.97830  0.96500  0.13210  Biso   1.000  P
  O209     1.0000 0.02470  0.02050  0.11390  Biso   1.000  O
  O210     1.0000 0.94910  0.92250  0.08090  Biso   1.000  O
  O211     1.0000 0.12360  0.94660  0.05230  Biso   1.000  O
  O212     1.0000 0.04670  0.85600  0.01300  Biso   1.000  O
  W73      1.0000 0.88002  0.83936  0.07765  Biso   1.000  W
  O213     1.0000 0.96000  0.68400  0.98760  Biso   1.000  O
  W74      1.0000 0.99775  0.75567  0.00024  Biso   1.000  W
  O214     1.0000 0.03950  0.16100  0.09700  Biso   1.000  O
  O215     1.0000 0.18800  0.05700  0.01730  Biso   1.000  O
  Cu16     1.0000 0.61548  0.08413  0.18376  Biso   1.000  Cu
  Cu17     1.0000 0.73671  0.16125  0.25853  Biso   1.000  Cu
  Cu18     1.0000 0.77992  0.32907  0.22772  Biso   1.000  Cu
  Cu19     1.0000 0.68002  0.40990  0.13911  Biso   1.000  Cu
  Cu20     1.0000 0.33571  0.24644  0.84229  Biso   1.000  Cu
  N64      1.0000 0.35870  0.13860  0.81900  Biso   1.000  N
  N65      1.0000 0.34150  0.11540  0.77150  Biso   1.000  N
  N66      1.0000 0.35620  0.05240  0.76490  Biso   1.000  N
  H70      1.0000 0.34880  0.02980  0.73610  Biso   1.000  H
  N67      1.0000 0.38670  0.02460  0.81130  Biso   1.000  N
  N68      1.0000 0.48930  0.08050  0.05530  Biso   1.000  N
  N69      1.0000 0.48330  0.08140  0.13330  Biso   1.000  N
  N70      1.0000 0.54570  0.08480  0.12840  Biso   1.000  N
  N71      1.0000 0.63660  0.19860  0.17760  Biso   1.000  N
  N72      1.0000 0.68850  0.21770  0.20760  Biso   1.000  N
  N73      1.0000 0.70540  0.28130  0.19680  Biso   1.000  N
  N74      1.0000 0.66440  0.30390  0.15650  Biso   1.000  N
  N75      1.0000 0.42590  0.25130  0.98900  Biso   1.000  N
  N76      1.0000 0.36530  0.24840  0.00450  Biso   1.000  N
  N77      1.0000 0.36190  0.24850  0.91760  Biso   1.000  N
  N78      1.0000 0.40760  0.57950  0.88630  Biso   1.000  N
  N79      1.0000 0.51080  0.56550  0.89230  Biso   1.000  N
  N80      1.0000 0.49320  0.57530  0.93920  Biso   1.000  N
  N81      1.0000 0.67640  0.62690  0.15230  Biso   1.000  N
  N82      1.0000 0.71770  0.60250  0.19250  Biso   1.000  N
  N83      1.0000 0.72290  0.53970  0.18570  Biso   1.000  N
  H71      1.0000 0.74730  0.51400  0.20590  Biso   1.000  H
  N84      1.0000 0.68890  0.51470  0.14570  Biso   1.000  N
  C82      1.0000 0.38750  0.08030  0.84450  Biso   1.000  C
  C83      1.0000 0.41920  0.07650  0.89820  Biso   1.000  C
  C84      1.0000 0.38160  0.07140  0.93220  Biso   1.000  C
  H72      1.0000 0.33950  0.06740  0.92110  Biso   1.000  H
  C85      1.0000 0.39960  0.07150  0.98760  Biso   1.000  C
  H73      1.0000 0.37240  0.06520  0.01320  Biso   1.000  H
  C86      1.0000 0.46480  0.08240  0.99750  Biso   1.000  C
  C87      1.0000 0.50170  0.08930  0.96160  Biso   1.000  C
  H74      1.0000 0.54420  0.09460  0.97020  Biso   1.000  H
  C88      1.0000 0.47650  0.08870  0.90850  Biso   1.000  C
  H75      1.0000 0.50180  0.09700  0.88180  Biso   1.000  H
  C89      1.0000 0.44730  0.07240  0.09410  Biso   1.000  C
  H76      1.0000 0.40480  0.06300  0.09080  Biso   1.000  H
  C90      1.0000 0.54620  0.08710  0.07820  Biso   1.000  C
  H77      1.0000 0.58170  0.09260  0.06070  Biso   1.000  H
  C91      1.0000 0.62450  0.25350  0.14870  Biso   1.000  C
  C92      1.0000 0.56970  0.25420  0.10370  Biso   1.000  C
  C93      1.0000 0.51490  0.25450  0.11830  Biso   1.000  C
  H78      1.0000 0.50890  0.25570  0.15360  Biso   1.000  H
  C94      1.0000 0.46120  0.25310  0.07870  Biso   1.000  C
  H79      1.0000 0.42040  0.25230  0.08750  Biso   1.000  H
  C95      1.0000 0.47540  0.25300  0.02790  Biso   1.000  C
  C96      1.0000 0.53290  0.25110  0.01310  Biso   1.000  C
  H80      1.0000 0.53930  0.25120  0.97780  Biso   1.000  H
  C97      1.0000 0.58540  0.24890  0.05270  Biso   1.000  C
  H81      1.0000 0.62630  0.24440  0.04450  Biso   1.000  H
  C98      1.0000 0.42730  0.24700  0.93790  Biso   1.000  C
  H82      1.0000 0.46200  0.24380  0.91920  Biso   1.000  H
  C99      1.0000 0.32760  0.24660  0.95820  Biso   1.000  C
  H83      1.0000 0.28440  0.24430  0.95550  Biso   1.000  H
  C100     1.0000 0.46030  0.57050  0.85950  Biso   1.000  C
  H84      1.0000 0.45980  0.56830  0.82340  Biso   1.000  H
  C101     1.0000 0.43210  0.58610  0.93790  Biso   1.000  C
  H85      1.0000 0.40990  0.59610  0.96630  Biso   1.000  H
  C102     1.0000 0.53110  0.57400  0.98630  Biso   1.000  C
  C103     1.0000 0.50990  0.59300  0.03300  Biso   1.000  C
  H86      1.0000 0.46880  0.60520  0.03650  Biso   1.000  H
  C104     1.0000 0.55570  0.59210  0.07430  Biso   1.000  C
  H87      1.0000 0.54340  0.60800  0.10590  Biso   1.000  H
  C105     1.0000 0.61640  0.57140  0.07550  Biso   1.000  C
  C106     1.0000 0.63900  0.55580  0.02920  Biso   1.000  C
  H88      1.0000 0.68080  0.54440  0.02860  Biso   1.000  H
  C107     1.0000 0.59880  0.55650  0.98110  Biso   1.000  C
  H89      1.0000 0.61350  0.54690  0.94900  Biso   1.000  H
  C108     1.0000 0.65880  0.57260  0.12350  Biso   1.000  C
  O216     1.0000 0.76400  0.39830  0.17650  Biso   1.000  O
  H90      1.0000 0.79610  0.42770  0.16860  Biso   1.000  H
  O217     1.0000 0.68390  0.09020  0.23210  Biso   1.000  O
  H91      1.0000 0.69470  0.04730  0.24700  Biso   1.000  H
  O218     1.0000 0.29780  0.25980  0.77060  Biso   1.000  O
  H92      1.0000 0.33330  0.27840  0.75400  Biso   1.000  H
  K4       1.0000 0.95080  0.94010  0.98210  Biso   1.000  K
  O219     1.0000 0.97500  0.96900  0.98000  Biso   1.000  O
  P18      1.0000 0.05350  0.90040  0.10950  Biso   1.000  P
  P19      1.0000 0.12200  0.89490  0.96670  Biso   1.000  P
  O220     1.0000 0.07470  0.97500  0.09620  Biso   1.000  O
  O221     1.0000 0.12400  0.97160  0.98960  Biso   1.000  O
  O222     1.0000 0.10850  0.01170  0.93580  Biso   1.000  O
  P20      1.0000 0.08910  0.95530  0.89740  Biso   1.000  P
  O223     1.0000 0.05280  0.87580  0.96200  Biso   1.000  O
  W75      1.0000 0.78655  0.96624  0.99338  Biso   1.000  W
  O224     1.0000 0.83110  0.90440  0.02140  Biso   1.000  O
  O225     1.0000 0.82080  0.95000  0.92750  Biso   1.000  O
  W76      1.0000 0.84560  0.96341  0.86114  Biso   1.000  W
  W77      1.0000 0.97483  0.83381  0.86664  Biso   1.000  W
  O226     1.0000 0.91240  0.88400  0.87010  Biso   1.000  O
  O227     1.0000 0.97300  0.80300  0.93270  Biso   1.000  O
  O228     1.0000 0.93230  0.80180  0.02940  Biso   1.000  O
  O229     1.0000 0.02220  0.91820  0.90780  Biso   1.000  O
  O230     1.0000 0.00410  0.87980  0.07320  Biso   1.000  O
  W78      1.0000 0.81699  0.91648  0.05287  Biso   1.000  W
  W79      1.0000 0.94441  0.78458  0.06417  Biso   1.000  W
  W80      1.0000 0.00625  0.77919  0.93349  Biso   1.000  W
  O231     1.0000 0.90600  0.71400  0.05800  Biso   1.000  O
  O232     1.0000 0.97180  0.70090  0.91080  Biso   1.000  O
