data_image0
_cell_length_a       23.0194
_cell_length_b       23.0194
_cell_length_c       12.7354
_cell_angle_alpha    90
_cell_angle_beta     90
_cell_angle_gamma    120

_symmetry_space_group_name_H-M    "P 1"
_symmetry_int_tables_number       1

loop_
  _symmetry_equiv_pos_as_xyz
  'x, y, z'

loop_
  _atom_site_label
  _atom_site_occupancy
  _atom_site_fract_x
  _atom_site_fract_y
  _atom_site_fract_z
  _atom_site_thermal_displace_type
  _atom_site_B_iso_or_equiv
  _atom_site_type_symbol
  C1       1.0000 0.89600  0.24280  0.44480  Biso   1.000  C
  C2       1.0000 0.93450  0.25500  0.34490  Biso   1.000  C
  C3       1.0000 0.78000  0.31080  0.61550  Biso   1.000  C
  C4       1.0000 0.72056  0.32092  0.60940  Biso   1.000  C
  C5       1.0000 0.65610  0.26770  0.60770  Biso   1.000  C
  H1       1.0000 0.64850  0.22410  0.60540  Biso   1.000  H
  C6       1.0000 0.99210  0.41680  0.54060  Biso   1.000  C
  H2       1.0000 0.95300  0.40890  0.50680  Biso   1.000  H
  C7       1.0000 0.04920  0.43070  0.47910  Biso   1.000  C
  H3       1.0000 0.04670  0.42860  0.40620  Biso   1.000  H
  C8       1.0000 0.10700  0.44700  0.52920  Biso   1.000  C
  H4       1.0000 0.14530  0.45880  0.48970  Biso   1.000  H
  C9       1.0000 0.11090  0.44690  0.63970  Biso   1.000  C
  C10      1.0000 0.05120  0.42990  0.69700  Biso   1.000  C
  C11      1.0000 0.16900  0.46230  0.69480  Biso   1.000  C
  H5       1.0000 0.20810  0.47260  0.65850  Biso   1.000  H
  C12      1.0000 0.00460  0.28320  0.34420  Biso   1.000  C
  H6       1.0000 0.02790  0.29200  0.40720  Biso   1.000  H
  Co1      1.0000 0.84542  0.23688  0.62146  Biso   1.000  Co
  N1       1.0000 0.99277  0.41458  0.64370  Biso   1.000  N
  H7       1.0000 0.86860  0.26790  0.80210  Biso   1.000  H
  O1       1.0000 0.92730  0.26145  0.52810  Biso   1.000  O
  O2       1.0000 0.83743  0.21397  0.44890  Biso   1.000  O
  O3       1.0000 0.76678  0.25019  0.61390  Biso   1.000  O
  O4       1.0000 0.83646  0.35869  0.62850  Biso   1.000  O
  O5       1.0000 0.14299  0.34168  0.33830  Biso   1.000  O
  O6       1.0000 0.92680  0.47510  0.77700  Biso   1.000  O
  H8       1.0000 0.94030  0.50150  0.72420  Biso   1.000  H
  H9       1.0000 0.88950  0.47010  0.79790  Biso   1.000  H
  H10      1.0000 0.87430  0.26690  0.80580  Biso   1.000  H
  O7       1.0000 0.89680  0.47360  0.76800  Biso   1.000  O
  H11      1.0000 0.88060  0.47110  0.82900  Biso   1.000  H
  C13      1.0000 0.75720  0.65320  0.44480  Biso   1.000  C
  C14      1.0000 0.74500  0.67950  0.34490  Biso   1.000  C
  C15      1.0000 0.68920  0.46920  0.61550  Biso   1.000  C
  C16      1.0000 0.67908  0.39964  0.60940  Biso   1.000  C
  C17      1.0000 0.73230  0.38840  0.60770  Biso   1.000  C
  H12      1.0000 0.77590  0.42440  0.60540  Biso   1.000  H
  C18      1.0000 0.58320  0.57530  0.54060  Biso   1.000  C
  H13      1.0000 0.59110  0.54410  0.50680  Biso   1.000  H
  C19      1.0000 0.56930  0.61850  0.47910  Biso   1.000  C
  H14      1.0000 0.57140  0.61810  0.40620  Biso   1.000  H
  C20      1.0000 0.55300  0.66000  0.52920  Biso   1.000  C
  H15      1.0000 0.54120  0.68650  0.48970  Biso   1.000  H
  C21      1.0000 0.55310  0.66400  0.63970  Biso   1.000  C
  C22      1.0000 0.57010  0.62130  0.69700  Biso   1.000  C
  C23      1.0000 0.53770  0.70670  0.69480  Biso   1.000  C
  H16      1.0000 0.52740  0.73550  0.65850  Biso   1.000  H
  C24      1.0000 0.71680  0.72140  0.34420  Biso   1.000  C
  H17      1.0000 0.70800  0.73590  0.40720  Biso   1.000  H
  Co2      1.0000 0.76312  0.60854  0.62146  Biso   1.000  Co
  N2       1.0000 0.58542  0.57819  0.64370  Biso   1.000  N
  H18      1.0000 0.73210  0.60070  0.80210  Biso   1.000  H
  O8       1.0000 0.73855  0.66585  0.52810  Biso   1.000  O
  O9       1.0000 0.78603  0.62346  0.44890  Biso   1.000  O
  O10      1.0000 0.74981  0.51659  0.61390  Biso   1.000  O
  O11      1.0000 0.64131  0.47777  0.62850  Biso   1.000  O
  O12      1.0000 0.65832  0.80131  0.33830  Biso   1.000  O
  O13      1.0000 0.52490  0.45170  0.77700  Biso   1.000  O
  H19      1.0000 0.49850  0.43880  0.72420  Biso   1.000  H
  H20      1.0000 0.52990  0.41940  0.79790  Biso   1.000  H
  H21      1.0000 0.73310  0.60740  0.80580  Biso   1.000  H
  O14      1.0000 0.52640  0.42320  0.76800  Biso   1.000  O
  H22      1.0000 0.52890  0.40950  0.82900  Biso   1.000  H
  C25      1.0000 0.34680  0.10400  0.44480  Biso   1.000  C
  C26      1.0000 0.32050  0.06550  0.34490  Biso   1.000  C
  C27      1.0000 0.53080  0.22000  0.61550  Biso   1.000  C
  C28      1.0000 0.60036  0.27944  0.60940  Biso   1.000  C
  C29      1.0000 0.61160  0.34390  0.60770  Biso   1.000  C
  H23      1.0000 0.57560  0.35150  0.60540  Biso   1.000  H
  C30      1.0000 0.42470  0.00790  0.54060  Biso   1.000  C
  H24      1.0000 0.45590  0.04700  0.50680  Biso   1.000  H
  C31      1.0000 0.38150  0.95080  0.47910  Biso   1.000  C
  H25      1.0000 0.38190  0.95330  0.40620  Biso   1.000  H
  C32      1.0000 0.34000  0.89300  0.52920  Biso   1.000  C
  H26      1.0000 0.31350  0.85470  0.48970  Biso   1.000  H
  C33      1.0000 0.33600  0.88910  0.63970  Biso   1.000  C
  C34      1.0000 0.37870  0.94880  0.69700  Biso   1.000  C
  C35      1.0000 0.29330  0.83100  0.69480  Biso   1.000  C
  H27      1.0000 0.26450  0.79190  0.65850  Biso   1.000  H
  C36      1.0000 0.27860  0.99540  0.34420  Biso   1.000  C
  H28      1.0000 0.26410  0.97210  0.40720  Biso   1.000  H
  Co3      1.0000 0.39146  0.15458  0.62146  Biso   1.000  Co
  N3       1.0000 0.42181  0.00723  0.64370  Biso   1.000  N
  H29      1.0000 0.39930  0.13140  0.80210  Biso   1.000  H
  O15      1.0000 0.33415  0.07270  0.52810  Biso   1.000  O
  O16      1.0000 0.37654  0.16257  0.44890  Biso   1.000  O
  O17      1.0000 0.48341  0.23322  0.61390  Biso   1.000  O
  O18      1.0000 0.52223  0.16354  0.62850  Biso   1.000  O
  O19      1.0000 0.19869  0.85701  0.33830  Biso   1.000  O
  O20      1.0000 0.54830  0.07320  0.77700  Biso   1.000  O
  H30      1.0000 0.56120  0.05970  0.72420  Biso   1.000  H
  H31      1.0000 0.58060  0.11050  0.79790  Biso   1.000  H
  H32      1.0000 0.39260  0.12570  0.80580  Biso   1.000  H
  O21      1.0000 0.57680  0.10320  0.76800  Biso   1.000  O
  H33      1.0000 0.59050  0.11940  0.82900  Biso   1.000  H
  C37      1.0000 0.10400  0.75720  0.94480  Biso   1.000  C
  C38      1.0000 0.06550  0.74500  0.84490  Biso   1.000  C
  C39      1.0000 0.22000  0.68920  0.11550  Biso   1.000  C
  C40      1.0000 0.27944  0.67908  0.10940  Biso   1.000  C
  C41      1.0000 0.34390  0.73230  0.10770  Biso   1.000  C
  H34      1.0000 0.35150  0.77590  0.10540  Biso   1.000  H
  C42      1.0000 0.00790  0.58320  0.04060  Biso   1.000  C
  H35      1.0000 0.04700  0.59110  0.00680  Biso   1.000  H
  C43      1.0000 0.95080  0.56930  0.97910  Biso   1.000  C
  H36      1.0000 0.95330  0.57140  0.90620  Biso   1.000  H
  C44      1.0000 0.89300  0.55300  0.02920  Biso   1.000  C
  H37      1.0000 0.85470  0.54120  0.98970  Biso   1.000  H
  C45      1.0000 0.88910  0.55310  0.13970  Biso   1.000  C
  C46      1.0000 0.94880  0.57010  0.19700  Biso   1.000  C
  C47      1.0000 0.83100  0.53770  0.19480  Biso   1.000  C
  H38      1.0000 0.79190  0.52740  0.15850  Biso   1.000  H
  C48      1.0000 0.99540  0.71680  0.84420  Biso   1.000  C
  H39      1.0000 0.97210  0.70800  0.90720  Biso   1.000  H
  Co4      1.0000 0.15458  0.76312  0.12146  Biso   1.000  Co
  N4       1.0000 0.00723  0.58542  0.14370  Biso   1.000  N
  H40      1.0000 0.13140  0.73210  0.30210  Biso   1.000  H
  O22      1.0000 0.07270  0.73855  0.02810  Biso   1.000  O
  O23      1.0000 0.16257  0.78603  0.94890  Biso   1.000  O
  O24      1.0000 0.23322  0.74981  0.11390  Biso   1.000  O
  O25      1.0000 0.16354  0.64131  0.12850  Biso   1.000  O
  O26      1.0000 0.85701  0.65832  0.83830  Biso   1.000  O
  O27      1.0000 0.07320  0.52490  0.27700  Biso   1.000  O
  H41      1.0000 0.05970  0.49850  0.22420  Biso   1.000  H
  H42      1.0000 0.11050  0.52990  0.29790  Biso   1.000  H
  H43      1.0000 0.12570  0.73310  0.30580  Biso   1.000  H
  O28      1.0000 0.10320  0.52640  0.26800  Biso   1.000  O
  H44      1.0000 0.11940  0.52890  0.32900  Biso   1.000  H
  C49      1.0000 0.24280  0.34680  0.94480  Biso   1.000  C
  C50      1.0000 0.25500  0.32050  0.84490  Biso   1.000  C
  C51      1.0000 0.31080  0.53080  0.11550  Biso   1.000  C
  C52      1.0000 0.32092  0.60036  0.10940  Biso   1.000  C
  C53      1.0000 0.26770  0.61160  0.10770  Biso   1.000  C
  H45      1.0000 0.22410  0.57560  0.10540  Biso   1.000  H
  C54      1.0000 0.41680  0.42470  0.04060  Biso   1.000  C
  H46      1.0000 0.40890  0.45590  0.00680  Biso   1.000  H
  C55      1.0000 0.43070  0.38150  0.97910  Biso   1.000  C
  H47      1.0000 0.42860  0.38190  0.90620  Biso   1.000  H
  C56      1.0000 0.44700  0.34000  0.02920  Biso   1.000  C
  H48      1.0000 0.45880  0.31350  0.98970  Biso   1.000  H
  C57      1.0000 0.44690  0.33600  0.13970  Biso   1.000  C
  C58      1.0000 0.42990  0.37870  0.19700  Biso   1.000  C
  C59      1.0000 0.46230  0.29330  0.19480  Biso   1.000  C
  H49      1.0000 0.47260  0.26450  0.15850  Biso   1.000  H
  C60      1.0000 0.28320  0.27860  0.84420  Biso   1.000  C
  H50      1.0000 0.29200  0.26410  0.90720  Biso   1.000  H
  Co5      1.0000 0.23688  0.39146  0.12146  Biso   1.000  Co
  N5       1.0000 0.41458  0.42181  0.14370  Biso   1.000  N
  H51      1.0000 0.26790  0.39930  0.30210  Biso   1.000  H
  O29      1.0000 0.26145  0.33415  0.02810  Biso   1.000  O
  O30      1.0000 0.21397  0.37654  0.94890  Biso   1.000  O
  O31      1.0000 0.25019  0.48341  0.11390  Biso   1.000  O
  O32      1.0000 0.35869  0.52223  0.12850  Biso   1.000  O
  O33      1.0000 0.34168  0.19869  0.83830  Biso   1.000  O
  O34      1.0000 0.47510  0.54830  0.27700  Biso   1.000  O
  H52      1.0000 0.50150  0.56120  0.22420  Biso   1.000  H
  H53      1.0000 0.47010  0.58060  0.29790  Biso   1.000  H
  H54      1.0000 0.26690  0.39260  0.30580  Biso   1.000  H
  O35      1.0000 0.47360  0.57680  0.26800  Biso   1.000  O
  H55      1.0000 0.47110  0.59050  0.32900  Biso   1.000  H
  C61      1.0000 0.65320  0.89600  0.94480  Biso   1.000  C
  C62      1.0000 0.67950  0.93450  0.84490  Biso   1.000  C
  C63      1.0000 0.46920  0.78000  0.11550  Biso   1.000  C
  C64      1.0000 0.39964  0.72056  0.10940  Biso   1.000  C
  C65      1.0000 0.38840  0.65610  0.10770  Biso   1.000  C
  H56      1.0000 0.42440  0.64850  0.10540  Biso   1.000  H
  C66      1.0000 0.57530  0.99210  0.04060  Biso   1.000  C
  H57      1.0000 0.54410  0.95300  0.00680  Biso   1.000  H
  C67      1.0000 0.61850  0.04920  0.97910  Biso   1.000  C
  H58      1.0000 0.61810  0.04670  0.90620  Biso   1.000  H
  C68      1.0000 0.66000  0.10700  0.02920  Biso   1.000  C
  H59      1.0000 0.68650  0.14530  0.98970  Biso   1.000  H
  C69      1.0000 0.66400  0.11090  0.13970  Biso   1.000  C
  C70      1.0000 0.62130  0.05120  0.19700  Biso   1.000  C
  C71      1.0000 0.70670  0.16900  0.19480  Biso   1.000  C
  H60      1.0000 0.73550  0.20810  0.15850  Biso   1.000  H
  C72      1.0000 0.72140  0.00460  0.84420  Biso   1.000  C
  H61      1.0000 0.73590  0.02790  0.90720  Biso   1.000  H
  Co6      1.0000 0.60854  0.84542  0.12146  Biso   1.000  Co
  N6       1.0000 0.57819  0.99277  0.14370  Biso   1.000  N
  H62      1.0000 0.60070  0.86860  0.30210  Biso   1.000  H
  O36      1.0000 0.66585  0.92730  0.02810  Biso   1.000  O
  O37      1.0000 0.62346  0.83743  0.94890  Biso   1.000  O
  O38      1.0000 0.51659  0.76678  0.11390  Biso   1.000  O
  O39      1.0000 0.47777  0.83646  0.12850  Biso   1.000  O
  O40      1.0000 0.80131  0.14299  0.83830  Biso   1.000  O
  O41      1.0000 0.45170  0.92680  0.27700  Biso   1.000  O
  H63      1.0000 0.43880  0.94030  0.22420  Biso   1.000  H
  H64      1.0000 0.41940  0.88950  0.29790  Biso   1.000  H
  H65      1.0000 0.60740  0.87430  0.30580  Biso   1.000  H
  O42      1.0000 0.42320  0.89680  0.26800  Biso   1.000  O
  H66      1.0000 0.40950  0.88060  0.32900  Biso   1.000  H
  C73      1.0000 0.10400  0.75720  0.55520  Biso   1.000  C
  C74      1.0000 0.06550  0.74500  0.65510  Biso   1.000  C
  C75      1.0000 0.22000  0.68920  0.38450  Biso   1.000  C
  C76      1.0000 0.27944  0.67908  0.39060  Biso   1.000  C
  C77      1.0000 0.34390  0.73230  0.39230  Biso   1.000  C
  H67      1.0000 0.35150  0.77590  0.39460  Biso   1.000  H
  C78      1.0000 0.00790  0.58320  0.45940  Biso   1.000  C
  H68      1.0000 0.04700  0.59110  0.49320  Biso   1.000  H
  C79      1.0000 0.95080  0.56930  0.52090  Biso   1.000  C
  H69      1.0000 0.95330  0.57140  0.59380  Biso   1.000  H
  C80      1.0000 0.89300  0.55300  0.47080  Biso   1.000  C
  H70      1.0000 0.85470  0.54120  0.51030  Biso   1.000  H
  C81      1.0000 0.88910  0.55310  0.36030  Biso   1.000  C
  C82      1.0000 0.94880  0.57010  0.30300  Biso   1.000  C
  C83      1.0000 0.83100  0.53770  0.30520  Biso   1.000  C
  H71      1.0000 0.79190  0.52740  0.34150  Biso   1.000  H
  C84      1.0000 0.99540  0.71680  0.65580  Biso   1.000  C
  H72      1.0000 0.97210  0.70800  0.59280  Biso   1.000  H
  Co7      1.0000 0.15458  0.76312  0.37854  Biso   1.000  Co
  N7       1.0000 0.00723  0.58542  0.35630  Biso   1.000  N
  H73      1.0000 0.13140  0.73210  0.19790  Biso   1.000  H
  O43      1.0000 0.07270  0.73855  0.47190  Biso   1.000  O
  O44      1.0000 0.16257  0.78603  0.55110  Biso   1.000  O
  O45      1.0000 0.23322  0.74981  0.38610  Biso   1.000  O
  O46      1.0000 0.16354  0.64131  0.37150  Biso   1.000  O
  O47      1.0000 0.85701  0.65832  0.66170  Biso   1.000  O
  O48      1.0000 0.07320  0.52490  0.22300  Biso   1.000  O
  H74      1.0000 0.05970  0.49850  0.27580  Biso   1.000  H
  H75      1.0000 0.11050  0.52990  0.20210  Biso   1.000  H
  H76      1.0000 0.12570  0.73310  0.19420  Biso   1.000  H
  O49      1.0000 0.10320  0.52640  0.23200  Biso   1.000  O
  H77      1.0000 0.11940  0.52890  0.17100  Biso   1.000  H
  C85      1.0000 0.24280  0.34680  0.55520  Biso   1.000  C
  C86      1.0000 0.25500  0.32050  0.65510  Biso   1.000  C
  C87      1.0000 0.31080  0.53080  0.38450  Biso   1.000  C
  C88      1.0000 0.32092  0.60036  0.39060  Biso   1.000  C
  C89      1.0000 0.26770  0.61160  0.39230  Biso   1.000  C
  H78      1.0000 0.22410  0.57560  0.39460  Biso   1.000  H
  C90      1.0000 0.41680  0.42470  0.45940  Biso   1.000  C
  H79      1.0000 0.40890  0.45590  0.49320  Biso   1.000  H
  C91      1.0000 0.43070  0.38150  0.52090  Biso   1.000  C
  H80      1.0000 0.42860  0.38190  0.59380  Biso   1.000  H
  C92      1.0000 0.44700  0.34000  0.47080  Biso   1.000  C
  H81      1.0000 0.45880  0.31350  0.51030  Biso   1.000  H
  C93      1.0000 0.44690  0.33600  0.36030  Biso   1.000  C
  C94      1.0000 0.42990  0.37870  0.30300  Biso   1.000  C
  C95      1.0000 0.46230  0.29330  0.30520  Biso   1.000  C
  H82      1.0000 0.47260  0.26450  0.34150  Biso   1.000  H
  C96      1.0000 0.28320  0.27860  0.65580  Biso   1.000  C
  H83      1.0000 0.29200  0.26410  0.59280  Biso   1.000  H
  Co8      1.0000 0.23688  0.39146  0.37854  Biso   1.000  Co
  N8       1.0000 0.41458  0.42181  0.35630  Biso   1.000  N
  H84      1.0000 0.26790  0.39930  0.19790  Biso   1.000  H
  O50      1.0000 0.26145  0.33415  0.47190  Biso   1.000  O
  O51      1.0000 0.21397  0.37654  0.55110  Biso   1.000  O
  O52      1.0000 0.25019  0.48341  0.38610  Biso   1.000  O
  O53      1.0000 0.35869  0.52223  0.37150  Biso   1.000  O
  O54      1.0000 0.34168  0.19869  0.66170  Biso   1.000  O
  O55      1.0000 0.47510  0.54830  0.22300  Biso   1.000  O
  H85      1.0000 0.50150  0.56120  0.27580  Biso   1.000  H
  H86      1.0000 0.47010  0.58060  0.20210  Biso   1.000  H
  H87      1.0000 0.26690  0.39260  0.19420  Biso   1.000  H
  O56      1.0000 0.47360  0.57680  0.23200  Biso   1.000  O
  H88      1.0000 0.47110  0.59050  0.17100  Biso   1.000  H
  C97      1.0000 0.65320  0.89600  0.55520  Biso   1.000  C
  C98      1.0000 0.67950  0.93450  0.65510  Biso   1.000  C
  C99      1.0000 0.46920  0.78000  0.38450  Biso   1.000  C
  C100     1.0000 0.39964  0.72056  0.39060  Biso   1.000  C
  C101     1.0000 0.38840  0.65610  0.39230  Biso   1.000  C
  H89      1.0000 0.42440  0.64850  0.39460  Biso   1.000  H
  C102     1.0000 0.57530  0.99210  0.45940  Biso   1.000  C
  H90      1.0000 0.54410  0.95300  0.49320  Biso   1.000  H
  C103     1.0000 0.61850  0.04920  0.52090  Biso   1.000  C
  H91      1.0000 0.61810  0.04670  0.59380  Biso   1.000  H
  C104     1.0000 0.66000  0.10700  0.47080  Biso   1.000  C
  H92      1.0000 0.68650  0.14530  0.51030  Biso   1.000  H
  C105     1.0000 0.66400  0.11090  0.36030  Biso   1.000  C
  C106     1.0000 0.62130  0.05120  0.30300  Biso   1.000  C
  C107     1.0000 0.70670  0.16900  0.30520  Biso   1.000  C
  H93      1.0000 0.73550  0.20810  0.34150  Biso   1.000  H
  C108     1.0000 0.72140  0.00460  0.65580  Biso   1.000  C
  H94      1.0000 0.73590  0.02790  0.59280  Biso   1.000  H
  Co9      1.0000 0.60854  0.84542  0.37854  Biso   1.000  Co
  N9       1.0000 0.57819  0.99277  0.35630  Biso   1.000  N
  H95      1.0000 0.60070  0.86860  0.19790  Biso   1.000  H
  O57      1.0000 0.66585  0.92730  0.47190  Biso   1.000  O
  O58      1.0000 0.62346  0.83743  0.55110  Biso   1.000  O
  O59      1.0000 0.51659  0.76678  0.38610  Biso   1.000  O
  O60      1.0000 0.47777  0.83646  0.37150  Biso   1.000  O
  O61      1.0000 0.80131  0.14299  0.66170  Biso   1.000  O
  O62      1.0000 0.45170  0.92680  0.22300  Biso   1.000  O
  H96      1.0000 0.43880  0.94030  0.27580  Biso   1.000  H
  H97      1.0000 0.41940  0.88950  0.20210  Biso   1.000  H
  H98      1.0000 0.60740  0.87430  0.19420  Biso   1.000  H
  O63      1.0000 0.42320  0.89680  0.23200  Biso   1.000  O
  H99      1.0000 0.40950  0.88060  0.17100  Biso   1.000  H
  C109     1.0000 0.89600  0.24280  0.05520  Biso   1.000  C
  C110     1.0000 0.93450  0.25500  0.15510  Biso   1.000  C
  C111     1.0000 0.78000  0.31080  0.88450  Biso   1.000  C
  C112     1.0000 0.72056  0.32092  0.89060  Biso   1.000  C
  C113     1.0000 0.65610  0.26770  0.89230  Biso   1.000  C
  H100     1.0000 0.64850  0.22410  0.89460  Biso   1.000  H
  C114     1.0000 0.99210  0.41680  0.95940  Biso   1.000  C
  H101     1.0000 0.95300  0.40890  0.99320  Biso   1.000  H
  C115     1.0000 0.04920  0.43070  0.02090  Biso   1.000  C
  H102     1.0000 0.04670  0.42860  0.09380  Biso   1.000  H
  C116     1.0000 0.10700  0.44700  0.97080  Biso   1.000  C
  H103     1.0000 0.14530  0.45880  0.01030  Biso   1.000  H
  C117     1.0000 0.11090  0.44690  0.86030  Biso   1.000  C
  C118     1.0000 0.05120  0.42990  0.80300  Biso   1.000  C
  C119     1.0000 0.16900  0.46230  0.80520  Biso   1.000  C
  H104     1.0000 0.20810  0.47260  0.84150  Biso   1.000  H
  C120     1.0000 0.00460  0.28320  0.15580  Biso   1.000  C
  H105     1.0000 0.02790  0.29200  0.09280  Biso   1.000  H
  Co10     1.0000 0.84542  0.23688  0.87854  Biso   1.000  Co
  N10      1.0000 0.99277  0.41458  0.85630  Biso   1.000  N
  H106     1.0000 0.86860  0.26790  0.69790  Biso   1.000  H
  O64      1.0000 0.92730  0.26145  0.97190  Biso   1.000  O
  O65      1.0000 0.83743  0.21397  0.05110  Biso   1.000  O
  O66      1.0000 0.76678  0.25019  0.88610  Biso   1.000  O
  O67      1.0000 0.83646  0.35869  0.87150  Biso   1.000  O
  O68      1.0000 0.14299  0.34168  0.16170  Biso   1.000  O
  O69      1.0000 0.92680  0.47510  0.72300  Biso   1.000  O
  H107     1.0000 0.94030  0.50150  0.77580  Biso   1.000  H
  H108     1.0000 0.88950  0.47010  0.70210  Biso   1.000  H
  H109     1.0000 0.87430  0.26690  0.69420  Biso   1.000  H
  O70      1.0000 0.89680  0.47360  0.73200  Biso   1.000  O
  H110     1.0000 0.88060  0.47110  0.67100  Biso   1.000  H
  C121     1.0000 0.75720  0.65320  0.05520  Biso   1.000  C
  C122     1.0000 0.74500  0.67950  0.15510  Biso   1.000  C
  C123     1.0000 0.68920  0.46920  0.88450  Biso   1.000  C
  C124     1.0000 0.67908  0.39964  0.89060  Biso   1.000  C
  C125     1.0000 0.73230  0.38840  0.89230  Biso   1.000  C
  H111     1.0000 0.77590  0.42440  0.89460  Biso   1.000  H
  C126     1.0000 0.58320  0.57530  0.95940  Biso   1.000  C
  H112     1.0000 0.59110  0.54410  0.99320  Biso   1.000  H
  C127     1.0000 0.56930  0.61850  0.02090  Biso   1.000  C
  H113     1.0000 0.57140  0.61810  0.09380  Biso   1.000  H
  C128     1.0000 0.55300  0.66000  0.97080  Biso   1.000  C
  H114     1.0000 0.54120  0.68650  0.01030  Biso   1.000  H
  C129     1.0000 0.55310  0.66400  0.86030  Biso   1.000  C
  C130     1.0000 0.57010  0.62130  0.80300  Biso   1.000  C
  C131     1.0000 0.53770  0.70670  0.80520  Biso   1.000  C
  H115     1.0000 0.52740  0.73550  0.84150  Biso   1.000  H
  C132     1.0000 0.71680  0.72140  0.15580  Biso   1.000  C
  H116     1.0000 0.70800  0.73590  0.09280  Biso   1.000  H
  Co11     1.0000 0.76312  0.60854  0.87854  Biso   1.000  Co
  N11      1.0000 0.58542  0.57819  0.85630  Biso   1.000  N
  H117     1.0000 0.73210  0.60070  0.69790  Biso   1.000  H
  O71      1.0000 0.73855  0.66585  0.97190  Biso   1.000  O
  O72      1.0000 0.78603  0.62346  0.05110  Biso   1.000  O
  O73      1.0000 0.74981  0.51659  0.88610  Biso   1.000  O
  O74      1.0000 0.64131  0.47777  0.87150  Biso   1.000  O
  O75      1.0000 0.65832  0.80131  0.16170  Biso   1.000  O
  O76      1.0000 0.52490  0.45170  0.72300  Biso   1.000  O
  H118     1.0000 0.49850  0.43880  0.77580  Biso   1.000  H
  H119     1.0000 0.52990  0.41940  0.70210  Biso   1.000  H
  H120     1.0000 0.73310  0.60740  0.69420  Biso   1.000  H
  O77      1.0000 0.52640  0.42320  0.73200  Biso   1.000  O
  H121     1.0000 0.52890  0.40950  0.67100  Biso   1.000  H
  C133     1.0000 0.34680  0.10400  0.05520  Biso   1.000  C
  C134     1.0000 0.32050  0.06550  0.15510  Biso   1.000  C
  C135     1.0000 0.53080  0.22000  0.88450  Biso   1.000  C
  C136     1.0000 0.60036  0.27944  0.89060  Biso   1.000  C
  C137     1.0000 0.61160  0.34390  0.89230  Biso   1.000  C
  H122     1.0000 0.57560  0.35150  0.89460  Biso   1.000  H
  C138     1.0000 0.42470  0.00790  0.95940  Biso   1.000  C
  H123     1.0000 0.45590  0.04700  0.99320  Biso   1.000  H
  C139     1.0000 0.38150  0.95080  0.02090  Biso   1.000  C
  H124     1.0000 0.38190  0.95330  0.09380  Biso   1.000  H
  C140     1.0000 0.34000  0.89300  0.97080  Biso   1.000  C
  H125     1.0000 0.31350  0.85470  0.01030  Biso   1.000  H
  C141     1.0000 0.33600  0.88910  0.86030  Biso   1.000  C
  C142     1.0000 0.37870  0.94880  0.80300  Biso   1.000  C
  C143     1.0000 0.29330  0.83100  0.80520  Biso   1.000  C
  H126     1.0000 0.26450  0.79190  0.84150  Biso   1.000  H
  C144     1.0000 0.27860  0.99540  0.15580  Biso   1.000  C
  H127     1.0000 0.26410  0.97210  0.09280  Biso   1.000  H
  Co12     1.0000 0.39146  0.15458  0.87854  Biso   1.000  Co
  N12      1.0000 0.42181  0.00723  0.85630  Biso   1.000  N
  H128     1.0000 0.39930  0.13140  0.69790  Biso   1.000  H
  O78      1.0000 0.33415  0.07270  0.97190  Biso   1.000  O
  O79      1.0000 0.37654  0.16257  0.05110  Biso   1.000  O
  O80      1.0000 0.48341  0.23322  0.88610  Biso   1.000  O
  O81      1.0000 0.52223  0.16354  0.87150  Biso   1.000  O
  O82      1.0000 0.19869  0.85701  0.16170  Biso   1.000  O
  O83      1.0000 0.54830  0.07320  0.72300  Biso   1.000  O
  H129     1.0000 0.56120  0.05970  0.77580  Biso   1.000  H
  H130     1.0000 0.58060  0.11050  0.70210  Biso   1.000  H
  H131     1.0000 0.39260  0.12570  0.69420  Biso   1.000  H
  O84      1.0000 0.57680  0.10320  0.73200  Biso   1.000  O
  H132     1.0000 0.59050  0.11940  0.67100  Biso   1.000  H
  C145     1.0000 0.89790  0.24000  0.25000  Biso   1.000  C
  H133     1.0000 0.85150  0.22090  0.25000  Biso   1.000  H
  C146     1.0000 0.11270  0.32870  0.25000  Biso   1.000  C
  C147     1.0000 0.03890  0.29780  0.25000  Biso   1.000  C
  C148     1.0000 0.76000  0.65790  0.25000  Biso   1.000  C
  H134     1.0000 0.77910  0.63060  0.25000  Biso   1.000  H
  C149     1.0000 0.67130  0.78400  0.25000  Biso   1.000  C
  C150     1.0000 0.70220  0.74110  0.25000  Biso   1.000  C
  C151     1.0000 0.34210  0.10210  0.25000  Biso   1.000  C
  H135     1.0000 0.36940  0.14850  0.25000  Biso   1.000  H
  C152     1.0000 0.21600  0.88730  0.25000  Biso   1.000  C
  C153     1.0000 0.25890  0.96110  0.25000  Biso   1.000  C
  C154     1.0000 0.10210  0.76000  0.75000  Biso   1.000  C
  H136     1.0000 0.14850  0.77910  0.75000  Biso   1.000  H
  C155     1.0000 0.88730  0.67130  0.75000  Biso   1.000  C
  C156     1.0000 0.96110  0.70220  0.75000  Biso   1.000  C
  C157     1.0000 0.24000  0.34210  0.75000  Biso   1.000  C
  H137     1.0000 0.22090  0.36940  0.75000  Biso   1.000  H
  C158     1.0000 0.32870  0.21600  0.75000  Biso   1.000  C
  C159     1.0000 0.29780  0.25890  0.75000  Biso   1.000  C
  C160     1.0000 0.65790  0.89790  0.75000  Biso   1.000  C
  H138     1.0000 0.63060  0.85150  0.75000  Biso   1.000  H
  C161     1.0000 0.78400  0.11270  0.75000  Biso   1.000  C
  C162     1.0000 0.74110  0.03890  0.75000  Biso   1.000  C
  Co13     1.0000 0.91106  0.38541  0.75000  Biso   1.000  Co
  O85      1.0000 0.89405  0.28770  0.75000  Biso   1.000  O
  H139     1.0000 0.92640  0.51460  0.75000  Biso   1.000  H
  Co14     1.0000 0.61459  0.52565  0.75000  Biso   1.000  Co
  O86      1.0000 0.71230  0.60635  0.75000  Biso   1.000  O
  H140     1.0000 0.48540  0.41180  0.75000  Biso   1.000  H
  Co15     1.0000 0.47435  0.08894  0.75000  Biso   1.000  Co
  O87      1.0000 0.39365  0.10595  0.75000  Biso   1.000  O
  H141     1.0000 0.58820  0.07360  0.75000  Biso   1.000  H
  Co16     1.0000 0.08894  0.61459  0.25000  Biso   1.000  Co
  O88      1.0000 0.10595  0.71230  0.25000  Biso   1.000  O
  H142     1.0000 0.07360  0.48540  0.25000  Biso   1.000  H
  Co17     1.0000 0.38541  0.47435  0.25000  Biso   1.000  Co
  O89      1.0000 0.28770  0.39365  0.25000  Biso   1.000  O
  H143     1.0000 0.51460  0.58820  0.25000  Biso   1.000  H
  Co18     1.0000 0.52565  0.91106  0.25000  Biso   1.000  Co
  O90      1.0000 0.60635  0.89405  0.25000  Biso   1.000  O
  H144     1.0000 0.41180  0.92640  0.25000  Biso   1.000  H
