data_image0
_cell_length_a       12.4035
_cell_length_b       14.7004
_cell_length_c       12.6916
_cell_angle_alpha    90
_cell_angle_beta     114.475
_cell_angle_gamma    90

_symmetry_space_group_name_H-M    "P 1"
_symmetry_int_tables_number       1

loop_
  _symmetry_equiv_pos_as_xyz
  'x, y, z'

loop_
  _atom_site_label
  _atom_site_occupancy
  _atom_site_fract_x
  _atom_site_fract_y
  _atom_site_fract_z
  _atom_site_thermal_displace_type
  _atom_site_B_iso_or_equiv
  _atom_site_type_symbol
  Mn1      1.0000 0.74606  0.63966  0.50020  Biso   1.000  Mn
  O1       1.0000 0.69176  0.67483  0.63304  Biso   1.000  O
  O2       1.0000 0.56148  0.59023  0.38927  Biso   1.000  O
  O3       1.0000 0.31393  0.86895  0.87099  Biso   1.000  O
  O4       1.0000 0.70806  0.99725  0.97387  Biso   1.000  O
  C1       1.0000 0.59671  0.67199  0.64544  Biso   1.000  C
  N1       1.0000 0.54338  0.56492  0.28119  Biso   1.000  N
  C2       1.0000 0.57361  0.74643  0.71453  Biso   1.000  C
  O5       1.0000 0.51718  0.61235  0.60548  Biso   1.000  O
  O6       1.0000 0.82309  0.94899  0.88794  Biso   1.000  O
  C3       1.0000 0.46764  0.61232  0.19036  Biso   1.000  C
  C4       1.0000 0.60286  0.49352  0.26615  Biso   1.000  C
  C5       1.0000 0.46658  0.74694  0.72578  Biso   1.000  C
  C6       1.0000 0.65782  0.81307  0.76929  Biso   1.000  C
  H1       1.0000 0.42730  0.66170  0.20240  Biso   1.000  H
  C7       1.0000 0.44930  0.58817  0.07945  Biso   1.000  C
  C8       1.0000 0.58713  0.46720  0.15657  Biso   1.000  C
  H2       1.0000 0.65510  0.46150  0.33020  Biso   1.000  H
  H3       1.0000 0.41060  0.70210  0.68940  Biso   1.000  H
  C9       1.0000 0.44230  0.81357  0.79073  Biso   1.000  C
  C10      1.0000 0.63549  0.87936  0.83659  Biso   1.000  C
  H4       1.0000 0.72900  0.81350  0.76110  Biso   1.000  H
  H5       1.0000 0.39660  0.62140  0.01710  Biso   1.000  H
  C11      1.0000 0.50937  0.51402  0.05965  Biso   1.000  C
  H6       1.0000 0.62890  0.41760  0.14730  Biso   1.000  H
  C12      1.0000 0.52709  0.88014  0.84544  Biso   1.000  C
  C13      1.0000 0.32911  0.80942  0.80759  Biso   1.000  C
  C14      1.0000 0.72995  0.94735  0.90375  Biso   1.000  C
  H7       1.0000 0.51130  0.92550  0.88820  Biso   1.000  H
  O7       1.0000 0.25912  0.74463  0.76013  Biso   1.000  O
  H8       1.0000 0.52000  0.64500  0.37700  Biso   1.000  H
  H9       1.0000 0.50380  0.64500  0.37700  Biso   1.000  H
  H10      1.0000 0.53380  0.64500  0.37700  Biso   1.000  H
  Mn2      1.0000 0.75394  0.13966  0.99980  Biso   1.000  Mn
  O8       1.0000 0.80824  0.17483  0.86696  Biso   1.000  O
  O9       1.0000 0.93852  0.09023  0.11073  Biso   1.000  O
  O10      1.0000 0.18607  0.36895  0.62901  Biso   1.000  O
  O11      1.0000 0.79194  0.49725  0.52613  Biso   1.000  O
  C15      1.0000 0.90329  0.17199  0.85456  Biso   1.000  C
  N2       1.0000 0.95662  0.06492  0.21881  Biso   1.000  N
  C16      1.0000 0.92639  0.24643  0.78547  Biso   1.000  C
  O12      1.0000 0.98282  0.11235  0.89452  Biso   1.000  O
  O13      1.0000 0.67691  0.44899  0.61206  Biso   1.000  O
  C17      1.0000 0.03236  0.11232  0.30964  Biso   1.000  C
  C18      1.0000 0.89714  0.99352  0.23385  Biso   1.000  C
  C19      1.0000 0.03342  0.24694  0.77422  Biso   1.000  C
  C20      1.0000 0.84218  0.31307  0.73071  Biso   1.000  C
  H11      1.0000 0.07270  0.16170  0.29760  Biso   1.000  H
  C21      1.0000 0.05070  0.08817  0.42055  Biso   1.000  C
  C22      1.0000 0.91287  0.96720  0.34343  Biso   1.000  C
  H12      1.0000 0.84490  0.96150  0.16980  Biso   1.000  H
  H13      1.0000 0.08940  0.20210  0.81060  Biso   1.000  H
  C23      1.0000 0.05770  0.31357  0.70927  Biso   1.000  C
  C24      1.0000 0.86451  0.37936  0.66341  Biso   1.000  C
  H14      1.0000 0.77100  0.31350  0.73890  Biso   1.000  H
  H15      1.0000 0.10340  0.12140  0.48290  Biso   1.000  H
  C25      1.0000 0.99063  0.01402  0.44035  Biso   1.000  C
  H16      1.0000 0.87110  0.91760  0.35270  Biso   1.000  H
  C26      1.0000 0.97291  0.38014  0.65456  Biso   1.000  C
  C27      1.0000 0.17089  0.30942  0.69241  Biso   1.000  C
  C28      1.0000 0.77005  0.44735  0.59625  Biso   1.000  C
  H17      1.0000 0.98870  0.42550  0.61180  Biso   1.000  H
  O14      1.0000 0.24088  0.24463  0.73987  Biso   1.000  O
  H18      1.0000 0.98000  0.14500  0.12300  Biso   1.000  H
  H19      1.0000 0.99620  0.14500  0.12300  Biso   1.000  H
  H20      1.0000 0.96620  0.14500  0.12300  Biso   1.000  H
  Mn3      1.0000 0.25394  0.36034  0.49980  Biso   1.000  Mn
  O15      1.0000 0.30824  0.32517  0.36696  Biso   1.000  O
  O16      1.0000 0.43852  0.40977  0.61073  Biso   1.000  O
  O17      1.0000 0.68607  0.13105  0.12901  Biso   1.000  O
  O18      1.0000 0.29194  0.00275  0.02613  Biso   1.000  O
  C29      1.0000 0.40329  0.32801  0.35456  Biso   1.000  C
  N3       1.0000 0.45662  0.43508  0.71881  Biso   1.000  N
  C30      1.0000 0.42639  0.25357  0.28547  Biso   1.000  C
  O19      1.0000 0.48282  0.38765  0.39452  Biso   1.000  O
  O20      1.0000 0.17691  0.05101  0.11206  Biso   1.000  O
  C31      1.0000 0.53236  0.38768  0.80964  Biso   1.000  C
  C32      1.0000 0.39714  0.50648  0.73385  Biso   1.000  C
  C33      1.0000 0.53342  0.25306  0.27422  Biso   1.000  C
  C34      1.0000 0.34218  0.18693  0.23071  Biso   1.000  C
  H21      1.0000 0.57270  0.33830  0.79760  Biso   1.000  H
  C35      1.0000 0.55070  0.41183  0.92055  Biso   1.000  C
  C36      1.0000 0.41287  0.53280  0.84343  Biso   1.000  C
  H22      1.0000 0.34490  0.53850  0.66980  Biso   1.000  H
  H23      1.0000 0.58940  0.29790  0.31060  Biso   1.000  H
  C37      1.0000 0.55770  0.18643  0.20927  Biso   1.000  C
  C38      1.0000 0.36451  0.12064  0.16341  Biso   1.000  C
  H24      1.0000 0.27100  0.18650  0.23890  Biso   1.000  H
  H25      1.0000 0.60340  0.37860  0.98290  Biso   1.000  H
  C39      1.0000 0.49063  0.48598  0.94035  Biso   1.000  C
  H26      1.0000 0.37110  0.58240  0.85270  Biso   1.000  H
  C40      1.0000 0.47291  0.11986  0.15456  Biso   1.000  C
  C41      1.0000 0.67089  0.19058  0.19241  Biso   1.000  C
  C42      1.0000 0.27005  0.05265  0.09625  Biso   1.000  C
  H27      1.0000 0.48870  0.07450  0.11180  Biso   1.000  H
  O21      1.0000 0.74088  0.25537  0.23987  Biso   1.000  O
  H28      1.0000 0.48000  0.35500  0.62300  Biso   1.000  H
  H29      1.0000 0.49620  0.35500  0.62300  Biso   1.000  H
  H30      1.0000 0.46620  0.35500  0.62300  Biso   1.000  H
  Mn4      1.0000 0.24606  0.86034  0.00020  Biso   1.000  Mn
  O22      1.0000 0.19176  0.82517  0.13304  Biso   1.000  O
  O23      1.0000 0.06148  0.90977  0.88927  Biso   1.000  O
  O24      1.0000 0.81393  0.63105  0.37099  Biso   1.000  O
  O25      1.0000 0.20806  0.50275  0.47387  Biso   1.000  O
  C43      1.0000 0.09671  0.82801  0.14544  Biso   1.000  C
  N4       1.0000 0.04338  0.93508  0.78119  Biso   1.000  N
  C44      1.0000 0.07361  0.75357  0.21453  Biso   1.000  C
  O26      1.0000 0.01718  0.88765  0.10548  Biso   1.000  O
  O27      1.0000 0.32309  0.55101  0.38794  Biso   1.000  O
  C45      1.0000 0.96764  0.88768  0.69036  Biso   1.000  C
  C46      1.0000 0.10286  0.00648  0.76615  Biso   1.000  C
  C47      1.0000 0.96658  0.75306  0.22578  Biso   1.000  C
  C48      1.0000 0.15782  0.68693  0.26929  Biso   1.000  C
  H31      1.0000 0.92730  0.83830  0.70240  Biso   1.000  H
  C49      1.0000 0.94930  0.91183  0.57945  Biso   1.000  C
  C50      1.0000 0.08713  0.03280  0.65657  Biso   1.000  C
  H32      1.0000 0.15510  0.03850  0.83020  Biso   1.000  H
  H33      1.0000 0.91060  0.79790  0.18940  Biso   1.000  H
  C51      1.0000 0.94230  0.68643  0.29073  Biso   1.000  C
  C52      1.0000 0.13549  0.62064  0.33659  Biso   1.000  C
  H34      1.0000 0.22900  0.68650  0.26110  Biso   1.000  H
  H35      1.0000 0.89660  0.87860  0.51710  Biso   1.000  H
  C53      1.0000 0.00937  0.98598  0.55965  Biso   1.000  C
  H36      1.0000 0.12890  0.08240  0.64730  Biso   1.000  H
  C54      1.0000 0.02709  0.61986  0.34544  Biso   1.000  C
  C55      1.0000 0.82911  0.69058  0.30759  Biso   1.000  C
  C56      1.0000 0.22995  0.55265  0.40375  Biso   1.000  C
  H37      1.0000 0.01130  0.57450  0.38820  Biso   1.000  H
  O28      1.0000 0.75912  0.75537  0.26013  Biso   1.000  O
  H38      1.0000 0.02000  0.85500  0.87700  Biso   1.000  H
  H39      1.0000 0.00380  0.85500  0.87700  Biso   1.000  H
  H40      1.0000 0.03380  0.85500  0.87700  Biso   1.000  H
  Mn5      1.0000 0.50000  0.50000  0.50000  Biso   1.000  Mn
  Mn6      1.0000 0.00000  0.00000  0.00000  Biso   1.000  Mn
