data_image0
_cell_length_a       28.286
_cell_length_b       9.8876
_cell_length_c       10.4994
_cell_angle_alpha    90
_cell_angle_beta     108.083
_cell_angle_gamma    90

_symmetry_space_group_name_H-M    "P 1"
_symmetry_int_tables_number       1

loop_
  _symmetry_equiv_pos_as_xyz
  'x, y, z'

loop_
  _atom_site_label
  _atom_site_occupancy
  _atom_site_fract_x
  _atom_site_fract_y
  _atom_site_fract_z
  _atom_site_thermal_displace_type
  _atom_site_B_iso_or_equiv
  _atom_site_type_symbol
  O1       1.0000 0.53150  0.64160  0.67990  Biso   1.000  O
  O2       1.0000 0.59808  0.74540  0.79620  Biso   1.000  O
  C1       1.0000 0.55420  0.74990  0.72400  Biso   1.000  C
  C2       1.0000 0.52690  0.87970  0.69540  Biso   1.000  C
  C3       1.0000 0.47500  0.88130  0.64310  Biso   1.000  C
  H1       1.0000 0.45800  0.79950  0.62540  Biso   1.000  H
  C4       1.0000 0.36960  0.10680  0.47970  Biso   1.000  C
  H2       1.0000 0.38820  0.17720  0.46080  Biso   1.000  H
  C5       1.0000 0.31650  0.10600  0.42220  Biso   1.000  C
  H3       1.0000 0.30020  0.17310  0.36310  Biso   1.000  H
  C6       1.0000 0.31180  0.90400  0.54880  Biso   1.000  C
  H4       1.0000 0.29280  0.83690  0.57190  Biso   1.000  H
  C7       1.0000 0.36490  0.89600  0.60410  Biso   1.000  C
  H5       1.0000 0.37990  0.82890  0.66570  Biso   1.000  H
  O3       1.0000 0.03150  0.14160  0.67990  Biso   1.000  O
  O4       1.0000 0.09808  0.24540  0.79620  Biso   1.000  O
  C8       1.0000 0.05420  0.24990  0.72400  Biso   1.000  C
  C9       1.0000 0.02690  0.37970  0.69540  Biso   1.000  C
  C10      1.0000 0.97500  0.38130  0.64310  Biso   1.000  C
  H6       1.0000 0.95800  0.29950  0.62540  Biso   1.000  H
  C11      1.0000 0.86960  0.60680  0.47970  Biso   1.000  C
  H7       1.0000 0.88820  0.67720  0.46080  Biso   1.000  H
  C12      1.0000 0.81650  0.60600  0.42220  Biso   1.000  C
  H8       1.0000 0.80020  0.67310  0.36310  Biso   1.000  H
  C13      1.0000 0.81180  0.40400  0.54880  Biso   1.000  C
  H9       1.0000 0.79280  0.33690  0.57190  Biso   1.000  H
  C14      1.0000 0.86490  0.39600  0.60410  Biso   1.000  C
  H10      1.0000 0.87990  0.32890  0.66570  Biso   1.000  H
  O5       1.0000 0.46850  0.64160  0.32010  Biso   1.000  O
  O6       1.0000 0.40192  0.74540  0.20380  Biso   1.000  O
  C15      1.0000 0.44580  0.74990  0.27600  Biso   1.000  C
  C16      1.0000 0.47310  0.87970  0.30460  Biso   1.000  C
  C17      1.0000 0.52500  0.88130  0.35690  Biso   1.000  C
  H11      1.0000 0.54200  0.79950  0.37460  Biso   1.000  H
  C18      1.0000 0.63040  0.10680  0.52030  Biso   1.000  C
  H12      1.0000 0.61180  0.17720  0.53920  Biso   1.000  H
  C19      1.0000 0.68350  0.10600  0.57780  Biso   1.000  C
  H13      1.0000 0.69980  0.17310  0.63690  Biso   1.000  H
  C20      1.0000 0.68820  0.90400  0.45120  Biso   1.000  C
  H14      1.0000 0.70720  0.83690  0.42810  Biso   1.000  H
  C21      1.0000 0.63510  0.89600  0.39590  Biso   1.000  C
  H15      1.0000 0.62010  0.82890  0.33430  Biso   1.000  H
  O7       1.0000 0.96850  0.14160  0.32010  Biso   1.000  O
  O8       1.0000 0.90192  0.24540  0.20380  Biso   1.000  O
  C22      1.0000 0.94580  0.24990  0.27600  Biso   1.000  C
  C23      1.0000 0.97310  0.37970  0.30460  Biso   1.000  C
  C24      1.0000 0.02500  0.38130  0.35690  Biso   1.000  C
  H16      1.0000 0.04200  0.29950  0.37460  Biso   1.000  H
  C25      1.0000 0.13040  0.60680  0.52030  Biso   1.000  C
  H17      1.0000 0.11180  0.67720  0.53920  Biso   1.000  H
  C26      1.0000 0.18350  0.60600  0.57780  Biso   1.000  C
  H18      1.0000 0.19980  0.67310  0.63690  Biso   1.000  H
  C27      1.0000 0.18820  0.40400  0.45120  Biso   1.000  C
  H19      1.0000 0.20720  0.33690  0.42810  Biso   1.000  H
  C28      1.0000 0.13510  0.39600  0.39590  Biso   1.000  C
  H20      1.0000 0.12010  0.32890  0.33430  Biso   1.000  H
  O9       1.0000 0.46850  0.35840  0.32010  Biso   1.000  O
  O10      1.0000 0.40192  0.25460  0.20380  Biso   1.000  O
  C29      1.0000 0.44580  0.25010  0.27600  Biso   1.000  C
  C30      1.0000 0.47310  0.12030  0.30460  Biso   1.000  C
  C31      1.0000 0.52500  0.11870  0.35690  Biso   1.000  C
  H21      1.0000 0.54200  0.20050  0.37460  Biso   1.000  H
  C32      1.0000 0.63040  0.89320  0.52030  Biso   1.000  C
  H22      1.0000 0.61180  0.82280  0.53920  Biso   1.000  H
  C33      1.0000 0.68350  0.89400  0.57780  Biso   1.000  C
  H23      1.0000 0.69980  0.82690  0.63690  Biso   1.000  H
  C34      1.0000 0.68820  0.09600  0.45120  Biso   1.000  C
  H24      1.0000 0.70720  0.16310  0.42810  Biso   1.000  H
  C35      1.0000 0.63510  0.10400  0.39590  Biso   1.000  C
  H25      1.0000 0.62010  0.17110  0.33430  Biso   1.000  H
  O11      1.0000 0.96850  0.85840  0.32010  Biso   1.000  O
  O12      1.0000 0.90192  0.75460  0.20380  Biso   1.000  O
  C36      1.0000 0.94580  0.75010  0.27600  Biso   1.000  C
  C37      1.0000 0.97310  0.62030  0.30460  Biso   1.000  C
  C38      1.0000 0.02500  0.61870  0.35690  Biso   1.000  C
  H26      1.0000 0.04200  0.70050  0.37460  Biso   1.000  H
  C39      1.0000 0.13040  0.39320  0.52030  Biso   1.000  C
  H27      1.0000 0.11180  0.32280  0.53920  Biso   1.000  H
  C40      1.0000 0.18350  0.39400  0.57780  Biso   1.000  C
  H28      1.0000 0.19980  0.32690  0.63690  Biso   1.000  H
  C41      1.0000 0.18820  0.59600  0.45120  Biso   1.000  C
  H29      1.0000 0.20720  0.66310  0.42810  Biso   1.000  H
  C42      1.0000 0.13510  0.60400  0.39590  Biso   1.000  C
  H30      1.0000 0.12010  0.67110  0.33430  Biso   1.000  H
  O13      1.0000 0.53150  0.35840  0.67990  Biso   1.000  O
  O14      1.0000 0.59808  0.25460  0.79620  Biso   1.000  O
  C43      1.0000 0.55420  0.25010  0.72400  Biso   1.000  C
  C44      1.0000 0.52690  0.12030  0.69540  Biso   1.000  C
  C45      1.0000 0.47500  0.11870  0.64310  Biso   1.000  C
  H31      1.0000 0.45800  0.20050  0.62540  Biso   1.000  H
  C46      1.0000 0.36960  0.89320  0.47970  Biso   1.000  C
  H32      1.0000 0.38820  0.82280  0.46080  Biso   1.000  H
  C47      1.0000 0.31650  0.89400  0.42220  Biso   1.000  C
  H33      1.0000 0.30020  0.82690  0.36310  Biso   1.000  H
  C48      1.0000 0.31180  0.09600  0.54880  Biso   1.000  C
  H34      1.0000 0.29280  0.16310  0.57190  Biso   1.000  H
  C49      1.0000 0.36490  0.10400  0.60410  Biso   1.000  C
  H35      1.0000 0.37990  0.17110  0.66570  Biso   1.000  H
  O15      1.0000 0.03150  0.85840  0.67990  Biso   1.000  O
  O16      1.0000 0.09808  0.75460  0.79620  Biso   1.000  O
  C50      1.0000 0.05420  0.75010  0.72400  Biso   1.000  C
  C51      1.0000 0.02690  0.62030  0.69540  Biso   1.000  C
  C52      1.0000 0.97500  0.61870  0.64310  Biso   1.000  C
  H36      1.0000 0.95800  0.70050  0.62540  Biso   1.000  H
  C53      1.0000 0.86960  0.39320  0.47970  Biso   1.000  C
  H37      1.0000 0.88820  0.32280  0.46080  Biso   1.000  H
  C54      1.0000 0.81650  0.39400  0.42220  Biso   1.000  C
  H38      1.0000 0.80020  0.32690  0.36310  Biso   1.000  H
  C55      1.0000 0.81180  0.59600  0.54880  Biso   1.000  C
  H39      1.0000 0.79280  0.66310  0.57190  Biso   1.000  H
  C56      1.0000 0.86490  0.60400  0.60410  Biso   1.000  C
  H40      1.0000 0.87990  0.67110  0.66570  Biso   1.000  H
  Cd1      1.0000 0.50000  0.50000  0.50000  Biso   1.000  Cd
  Cd2      1.0000 0.00000  0.00000  0.50000  Biso   1.000  Cd
  Cd3      1.0000 0.60066  0.50000  0.79285  Biso   1.000  Cd
  Cd4      1.0000 0.10066  0.00000  0.79285  Biso   1.000  Cd
  Cd5      1.0000 0.39934  0.50000  0.20715  Biso   1.000  Cd
  Cd6      1.0000 0.89934  0.00000  0.20715  Biso   1.000  Cd
  O17      1.0000 0.07270  0.00000  0.46200  Biso   1.000  O
  O18      1.0000 0.13960  0.00000  0.64150  Biso   1.000  O
  O19      1.0000 0.09150  0.00000  0.00790  Biso   1.000  O
  O20      1.0000 0.16790  0.00000  0.98910  Biso   1.000  O
  C57      1.0000 0.11850  0.00000  0.52020  Biso   1.000  C
  C58      1.0000 0.13780  0.00000  0.06050  Biso   1.000  C
  C59      1.0000 0.15140  0.00000  0.43000  Biso   1.000  C
  C60      1.0000 0.12860  0.00000  0.29060  Biso   1.000  C
  H41      1.0000 0.09420  0.00000  0.25330  Biso   1.000  H
  C61      1.0000 0.16070  0.00000  0.20810  Biso   1.000  C
  C62      1.0000 0.21280  0.00000  0.26550  Biso   1.000  C
  H42      1.0000 0.23310  0.00000  0.21080  Biso   1.000  H
  C63      1.0000 0.23370  0.00000  0.40350  Biso   1.000  C
  C64      1.0000 0.20320  0.00000  0.48990  Biso   1.000  C
  H43      1.0000 0.21730  0.00000  0.58250  Biso   1.000  H
  C65      1.0000 0.55160  0.00000  0.72410  Biso   1.000  C
  H44      1.0000 0.58590  0.00000  0.76400  Biso   1.000  H
  C66      1.0000 0.44830  0.00000  0.61700  Biso   1.000  C
  C67      1.0000 0.39360  0.00000  0.56190  Biso   1.000  C
  C68      1.0000 0.28990  0.00000  0.46390  Biso   1.000  C
  O21      1.0000 0.57270  0.50000  0.46200  Biso   1.000  O
  O22      1.0000 0.63960  0.50000  0.64150  Biso   1.000  O
  O23      1.0000 0.59150  0.50000  0.00790  Biso   1.000  O
  O24      1.0000 0.66790  0.50000  0.98910  Biso   1.000  O
  C69      1.0000 0.61850  0.50000  0.52020  Biso   1.000  C
  C70      1.0000 0.63780  0.50000  0.06050  Biso   1.000  C
  C71      1.0000 0.65140  0.50000  0.43000  Biso   1.000  C
  C72      1.0000 0.62860  0.50000  0.29060  Biso   1.000  C
  H45      1.0000 0.59420  0.50000  0.25330  Biso   1.000  H
  C73      1.0000 0.66070  0.50000  0.20810  Biso   1.000  C
  C74      1.0000 0.71280  0.50000  0.26550  Biso   1.000  C
  H46      1.0000 0.73310  0.50000  0.21080  Biso   1.000  H
  C75      1.0000 0.73370  0.50000  0.40350  Biso   1.000  C
  C76      1.0000 0.70320  0.50000  0.48990  Biso   1.000  C
  H47      1.0000 0.71730  0.50000  0.58250  Biso   1.000  H
  C77      1.0000 0.05160  0.50000  0.72410  Biso   1.000  C
  H48      1.0000 0.08590  0.50000  0.76400  Biso   1.000  H
  C78      1.0000 0.94830  0.50000  0.61700  Biso   1.000  C
  C79      1.0000 0.89360  0.50000  0.56190  Biso   1.000  C
  C80      1.0000 0.78990  0.50000  0.46390  Biso   1.000  C
  O25      1.0000 0.92730  0.00000  0.53800  Biso   1.000  O
  O26      1.0000 0.86040  0.00000  0.35850  Biso   1.000  O
  O27      1.0000 0.90850  0.00000  0.99210  Biso   1.000  O
  O28      1.0000 0.83210  0.00000  0.01090  Biso   1.000  O
  C81      1.0000 0.88150  0.00000  0.47980  Biso   1.000  C
  C82      1.0000 0.86220  0.00000  0.93950  Biso   1.000  C
  C83      1.0000 0.84860  0.00000  0.57000  Biso   1.000  C
  C84      1.0000 0.87140  0.00000  0.70940  Biso   1.000  C
  H49      1.0000 0.90580  0.00000  0.74670  Biso   1.000  H
  C85      1.0000 0.83930  0.00000  0.79190  Biso   1.000  C
  C86      1.0000 0.78720  0.00000  0.73450  Biso   1.000  C
  H50      1.0000 0.76690  0.00000  0.78920  Biso   1.000  H
  C87      1.0000 0.76630  0.00000  0.59650  Biso   1.000  C
  C88      1.0000 0.79680  0.00000  0.51010  Biso   1.000  C
  H51      1.0000 0.78270  0.00000  0.41750  Biso   1.000  H
  C89      1.0000 0.44840  0.00000  0.27590  Biso   1.000  C
  H52      1.0000 0.41410  0.00000  0.23600  Biso   1.000  H
  C90      1.0000 0.55170  0.00000  0.38300  Biso   1.000  C
  C91      1.0000 0.60640  0.00000  0.43810  Biso   1.000  C
  C92      1.0000 0.71010  0.00000  0.53610  Biso   1.000  C
  O29      1.0000 0.42730  0.50000  0.53800  Biso   1.000  O
  O30      1.0000 0.36040  0.50000  0.35850  Biso   1.000  O
  O31      1.0000 0.40850  0.50000  0.99210  Biso   1.000  O
  O32      1.0000 0.33210  0.50000  0.01090  Biso   1.000  O
  C93      1.0000 0.38150  0.50000  0.47980  Biso   1.000  C
  C94      1.0000 0.36220  0.50000  0.93950  Biso   1.000  C
  C95      1.0000 0.34860  0.50000  0.57000  Biso   1.000  C
  C96      1.0000 0.37140  0.50000  0.70940  Biso   1.000  C
  H53      1.0000 0.40580  0.50000  0.74670  Biso   1.000  H
  C97      1.0000 0.33930  0.50000  0.79190  Biso   1.000  C
  C98      1.0000 0.28720  0.50000  0.73450  Biso   1.000  C
  H54      1.0000 0.26690  0.50000  0.78920  Biso   1.000  H
  C99      1.0000 0.26630  0.50000  0.59650  Biso   1.000  C
  C100     1.0000 0.29680  0.50000  0.51010  Biso   1.000  C
  H55      1.0000 0.28270  0.50000  0.41750  Biso   1.000  H
  C101     1.0000 0.94840  0.50000  0.27590  Biso   1.000  C
  H56      1.0000 0.91410  0.50000  0.23600  Biso   1.000  H
  C102     1.0000 0.05170  0.50000  0.38300  Biso   1.000  C
  C103     1.0000 0.10640  0.50000  0.43810  Biso   1.000  C
  C104     1.0000 0.21010  0.50000  0.53610  Biso   1.000  C
