data_image0
_cell_length_a       17.437
_cell_length_b       10.02
_cell_length_c       17.902
_cell_angle_alpha    90
_cell_angle_beta     117.903
_cell_angle_gamma    90

_symmetry_space_group_name_H-M    "P 1"
_symmetry_int_tables_number       1

loop_
  _symmetry_equiv_pos_as_xyz
  'x, y, z'

loop_
  _atom_site_label
  _atom_site_occupancy
  _atom_site_fract_x
  _atom_site_fract_y
  _atom_site_fract_z
  _atom_site_thermal_displace_type
  _atom_site_B_iso_or_equiv
  _atom_site_type_symbol
  Zn1      1.0000 0.87593  0.85985  0.80651  Biso   1.000  Zn
  Zn2      1.0000 0.65217  0.34939  0.67922  Biso   1.000  Zn
  O1       1.0000 0.76160  0.27830  0.64480  Biso   1.000  O
  N1       1.0000 0.95620  0.83180  0.93190  Biso   1.000  N
  N2       1.0000 0.55940  0.30330  0.56020  Biso   1.000  N
  N3       1.0000 0.53540  0.17290  0.53560  Biso   1.000  N
  N4       1.0000 0.97490  0.69990  0.96060  Biso   1.000  N
  N5       1.0000 0.71430  0.52740  0.69700  Biso   1.000  N
  N6       1.0000 0.75960  0.70770  0.66300  Biso   1.000  N
  N7       1.0000 0.70890  0.60230  0.63160  Biso   1.000  N
  N8       1.0000 0.80120  0.69920  0.74940  Biso   1.000  N
  N9       1.0000 0.05890  0.90750  0.71900  Biso   1.000  N
  N10      1.0000 0.95890  0.90550  0.76140  Biso   1.000  N
  N11      1.0000 0.79450  0.00670  0.79470  Biso   1.000  N
  N12      1.0000 0.71100  0.19400  0.75700  Biso   1.000  N
  N13      1.0000 0.06940  0.01490  0.76860  Biso   1.000  N
  N14      1.0000 0.01200  0.01480  0.79430  Biso   1.000  N
  C1       1.0000 0.77180  0.58530  0.76650  Biso   1.000  C
  C2       1.0000 0.75690  0.93120  0.90990  Biso   1.000  C
  H1       1.0000 0.79100  0.85470  0.92510  Biso   1.000  H
  C3       1.0000 0.79780  0.53150  0.85310  Biso   1.000  C
  H2       1.0000 0.83920  0.59060  0.89460  Biso   1.000  H
  H3       1.0000 0.82340  0.44480  0.85860  Biso   1.000  H
  H4       1.0000 0.74750  0.52470  0.86160  Biso   1.000  H
  C4       1.0000 0.65800  0.08150  0.92820  Biso   1.000  C
  H5       1.0000 0.62670  0.10250  0.95680  Biso   1.000  H
  C5       1.0000 0.70800  0.96370  0.94940  Biso   1.000  C
  H6       1.0000 0.70790  0.90710  0.99050  Biso   1.000  H
  C6       1.0000 0.98980  0.84330  0.71550  Biso   1.000  C
  C7       1.0000 0.76560  0.11390  0.74360  Biso   1.000  C
  C8       1.0000 0.75440  0.01630  0.84600  Biso   1.000  C
  C9       1.0000 0.79040  0.14480  0.67480  Biso   1.000  C
  H7       1.0000 0.85380  0.14160  0.69930  Biso   1.000  H
  C10      1.0000 0.70340  0.13310  0.82370  Biso   1.000  C
  C11      1.0000 0.65450  0.16680  0.86560  Biso   1.000  C
  H8       1.0000 0.62100  0.24400  0.85160  Biso   1.000  H
  C12      1.0000 0.75120  0.04580  0.60140  Biso   1.000  C
  H9       1.0000 0.76930  0.06850  0.55990  Biso   1.000  H
  H10      1.0000 0.68900  0.04940  0.57610  Biso   1.000  H
  H11      1.0000 0.77050  0.95720  0.62200  Biso   1.000  H
  C13      1.0000 0.95120  0.71530  0.66700  Biso   1.000  C
  H12      1.0000 0.90180  0.69010  0.67390  Biso   1.000  H
  H13      1.0000 0.99390  0.64560  0.68840  Biso   1.000  H
  H14      1.0000 0.93360  0.72920  0.60820  Biso   1.000  H
  H15      1.0000 0.54920  0.56070  0.55000  Biso   1.000  H
  H16      1.0000 0.44760  0.56070  0.49900  Biso   1.000  H
  H17      1.0000 0.50320  0.56070  0.45100  Biso   1.000  H
  H18      1.0000 0.96370  0.08970  0.94370  Biso   1.000  H
  H19      1.0000 0.05810  0.08970  0.01930  Biso   1.000  H
  H20      1.0000 0.97820  0.08970  0.03700  Biso   1.000  H
  Zn3      1.0000 0.37593  0.35985  0.80651  Biso   1.000  Zn
  Zn4      1.0000 0.15217  0.84939  0.67922  Biso   1.000  Zn
  O2       1.0000 0.26160  0.77830  0.64480  Biso   1.000  O
  N15      1.0000 0.45620  0.33180  0.93190  Biso   1.000  N
  N16      1.0000 0.05940  0.80330  0.56020  Biso   1.000  N
  N17      1.0000 0.03540  0.67290  0.53560  Biso   1.000  N
  N18      1.0000 0.47490  0.19990  0.96060  Biso   1.000  N
  N19      1.0000 0.21430  0.02740  0.69700  Biso   1.000  N
  N20      1.0000 0.25960  0.20770  0.66300  Biso   1.000  N
  N21      1.0000 0.20890  0.10230  0.63160  Biso   1.000  N
  N22      1.0000 0.30120  0.19920  0.74940  Biso   1.000  N
  N23      1.0000 0.55890  0.40750  0.71900  Biso   1.000  N
  N24      1.0000 0.45890  0.40550  0.76140  Biso   1.000  N
  N25      1.0000 0.29450  0.50670  0.79470  Biso   1.000  N
  N26      1.0000 0.21100  0.69400  0.75700  Biso   1.000  N
  N27      1.0000 0.56940  0.51490  0.76860  Biso   1.000  N
  N28      1.0000 0.51200  0.51480  0.79430  Biso   1.000  N
  C14      1.0000 0.27180  0.08530  0.76650  Biso   1.000  C
  C15      1.0000 0.25690  0.43120  0.90990  Biso   1.000  C
  H21      1.0000 0.29100  0.35470  0.92510  Biso   1.000  H
  C16      1.0000 0.29780  0.03150  0.85310  Biso   1.000  C
  H22      1.0000 0.33920  0.09060  0.89460  Biso   1.000  H
  H23      1.0000 0.32340  0.94480  0.85860  Biso   1.000  H
  H24      1.0000 0.24750  0.02470  0.86160  Biso   1.000  H
  C17      1.0000 0.15800  0.58150  0.92820  Biso   1.000  C
  H25      1.0000 0.12670  0.60250  0.95680  Biso   1.000  H
  C18      1.0000 0.20800  0.46370  0.94940  Biso   1.000  C
  H26      1.0000 0.20790  0.40710  0.99050  Biso   1.000  H
  C19      1.0000 0.48980  0.34330  0.71550  Biso   1.000  C
  C20      1.0000 0.26560  0.61390  0.74360  Biso   1.000  C
  C21      1.0000 0.25440  0.51630  0.84600  Biso   1.000  C
  C22      1.0000 0.29040  0.64480  0.67480  Biso   1.000  C
  H27      1.0000 0.35380  0.64160  0.69930  Biso   1.000  H
  C23      1.0000 0.20340  0.63310  0.82370  Biso   1.000  C
  C24      1.0000 0.15450  0.66680  0.86560  Biso   1.000  C
  H28      1.0000 0.12100  0.74400  0.85160  Biso   1.000  H
  C25      1.0000 0.25120  0.54580  0.60140  Biso   1.000  C
  H29      1.0000 0.26930  0.56850  0.55990  Biso   1.000  H
  H30      1.0000 0.18900  0.54940  0.57610  Biso   1.000  H
  H31      1.0000 0.27050  0.45720  0.62200  Biso   1.000  H
  C26      1.0000 0.45120  0.21530  0.66700  Biso   1.000  C
  H32      1.0000 0.40180  0.19010  0.67390  Biso   1.000  H
  H33      1.0000 0.49390  0.14560  0.68840  Biso   1.000  H
  H34      1.0000 0.43360  0.22920  0.60820  Biso   1.000  H
  H35      1.0000 0.04920  0.06070  0.55000  Biso   1.000  H
  H36      1.0000 0.94760  0.06070  0.49900  Biso   1.000  H
  H37      1.0000 0.00320  0.06070  0.45100  Biso   1.000  H
  H38      1.0000 0.46370  0.58970  0.94370  Biso   1.000  H
  H39      1.0000 0.55810  0.58970  0.01930  Biso   1.000  H
  H40      1.0000 0.47820  0.58970  0.03700  Biso   1.000  H
  Zn5      1.0000 0.12407  0.85985  0.19349  Biso   1.000  Zn
  Zn6      1.0000 0.34783  0.34939  0.32078  Biso   1.000  Zn
  O3       1.0000 0.23840  0.27830  0.35520  Biso   1.000  O
  N29      1.0000 0.04380  0.83180  0.06810  Biso   1.000  N
  N30      1.0000 0.44060  0.30330  0.43980  Biso   1.000  N
  N31      1.0000 0.46460  0.17290  0.46440  Biso   1.000  N
  N32      1.0000 0.02510  0.69990  0.03940  Biso   1.000  N
  N33      1.0000 0.28570  0.52740  0.30300  Biso   1.000  N
  N34      1.0000 0.24040  0.70770  0.33700  Biso   1.000  N
  N35      1.0000 0.29110  0.60230  0.36840  Biso   1.000  N
  N36      1.0000 0.19880  0.69920  0.25060  Biso   1.000  N
  N37      1.0000 0.94110  0.90750  0.28100  Biso   1.000  N
  N38      1.0000 0.04110  0.90550  0.23860  Biso   1.000  N
  N39      1.0000 0.20550  0.00670  0.20530  Biso   1.000  N
  N40      1.0000 0.28900  0.19400  0.24300  Biso   1.000  N
  N41      1.0000 0.93060  0.01490  0.23140  Biso   1.000  N
  N42      1.0000 0.98800  0.01480  0.20570  Biso   1.000  N
  C27      1.0000 0.22820  0.58530  0.23350  Biso   1.000  C
  C28      1.0000 0.24310  0.93120  0.09010  Biso   1.000  C
  H41      1.0000 0.20900  0.85470  0.07490  Biso   1.000  H
  C29      1.0000 0.20220  0.53150  0.14690  Biso   1.000  C
  H42      1.0000 0.16080  0.59060  0.10540  Biso   1.000  H
  H43      1.0000 0.17660  0.44480  0.14140  Biso   1.000  H
  H44      1.0000 0.25250  0.52470  0.13840  Biso   1.000  H
  C30      1.0000 0.34200  0.08150  0.07180  Biso   1.000  C
  H45      1.0000 0.37330  0.10250  0.04320  Biso   1.000  H
  C31      1.0000 0.29200  0.96370  0.05060  Biso   1.000  C
  H46      1.0000 0.29210  0.90710  0.00950  Biso   1.000  H
  C32      1.0000 0.01020  0.84330  0.28450  Biso   1.000  C
  C33      1.0000 0.23440  0.11390  0.25640  Biso   1.000  C
  C34      1.0000 0.24560  0.01630  0.15400  Biso   1.000  C
  C35      1.0000 0.20960  0.14480  0.32520  Biso   1.000  C
  H47      1.0000 0.14620  0.14160  0.30070  Biso   1.000  H
  C36      1.0000 0.29660  0.13310  0.17630  Biso   1.000  C
  C37      1.0000 0.34550  0.16680  0.13440  Biso   1.000  C
  H48      1.0000 0.37900  0.24400  0.14840  Biso   1.000  H
  C38      1.0000 0.24880  0.04580  0.39860  Biso   1.000  C
  H49      1.0000 0.23070  0.06850  0.44010  Biso   1.000  H
  H50      1.0000 0.31100  0.04940  0.42390  Biso   1.000  H
  H51      1.0000 0.22950  0.95720  0.37800  Biso   1.000  H
  C39      1.0000 0.04880  0.71530  0.33300  Biso   1.000  C
  H52      1.0000 0.09820  0.69010  0.32610  Biso   1.000  H
  H53      1.0000 0.00610  0.64560  0.31160  Biso   1.000  H
  H54      1.0000 0.06640  0.72920  0.39180  Biso   1.000  H
  H55      1.0000 0.45080  0.56070  0.45000  Biso   1.000  H
  H56      1.0000 0.55240  0.56070  0.50100  Biso   1.000  H
  H57      1.0000 0.49680  0.56070  0.54900  Biso   1.000  H
  H58      1.0000 0.03630  0.08970  0.05630  Biso   1.000  H
  H59      1.0000 0.94190  0.08970  0.98070  Biso   1.000  H
  H60      1.0000 0.02180  0.08970  0.96300  Biso   1.000  H
  Zn7      1.0000 0.62407  0.35985  0.19349  Biso   1.000  Zn
  Zn8      1.0000 0.84783  0.84939  0.32078  Biso   1.000  Zn
  O4       1.0000 0.73840  0.77830  0.35520  Biso   1.000  O
  N43      1.0000 0.54380  0.33180  0.06810  Biso   1.000  N
  N44      1.0000 0.94060  0.80330  0.43980  Biso   1.000  N
  N45      1.0000 0.96460  0.67290  0.46440  Biso   1.000  N
  N46      1.0000 0.52510  0.19990  0.03940  Biso   1.000  N
  N47      1.0000 0.78570  0.02740  0.30300  Biso   1.000  N
  N48      1.0000 0.74040  0.20770  0.33700  Biso   1.000  N
  N49      1.0000 0.79110  0.10230  0.36840  Biso   1.000  N
  N50      1.0000 0.69880  0.19920  0.25060  Biso   1.000  N
  N51      1.0000 0.44110  0.40750  0.28100  Biso   1.000  N
  N52      1.0000 0.54110  0.40550  0.23860  Biso   1.000  N
  N53      1.0000 0.70550  0.50670  0.20530  Biso   1.000  N
  N54      1.0000 0.78900  0.69400  0.24300  Biso   1.000  N
  N55      1.0000 0.43060  0.51490  0.23140  Biso   1.000  N
  N56      1.0000 0.48800  0.51480  0.20570  Biso   1.000  N
  C40      1.0000 0.72820  0.08530  0.23350  Biso   1.000  C
  C41      1.0000 0.74310  0.43120  0.09010  Biso   1.000  C
  H61      1.0000 0.70900  0.35470  0.07490  Biso   1.000  H
  C42      1.0000 0.70220  0.03150  0.14690  Biso   1.000  C
  H62      1.0000 0.66080  0.09060  0.10540  Biso   1.000  H
  H63      1.0000 0.67660  0.94480  0.14140  Biso   1.000  H
  H64      1.0000 0.75250  0.02470  0.13840  Biso   1.000  H
  C43      1.0000 0.84200  0.58150  0.07180  Biso   1.000  C
  H65      1.0000 0.87330  0.60250  0.04320  Biso   1.000  H
  C44      1.0000 0.79200  0.46370  0.05060  Biso   1.000  C
  H66      1.0000 0.79210  0.40710  0.00950  Biso   1.000  H
  C45      1.0000 0.51020  0.34330  0.28450  Biso   1.000  C
  C46      1.0000 0.73440  0.61390  0.25640  Biso   1.000  C
  C47      1.0000 0.74560  0.51630  0.15400  Biso   1.000  C
  C48      1.0000 0.70960  0.64480  0.32520  Biso   1.000  C
  H67      1.0000 0.64620  0.64160  0.30070  Biso   1.000  H
  C49      1.0000 0.79660  0.63310  0.17630  Biso   1.000  C
  C50      1.0000 0.84550  0.66680  0.13440  Biso   1.000  C
  H68      1.0000 0.87900  0.74400  0.14840  Biso   1.000  H
  C51      1.0000 0.74880  0.54580  0.39860  Biso   1.000  C
  H69      1.0000 0.73070  0.56850  0.44010  Biso   1.000  H
  H70      1.0000 0.81100  0.54940  0.42390  Biso   1.000  H
  H71      1.0000 0.72950  0.45720  0.37800  Biso   1.000  H
  C52      1.0000 0.54880  0.21530  0.33300  Biso   1.000  C
  H72      1.0000 0.59820  0.19010  0.32610  Biso   1.000  H
  H73      1.0000 0.50610  0.14560  0.31160  Biso   1.000  H
  H74      1.0000 0.56640  0.22920  0.39180  Biso   1.000  H
  H75      1.0000 0.95080  0.06070  0.45000  Biso   1.000  H
  H76      1.0000 0.05240  0.06070  0.50100  Biso   1.000  H
  H77      1.0000 0.99680  0.06070  0.54900  Biso   1.000  H
  H78      1.0000 0.53630  0.58970  0.05630  Biso   1.000  H
  H79      1.0000 0.44190  0.58970  0.98070  Biso   1.000  H
  H80      1.0000 0.52180  0.58970  0.96300  Biso   1.000  H
  C53      1.0000 0.50000  0.37860  0.50000  Biso   1.000  C
  C54      1.0000 0.50000  0.52870  0.50000  Biso   1.000  C
  C55      1.0000 0.00000  0.87860  0.50000  Biso   1.000  C
  C56      1.0000 0.00000  0.02870  0.50000  Biso   1.000  C
  C57      1.0000 0.00000  0.90560  0.00000  Biso   1.000  C
  C58      1.0000 0.00000  0.05780  0.00000  Biso   1.000  C
  C59      1.0000 0.50000  0.40560  0.00000  Biso   1.000  C
  C60      1.0000 0.50000  0.55780  0.00000  Biso   1.000  C
