data_image0
_cell_length_a       12.6261
_cell_length_b       12.6261
_cell_length_c       29.234
_cell_angle_alpha    90
_cell_angle_beta     90
_cell_angle_gamma    90

_symmetry_space_group_name_H-M    "P 1"
_symmetry_int_tables_number       1

loop_
  _symmetry_equiv_pos_as_xyz
  'x, y, z'

loop_
  _atom_site_label
  _atom_site_occupancy
  _atom_site_fract_x
  _atom_site_fract_y
  _atom_site_fract_z
  _atom_site_thermal_displace_type
  _atom_site_B_iso_or_equiv
  _atom_site_type_symbol
  O1       1.0000 0.51270  0.88070  0.31660  Biso   1.000  O
  O2       1.0000 0.37170  0.90360  0.27580  Biso   1.000  O
  C1       1.0000 0.36730  0.76780  0.33200  Biso   1.000  C
  C2       1.0000 0.42330  0.85570  0.30700  Biso   1.000  C
  C3       1.0000 0.40600  0.72550  0.37180  Biso   1.000  C
  H1       1.0000 0.46710  0.75620  0.38540  Biso   1.000  H
  O3       1.0000 0.48320  0.64130  0.45060  Biso   1.000  O
  O4       1.0000 0.81330  0.58000  0.51820  Biso   1.000  O
  O5       1.0000 0.48730  0.11930  0.31660  Biso   1.000  O
  O6       1.0000 0.62830  0.09640  0.27580  Biso   1.000  O
  C4       1.0000 0.63270  0.23220  0.33200  Biso   1.000  C
  C5       1.0000 0.57670  0.14430  0.30700  Biso   1.000  C
  C6       1.0000 0.59400  0.27450  0.37180  Biso   1.000  C
  H2       1.0000 0.53290  0.24380  0.38540  Biso   1.000  H
  O7       1.0000 0.51680  0.35870  0.45060  Biso   1.000  O
  O8       1.0000 0.18670  0.42000  0.51820  Biso   1.000  O
  O9       1.0000 0.11930  0.51270  0.81660  Biso   1.000  O
  O10      1.0000 0.09640  0.37170  0.77580  Biso   1.000  O
  C7       1.0000 0.23220  0.36730  0.83200  Biso   1.000  C
  C8       1.0000 0.14430  0.42330  0.80700  Biso   1.000  C
  C9       1.0000 0.27450  0.40600  0.87180  Biso   1.000  C
  H3       1.0000 0.24380  0.46710  0.88540  Biso   1.000  H
  O11      1.0000 0.35870  0.48320  0.95060  Biso   1.000  O
  O12      1.0000 0.42000  0.81330  0.01820  Biso   1.000  O
  O13      1.0000 0.88070  0.48730  0.81660  Biso   1.000  O
  O14      1.0000 0.90360  0.62830  0.77580  Biso   1.000  O
  C10      1.0000 0.76780  0.63270  0.83200  Biso   1.000  C
  C11      1.0000 0.85570  0.57670  0.80700  Biso   1.000  C
  C12      1.0000 0.72550  0.59400  0.87180  Biso   1.000  C
  H4       1.0000 0.75620  0.53290  0.88540  Biso   1.000  H
  O15      1.0000 0.64130  0.51680  0.95060  Biso   1.000  O
  O16      1.0000 0.58000  0.18670  0.01820  Biso   1.000  O
  O17      1.0000 0.48730  0.88070  0.18340  Biso   1.000  O
  O18      1.0000 0.62830  0.90360  0.22420  Biso   1.000  O
  C13      1.0000 0.63270  0.76780  0.16800  Biso   1.000  C
  C14      1.0000 0.57670  0.85570  0.19300  Biso   1.000  C
  C15      1.0000 0.59400  0.72550  0.12820  Biso   1.000  C
  H5       1.0000 0.53290  0.75620  0.11460  Biso   1.000  H
  O19      1.0000 0.51680  0.64130  0.04940  Biso   1.000  O
  O20      1.0000 0.18670  0.58000  0.98180  Biso   1.000  O
  O21      1.0000 0.51270  0.11930  0.18340  Biso   1.000  O
  O22      1.0000 0.37170  0.09640  0.22420  Biso   1.000  O
  C16      1.0000 0.36730  0.23220  0.16800  Biso   1.000  C
  C17      1.0000 0.42330  0.14430  0.19300  Biso   1.000  C
  C18      1.0000 0.40600  0.27450  0.12820  Biso   1.000  C
  H6       1.0000 0.46710  0.24380  0.11460  Biso   1.000  H
  O23      1.0000 0.48320  0.35870  0.04940  Biso   1.000  O
  O24      1.0000 0.81330  0.42000  0.98180  Biso   1.000  O
  O25      1.0000 0.88070  0.51270  0.68340  Biso   1.000  O
  O26      1.0000 0.90360  0.37170  0.72420  Biso   1.000  O
  C19      1.0000 0.76780  0.36730  0.66800  Biso   1.000  C
  C20      1.0000 0.85570  0.42330  0.69300  Biso   1.000  C
  C21      1.0000 0.72550  0.40600  0.62820  Biso   1.000  C
  H7       1.0000 0.75620  0.46710  0.61460  Biso   1.000  H
  O27      1.0000 0.64130  0.48320  0.54940  Biso   1.000  O
  O28      1.0000 0.58000  0.81330  0.48180  Biso   1.000  O
  O29      1.0000 0.11930  0.48730  0.68340  Biso   1.000  O
  O30      1.0000 0.09640  0.62830  0.72420  Biso   1.000  O
  C22      1.0000 0.23220  0.63270  0.66800  Biso   1.000  C
  C23      1.0000 0.14430  0.57670  0.69300  Biso   1.000  C
  C24      1.0000 0.27450  0.59400  0.62820  Biso   1.000  C
  H8       1.0000 0.24380  0.53290  0.61460  Biso   1.000  H
  O31      1.0000 0.35870  0.51680  0.54940  Biso   1.000  O
  O32      1.0000 0.42000  0.18670  0.48180  Biso   1.000  O
  O33      1.0000 0.48730  0.11930  0.68340  Biso   1.000  O
  O34      1.0000 0.62830  0.09640  0.72420  Biso   1.000  O
  C25      1.0000 0.63270  0.23220  0.66800  Biso   1.000  C
  C26      1.0000 0.57670  0.14430  0.69300  Biso   1.000  C
  C27      1.0000 0.59400  0.27450  0.62820  Biso   1.000  C
  H9       1.0000 0.53290  0.24380  0.61460  Biso   1.000  H
  O35      1.0000 0.51680  0.35870  0.54940  Biso   1.000  O
  O36      1.0000 0.18670  0.42000  0.48180  Biso   1.000  O
  O37      1.0000 0.51270  0.88070  0.68340  Biso   1.000  O
  O38      1.0000 0.37170  0.90360  0.72420  Biso   1.000  O
  C28      1.0000 0.36730  0.76780  0.66800  Biso   1.000  C
  C29      1.0000 0.42330  0.85570  0.69300  Biso   1.000  C
  C30      1.0000 0.40600  0.72550  0.62820  Biso   1.000  C
  H10      1.0000 0.46710  0.75620  0.61460  Biso   1.000  H
  O39      1.0000 0.48320  0.64130  0.54940  Biso   1.000  O
  O40      1.0000 0.81330  0.58000  0.48180  Biso   1.000  O
  O41      1.0000 0.88070  0.48730  0.18340  Biso   1.000  O
  O42      1.0000 0.90360  0.62830  0.22420  Biso   1.000  O
  C31      1.0000 0.76780  0.63270  0.16800  Biso   1.000  C
  C32      1.0000 0.85570  0.57670  0.19300  Biso   1.000  C
  C33      1.0000 0.72550  0.59400  0.12820  Biso   1.000  C
  H11      1.0000 0.75620  0.53290  0.11460  Biso   1.000  H
  O43      1.0000 0.64130  0.51680  0.04940  Biso   1.000  O
  O44      1.0000 0.58000  0.18670  0.98180  Biso   1.000  O
  O45      1.0000 0.11930  0.51270  0.18340  Biso   1.000  O
  O46      1.0000 0.09640  0.37170  0.22420  Biso   1.000  O
  C34      1.0000 0.23220  0.36730  0.16800  Biso   1.000  C
  C35      1.0000 0.14430  0.42330  0.19300  Biso   1.000  C
  C36      1.0000 0.27450  0.40600  0.12820  Biso   1.000  C
  H12      1.0000 0.24380  0.46710  0.11460  Biso   1.000  H
  O47      1.0000 0.35870  0.48320  0.04940  Biso   1.000  O
  O48      1.0000 0.42000  0.81330  0.98180  Biso   1.000  O
  O49      1.0000 0.51270  0.11930  0.81660  Biso   1.000  O
  O50      1.0000 0.37170  0.09640  0.77580  Biso   1.000  O
  C37      1.0000 0.36730  0.23220  0.83200  Biso   1.000  C
  C38      1.0000 0.42330  0.14430  0.80700  Biso   1.000  C
  C39      1.0000 0.40600  0.27450  0.87180  Biso   1.000  C
  H13      1.0000 0.46710  0.24380  0.88540  Biso   1.000  H
  O51      1.0000 0.48320  0.35870  0.95060  Biso   1.000  O
  O52      1.0000 0.81330  0.42000  0.01820  Biso   1.000  O
  O53      1.0000 0.48730  0.88070  0.81660  Biso   1.000  O
  O54      1.0000 0.62830  0.90360  0.77580  Biso   1.000  O
  C40      1.0000 0.63270  0.76780  0.83200  Biso   1.000  C
  C41      1.0000 0.57670  0.85570  0.80700  Biso   1.000  C
  C42      1.0000 0.59400  0.72550  0.87180  Biso   1.000  C
  H14      1.0000 0.53290  0.75620  0.88540  Biso   1.000  H
  O55      1.0000 0.51680  0.64130  0.95060  Biso   1.000  O
  O56      1.0000 0.18670  0.58000  0.01820  Biso   1.000  O
  O57      1.0000 0.11930  0.48730  0.31660  Biso   1.000  O
  O58      1.0000 0.09640  0.62830  0.27580  Biso   1.000  O
  C43      1.0000 0.23220  0.63270  0.33200  Biso   1.000  C
  C44      1.0000 0.14430  0.57670  0.30700  Biso   1.000  C
  C45      1.0000 0.27450  0.59400  0.37180  Biso   1.000  C
  H15      1.0000 0.24380  0.53290  0.38540  Biso   1.000  H
  O59      1.0000 0.35870  0.51680  0.45060  Biso   1.000  O
  O60      1.0000 0.42000  0.18670  0.51820  Biso   1.000  O
  O61      1.0000 0.88070  0.51270  0.31660  Biso   1.000  O
  O62      1.0000 0.90360  0.37170  0.27580  Biso   1.000  O
  C46      1.0000 0.76780  0.36730  0.33200  Biso   1.000  C
  C47      1.0000 0.85570  0.42330  0.30700  Biso   1.000  C
  C48      1.0000 0.72550  0.40600  0.37180  Biso   1.000  C
  H16      1.0000 0.75620  0.46710  0.38540  Biso   1.000  H
  O63      1.0000 0.64130  0.48320  0.45060  Biso   1.000  O
  O64      1.0000 0.58000  0.81330  0.51820  Biso   1.000  O
  Eu1      1.0000 0.62749  0.62749  0.50000  Biso   1.000  Eu
  Eu2      1.0000 0.37251  0.37251  0.50000  Biso   1.000  Eu
  Eu3      1.0000 0.37251  0.62749  0.00000  Biso   1.000  Eu
  Eu4      1.0000 0.62749  0.37251  0.00000  Biso   1.000  Eu
  In1      1.0000 0.50000  0.00000  0.25000  Biso   1.000  In
  In2      1.0000 0.00000  0.50000  0.75000  Biso   1.000  In
  In3      1.0000 0.50000  0.00000  0.75000  Biso   1.000  In
  In4      1.0000 0.00000  0.50000  0.25000  Biso   1.000  In
  C49      1.0000 0.35920  0.64080  0.39250  Biso   1.000  C
  C50      1.0000 0.27870  0.72130  0.31180  Biso   1.000  C
  H17      1.0000 0.25020  0.74980  0.28440  Biso   1.000  H
  C51      1.0000 0.40440  0.59560  0.43440  Biso   1.000  C
  C52      1.0000 0.64080  0.35920  0.39250  Biso   1.000  C
  C53      1.0000 0.72130  0.27870  0.31180  Biso   1.000  C
  H18      1.0000 0.74980  0.25020  0.28440  Biso   1.000  H
  C54      1.0000 0.59560  0.40440  0.43440  Biso   1.000  C
  C55      1.0000 0.35920  0.35920  0.89250  Biso   1.000  C
  C56      1.0000 0.27870  0.27870  0.81180  Biso   1.000  C
  H19      1.0000 0.25020  0.25020  0.78440  Biso   1.000  H
  C57      1.0000 0.40440  0.40440  0.93440  Biso   1.000  C
  C58      1.0000 0.64080  0.64080  0.89250  Biso   1.000  C
  C59      1.0000 0.72130  0.72130  0.81180  Biso   1.000  C
  H20      1.0000 0.74980  0.74980  0.78440  Biso   1.000  H
  C60      1.0000 0.59560  0.59560  0.93440  Biso   1.000  C
  C61      1.0000 0.64080  0.64080  0.10750  Biso   1.000  C
  C62      1.0000 0.72130  0.72130  0.18820  Biso   1.000  C
  H21      1.0000 0.74980  0.74980  0.21560  Biso   1.000  H
  C63      1.0000 0.59560  0.59560  0.06560  Biso   1.000  C
  C64      1.0000 0.35920  0.35920  0.10750  Biso   1.000  C
  C65      1.0000 0.27870  0.27870  0.18820  Biso   1.000  C
  H22      1.0000 0.25020  0.25020  0.21560  Biso   1.000  H
  C66      1.0000 0.40440  0.40440  0.06560  Biso   1.000  C
  C67      1.0000 0.64080  0.35920  0.60750  Biso   1.000  C
  C68      1.0000 0.72130  0.27870  0.68820  Biso   1.000  C
  H23      1.0000 0.74980  0.25020  0.71560  Biso   1.000  H
  C69      1.0000 0.59560  0.40440  0.56560  Biso   1.000  C
  C70      1.0000 0.35920  0.64080  0.60750  Biso   1.000  C
  C71      1.0000 0.27870  0.72130  0.68820  Biso   1.000  C
  H24      1.0000 0.25020  0.74980  0.71560  Biso   1.000  H
  C72      1.0000 0.40440  0.59560  0.56560  Biso   1.000  C
