data_image0
_cell_length_a       30.418
_cell_length_b       16.302
_cell_length_c       21.78
_cell_angle_alpha    90
_cell_angle_beta     133.83
_cell_angle_gamma    90

_symmetry_space_group_name_H-M    "P 1"
_symmetry_int_tables_number       1

loop_
  _symmetry_equiv_pos_as_xyz
  'x, y, z'

loop_
  _atom_site_label
  _atom_site_occupancy
  _atom_site_fract_x
  _atom_site_fract_y
  _atom_site_fract_z
  _atom_site_thermal_displace_type
  _atom_site_B_iso_or_equiv
  _atom_site_type_symbol
  C1       1.0000 0.31110  0.93280  0.88240  Biso   1.000  C
  C2       1.0000 0.28190  0.86170  0.87030  Biso   1.000  C
  H1       1.0000 0.27240  0.82200  0.83190  Biso   1.000  H
  C3       1.0000 0.26730  0.85120  0.91750  Biso   1.000  C
  H2       1.0000 0.24850  0.80310  0.91230  Biso   1.000  H
  C4       1.0000 0.28080  0.91300  0.97300  Biso   1.000  C
  H3       1.0000 0.26900  0.90870  0.00240  Biso   1.000  H
  C5       1.0000 0.31220  0.98040  0.98240  Biso   1.000  C
  C6       1.0000 0.33020  0.95450  0.83710  Biso   1.000  C
  C7       1.0000 0.33630  0.05050  0.04530  Biso   1.000  C
  C8       1.0000 0.06850  0.24200  0.63070  Biso   1.000  C
  C9       1.0000 0.04750  0.17680  0.57450  Biso   1.000  C
  H4       1.0000 0.00750  0.17380  0.52200  Biso   1.000  H
  C10      1.0000 0.09080  0.11590  0.60210  Biso   1.000  C
  H5       1.0000 0.07970  0.07270  0.56580  Biso   1.000  H
  C11      1.0000 0.14960  0.11880  0.68210  Biso   1.000  C
  H6       1.0000 0.17700  0.07620  0.70150  Biso   1.000  H
  C12      1.0000 0.16640  0.18670  0.73230  Biso   1.000  C
  C13      1.0000 0.02970  0.31500  0.60630  Biso   1.000  C
  C14      1.0000 0.23230  0.20110  0.81860  Biso   1.000  C
  N1       1.0000 0.32610  0.99210  0.93620  Biso   1.000  N
  N2       1.0000 0.12660  0.24600  0.70800  Biso   1.000  N
  O1       1.0000 0.04870  0.37250  0.65940  Biso   1.000  O
  O2       1.0000 0.44220  0.87800  0.85870  Biso   1.000  O
  O3       1.0000 0.23960  0.26690  0.85380  Biso   1.000  O
  O4       1.0000 0.36070  0.10820  0.04390  Biso   1.000  O
  O5       1.0000 0.35740  0.02010  0.85350  Biso   1.000  O
  O6       1.0000 0.27180  0.14950  0.84310  Biso   1.000  O
  O7       1.0000 0.97370  0.30970  0.54480  Biso   1.000  O
  O8       1.0000 0.32490  0.04610  0.09060  Biso   1.000  O
  O9       1.0000 0.31690  0.90240  0.78220  Biso   1.000  O
  O10      1.0000 0.17140  0.27680  0.89490  Biso   1.000  O
  O11      1.0000 0.37100  0.21600  0.14600  Biso   1.000  O
  Eu1      1.0000 0.37898  0.11961  0.95473  Biso   1.000  Eu
  Eu2      1.0000 0.15985  0.37126  0.80110  Biso   1.000  Eu
  C15      1.0000 0.81110  0.43280  0.88240  Biso   1.000  C
  C16      1.0000 0.78190  0.36170  0.87030  Biso   1.000  C
  H7       1.0000 0.77240  0.32200  0.83190  Biso   1.000  H
  C17      1.0000 0.76730  0.35120  0.91750  Biso   1.000  C
  H8       1.0000 0.74850  0.30310  0.91230  Biso   1.000  H
  C18      1.0000 0.78080  0.41300  0.97300  Biso   1.000  C
  H9       1.0000 0.76900  0.40870  0.00240  Biso   1.000  H
  C19      1.0000 0.81220  0.48040  0.98240  Biso   1.000  C
  C20      1.0000 0.83020  0.45450  0.83710  Biso   1.000  C
  C21      1.0000 0.83630  0.55050  0.04530  Biso   1.000  C
  C22      1.0000 0.56850  0.74200  0.63070  Biso   1.000  C
  C23      1.0000 0.54750  0.67680  0.57450  Biso   1.000  C
  H10      1.0000 0.50750  0.67380  0.52200  Biso   1.000  H
  C24      1.0000 0.59080  0.61590  0.60210  Biso   1.000  C
  H11      1.0000 0.57970  0.57270  0.56580  Biso   1.000  H
  C25      1.0000 0.64960  0.61880  0.68210  Biso   1.000  C
  H12      1.0000 0.67700  0.57620  0.70150  Biso   1.000  H
  C26      1.0000 0.66640  0.68670  0.73230  Biso   1.000  C
  C27      1.0000 0.52970  0.81500  0.60630  Biso   1.000  C
  C28      1.0000 0.73230  0.70110  0.81860  Biso   1.000  C
  N3       1.0000 0.82610  0.49210  0.93620  Biso   1.000  N
  N4       1.0000 0.62660  0.74600  0.70800  Biso   1.000  N
  O12      1.0000 0.54870  0.87250  0.65940  Biso   1.000  O
  O13      1.0000 0.94220  0.37800  0.85870  Biso   1.000  O
  O14      1.0000 0.73960  0.76690  0.85380  Biso   1.000  O
  O15      1.0000 0.86070  0.60820  0.04390  Biso   1.000  O
  O16      1.0000 0.85740  0.52010  0.85350  Biso   1.000  O
  O17      1.0000 0.77180  0.64950  0.84310  Biso   1.000  O
  O18      1.0000 0.47370  0.80970  0.54480  Biso   1.000  O
  O19      1.0000 0.82490  0.54610  0.09060  Biso   1.000  O
  O20      1.0000 0.81690  0.40240  0.78220  Biso   1.000  O
  O21      1.0000 0.67140  0.77680  0.89490  Biso   1.000  O
  O22      1.0000 0.87100  0.71600  0.14600  Biso   1.000  O
  Eu3      1.0000 0.87898  0.61961  0.95473  Biso   1.000  Eu
  Eu4      1.0000 0.65985  0.87126  0.80110  Biso   1.000  Eu
  C29      1.0000 0.68890  0.93280  0.61760  Biso   1.000  C
  C30      1.0000 0.71810  0.86170  0.62970  Biso   1.000  C
  H13      1.0000 0.72760  0.82200  0.66810  Biso   1.000  H
  C31      1.0000 0.73270  0.85120  0.58250  Biso   1.000  C
  H14      1.0000 0.75150  0.80310  0.58770  Biso   1.000  H
  C32      1.0000 0.71920  0.91300  0.52700  Biso   1.000  C
  H15      1.0000 0.73100  0.90870  0.49760  Biso   1.000  H
  C33      1.0000 0.68780  0.98040  0.51760  Biso   1.000  C
  C34      1.0000 0.66980  0.95450  0.66290  Biso   1.000  C
  C35      1.0000 0.66370  0.05050  0.45470  Biso   1.000  C
  C36      1.0000 0.93150  0.24200  0.86930  Biso   1.000  C
  C37      1.0000 0.95250  0.17680  0.92550  Biso   1.000  C
  H16      1.0000 0.99250  0.17380  0.97800  Biso   1.000  H
  C38      1.0000 0.90920  0.11590  0.89790  Biso   1.000  C
  H17      1.0000 0.92030  0.07270  0.93420  Biso   1.000  H
  C39      1.0000 0.85040  0.11880  0.81790  Biso   1.000  C
  H18      1.0000 0.82300  0.07620  0.79850  Biso   1.000  H
  C40      1.0000 0.83360  0.18670  0.76770  Biso   1.000  C
  C41      1.0000 0.97030  0.31500  0.89370  Biso   1.000  C
  C42      1.0000 0.76770  0.20110  0.68140  Biso   1.000  C
  N5       1.0000 0.67390  0.99210  0.56380  Biso   1.000  N
  N6       1.0000 0.87340  0.24600  0.79200  Biso   1.000  N
  O23      1.0000 0.95130  0.37250  0.84060  Biso   1.000  O
  O24      1.0000 0.55780  0.87800  0.64130  Biso   1.000  O
  O25      1.0000 0.76040  0.26690  0.64620  Biso   1.000  O
  O26      1.0000 0.63930  0.10820  0.45610  Biso   1.000  O
  O27      1.0000 0.64260  0.02010  0.64650  Biso   1.000  O
  O28      1.0000 0.72820  0.14950  0.65690  Biso   1.000  O
  O29      1.0000 0.02630  0.30970  0.95520  Biso   1.000  O
  O30      1.0000 0.67510  0.04610  0.40940  Biso   1.000  O
  O31      1.0000 0.68310  0.90240  0.71780  Biso   1.000  O
  O32      1.0000 0.82860  0.27680  0.60510  Biso   1.000  O
  O33      1.0000 0.62900  0.21600  0.35400  Biso   1.000  O
  Eu5      1.0000 0.62102  0.11961  0.54527  Biso   1.000  Eu
  Eu6      1.0000 0.84015  0.37126  0.69890  Biso   1.000  Eu
  C43      1.0000 0.18890  0.43280  0.61760  Biso   1.000  C
  C44      1.0000 0.21810  0.36170  0.62970  Biso   1.000  C
  H19      1.0000 0.22760  0.32200  0.66810  Biso   1.000  H
  C45      1.0000 0.23270  0.35120  0.58250  Biso   1.000  C
  H20      1.0000 0.25150  0.30310  0.58770  Biso   1.000  H
  C46      1.0000 0.21920  0.41300  0.52700  Biso   1.000  C
  H21      1.0000 0.23100  0.40870  0.49760  Biso   1.000  H
  C47      1.0000 0.18780  0.48040  0.51760  Biso   1.000  C
  C48      1.0000 0.16980  0.45450  0.66290  Biso   1.000  C
  C49      1.0000 0.16370  0.55050  0.45470  Biso   1.000  C
  C50      1.0000 0.43150  0.74200  0.86930  Biso   1.000  C
  C51      1.0000 0.45250  0.67680  0.92550  Biso   1.000  C
  H22      1.0000 0.49250  0.67380  0.97800  Biso   1.000  H
  C52      1.0000 0.40920  0.61590  0.89790  Biso   1.000  C
  H23      1.0000 0.42030  0.57270  0.93420  Biso   1.000  H
  C53      1.0000 0.35040  0.61880  0.81790  Biso   1.000  C
  H24      1.0000 0.32300  0.57620  0.79850  Biso   1.000  H
  C54      1.0000 0.33360  0.68670  0.76770  Biso   1.000  C
  C55      1.0000 0.47030  0.81500  0.89370  Biso   1.000  C
  C56      1.0000 0.26770  0.70110  0.68140  Biso   1.000  C
  N7       1.0000 0.17390  0.49210  0.56380  Biso   1.000  N
  N8       1.0000 0.37340  0.74600  0.79200  Biso   1.000  N
  O34      1.0000 0.45130  0.87250  0.84060  Biso   1.000  O
  O35      1.0000 0.05780  0.37800  0.64130  Biso   1.000  O
  O36      1.0000 0.26040  0.76690  0.64620  Biso   1.000  O
  O37      1.0000 0.13930  0.60820  0.45610  Biso   1.000  O
  O38      1.0000 0.14260  0.52010  0.64650  Biso   1.000  O
  O39      1.0000 0.22820  0.64950  0.65690  Biso   1.000  O
  O40      1.0000 0.52630  0.80970  0.95520  Biso   1.000  O
  O41      1.0000 0.17510  0.54610  0.40940  Biso   1.000  O
  O42      1.0000 0.18310  0.40240  0.71780  Biso   1.000  O
  O43      1.0000 0.32860  0.77680  0.60510  Biso   1.000  O
  O44      1.0000 0.12900  0.71600  0.35400  Biso   1.000  O
  Eu7      1.0000 0.12102  0.61961  0.54527  Biso   1.000  Eu
  Eu8      1.0000 0.34015  0.87126  0.69890  Biso   1.000  Eu
  C57      1.0000 0.68890  0.06720  0.11760  Biso   1.000  C
  C58      1.0000 0.71810  0.13830  0.12970  Biso   1.000  C
  H25      1.0000 0.72760  0.17800  0.16810  Biso   1.000  H
  C59      1.0000 0.73270  0.14880  0.08250  Biso   1.000  C
  H26      1.0000 0.75150  0.19690  0.08770  Biso   1.000  H
  C60      1.0000 0.71920  0.08700  0.02700  Biso   1.000  C
  H27      1.0000 0.73100  0.09130  0.99760  Biso   1.000  H
  C61      1.0000 0.68780  0.01960  0.01760  Biso   1.000  C
  C62      1.0000 0.66980  0.04550  0.16290  Biso   1.000  C
  C63      1.0000 0.66370  0.94950  0.95470  Biso   1.000  C
  C64      1.0000 0.93150  0.75800  0.36930  Biso   1.000  C
  C65      1.0000 0.95250  0.82320  0.42550  Biso   1.000  C
  H28      1.0000 0.99250  0.82620  0.47800  Biso   1.000  H
  C66      1.0000 0.90920  0.88410  0.39790  Biso   1.000  C
  H29      1.0000 0.92030  0.92730  0.43420  Biso   1.000  H
  C67      1.0000 0.85040  0.88120  0.31790  Biso   1.000  C
  H30      1.0000 0.82300  0.92380  0.29850  Biso   1.000  H
  C68      1.0000 0.83360  0.81330  0.26770  Biso   1.000  C
  C69      1.0000 0.97030  0.68500  0.39370  Biso   1.000  C
  C70      1.0000 0.76770  0.79890  0.18140  Biso   1.000  C
  N9       1.0000 0.67390  0.00790  0.06380  Biso   1.000  N
  N10      1.0000 0.87340  0.75400  0.29200  Biso   1.000  N
  O45      1.0000 0.95130  0.62750  0.34060  Biso   1.000  O
  O46      1.0000 0.55780  0.12200  0.14130  Biso   1.000  O
  O47      1.0000 0.76040  0.73310  0.14620  Biso   1.000  O
  O48      1.0000 0.63930  0.89180  0.95610  Biso   1.000  O
  O49      1.0000 0.64260  0.97990  0.14650  Biso   1.000  O
  O50      1.0000 0.72820  0.85050  0.15690  Biso   1.000  O
  O51      1.0000 0.02630  0.69030  0.45520  Biso   1.000  O
  O52      1.0000 0.67510  0.95390  0.90940  Biso   1.000  O
  O53      1.0000 0.68310  0.09760  0.21780  Biso   1.000  O
  O54      1.0000 0.82860  0.72320  0.10510  Biso   1.000  O
  O55      1.0000 0.62900  0.78400  0.85400  Biso   1.000  O
  Eu9      1.0000 0.62102  0.88039  0.04527  Biso   1.000  Eu
  Eu10     1.0000 0.84015  0.62874  0.19890  Biso   1.000  Eu
  C71      1.0000 0.18890  0.56720  0.11760  Biso   1.000  C
  C72      1.0000 0.21810  0.63830  0.12970  Biso   1.000  C
  H31      1.0000 0.22760  0.67800  0.16810  Biso   1.000  H
  C73      1.0000 0.23270  0.64880  0.08250  Biso   1.000  C
  H32      1.0000 0.25150  0.69690  0.08770  Biso   1.000  H
  C74      1.0000 0.21920  0.58700  0.02700  Biso   1.000  C
  H33      1.0000 0.23100  0.59130  0.99760  Biso   1.000  H
  C75      1.0000 0.18780  0.51960  0.01760  Biso   1.000  C
  C76      1.0000 0.16980  0.54550  0.16290  Biso   1.000  C
  C77      1.0000 0.16370  0.44950  0.95470  Biso   1.000  C
  C78      1.0000 0.43150  0.25800  0.36930  Biso   1.000  C
  C79      1.0000 0.45250  0.32320  0.42550  Biso   1.000  C
  H34      1.0000 0.49250  0.32620  0.47800  Biso   1.000  H
  C80      1.0000 0.40920  0.38410  0.39790  Biso   1.000  C
  H35      1.0000 0.42030  0.42730  0.43420  Biso   1.000  H
  C81      1.0000 0.35040  0.38120  0.31790  Biso   1.000  C
  H36      1.0000 0.32300  0.42380  0.29850  Biso   1.000  H
  C82      1.0000 0.33360  0.31330  0.26770  Biso   1.000  C
  C83      1.0000 0.47030  0.18500  0.39370  Biso   1.000  C
  C84      1.0000 0.26770  0.29890  0.18140  Biso   1.000  C
  N11      1.0000 0.17390  0.50790  0.06380  Biso   1.000  N
  N12      1.0000 0.37340  0.25400  0.29200  Biso   1.000  N
  O56      1.0000 0.45130  0.12750  0.34060  Biso   1.000  O
  O57      1.0000 0.05780  0.62200  0.14130  Biso   1.000  O
  O58      1.0000 0.26040  0.23310  0.14620  Biso   1.000  O
  O59      1.0000 0.13930  0.39180  0.95610  Biso   1.000  O
  O60      1.0000 0.14260  0.47990  0.14650  Biso   1.000  O
  O61      1.0000 0.22820  0.35050  0.15690  Biso   1.000  O
  O62      1.0000 0.52630  0.19030  0.45520  Biso   1.000  O
  O63      1.0000 0.17510  0.45390  0.90940  Biso   1.000  O
  O64      1.0000 0.18310  0.59760  0.21780  Biso   1.000  O
  O65      1.0000 0.32860  0.22320  0.10510  Biso   1.000  O
  O66      1.0000 0.12900  0.28400  0.85400  Biso   1.000  O
  Eu11     1.0000 0.12102  0.38039  0.04527  Biso   1.000  Eu
  Eu12     1.0000 0.34015  0.12874  0.19890  Biso   1.000  Eu
  C85      1.0000 0.31110  0.06720  0.38240  Biso   1.000  C
  C86      1.0000 0.28190  0.13830  0.37030  Biso   1.000  C
  H37      1.0000 0.27240  0.17800  0.33190  Biso   1.000  H
  C87      1.0000 0.26730  0.14880  0.41750  Biso   1.000  C
  H38      1.0000 0.24850  0.19690  0.41230  Biso   1.000  H
  C88      1.0000 0.28080  0.08700  0.47300  Biso   1.000  C
  H39      1.0000 0.26900  0.09130  0.50240  Biso   1.000  H
  C89      1.0000 0.31220  0.01960  0.48240  Biso   1.000  C
  C90      1.0000 0.33020  0.04550  0.33710  Biso   1.000  C
  C91      1.0000 0.33630  0.94950  0.54530  Biso   1.000  C
  C92      1.0000 0.06850  0.75800  0.13070  Biso   1.000  C
  C93      1.0000 0.04750  0.82320  0.07450  Biso   1.000  C
  H40      1.0000 0.00750  0.82620  0.02200  Biso   1.000  H
  C94      1.0000 0.09080  0.88410  0.10210  Biso   1.000  C
  H41      1.0000 0.07970  0.92730  0.06580  Biso   1.000  H
  C95      1.0000 0.14960  0.88120  0.18210  Biso   1.000  C
  H42      1.0000 0.17700  0.92380  0.20150  Biso   1.000  H
  C96      1.0000 0.16640  0.81330  0.23230  Biso   1.000  C
  C97      1.0000 0.02970  0.68500  0.10630  Biso   1.000  C
  C98      1.0000 0.23230  0.79890  0.31860  Biso   1.000  C
  N13      1.0000 0.32610  0.00790  0.43620  Biso   1.000  N
  N14      1.0000 0.12660  0.75400  0.20800  Biso   1.000  N
  O67      1.0000 0.04870  0.62750  0.15940  Biso   1.000  O
  O68      1.0000 0.44220  0.12200  0.35870  Biso   1.000  O
  O69      1.0000 0.23960  0.73310  0.35380  Biso   1.000  O
  O70      1.0000 0.36070  0.89180  0.54390  Biso   1.000  O
  O71      1.0000 0.35740  0.97990  0.35350  Biso   1.000  O
  O72      1.0000 0.27180  0.85050  0.34310  Biso   1.000  O
  O73      1.0000 0.97370  0.69030  0.04480  Biso   1.000  O
  O74      1.0000 0.32490  0.95390  0.59060  Biso   1.000  O
  O75      1.0000 0.31690  0.09760  0.28220  Biso   1.000  O
  O76      1.0000 0.17140  0.72320  0.39490  Biso   1.000  O
  O77      1.0000 0.37100  0.78400  0.64600  Biso   1.000  O
  Eu13     1.0000 0.37898  0.88039  0.45473  Biso   1.000  Eu
  Eu14     1.0000 0.15985  0.62874  0.30110  Biso   1.000  Eu
  C99      1.0000 0.81110  0.56720  0.38240  Biso   1.000  C
  C100     1.0000 0.78190  0.63830  0.37030  Biso   1.000  C
  H43      1.0000 0.77240  0.67800  0.33190  Biso   1.000  H
  C101     1.0000 0.76730  0.64880  0.41750  Biso   1.000  C
  H44      1.0000 0.74850  0.69690  0.41230  Biso   1.000  H
  C102     1.0000 0.78080  0.58700  0.47300  Biso   1.000  C
  H45      1.0000 0.76900  0.59130  0.50240  Biso   1.000  H
  C103     1.0000 0.81220  0.51960  0.48240  Biso   1.000  C
  C104     1.0000 0.83020  0.54550  0.33710  Biso   1.000  C
  C105     1.0000 0.83630  0.44950  0.54530  Biso   1.000  C
  C106     1.0000 0.56850  0.25800  0.13070  Biso   1.000  C
  C107     1.0000 0.54750  0.32320  0.07450  Biso   1.000  C
  H46      1.0000 0.50750  0.32620  0.02200  Biso   1.000  H
  C108     1.0000 0.59080  0.38410  0.10210  Biso   1.000  C
  H47      1.0000 0.57970  0.42730  0.06580  Biso   1.000  H
  C109     1.0000 0.64960  0.38120  0.18210  Biso   1.000  C
  H48      1.0000 0.67700  0.42380  0.20150  Biso   1.000  H
  C110     1.0000 0.66640  0.31330  0.23230  Biso   1.000  C
  C111     1.0000 0.52970  0.18500  0.10630  Biso   1.000  C
  C112     1.0000 0.73230  0.29890  0.31860  Biso   1.000  C
  N15      1.0000 0.82610  0.50790  0.43620  Biso   1.000  N
  N16      1.0000 0.62660  0.25400  0.20800  Biso   1.000  N
  O78      1.0000 0.54870  0.12750  0.15940  Biso   1.000  O
  O79      1.0000 0.94220  0.62200  0.35870  Biso   1.000  O
  O80      1.0000 0.73960  0.23310  0.35380  Biso   1.000  O
  O81      1.0000 0.86070  0.39180  0.54390  Biso   1.000  O
  O82      1.0000 0.85740  0.47990  0.35350  Biso   1.000  O
  O83      1.0000 0.77180  0.35050  0.34310  Biso   1.000  O
  O84      1.0000 0.47370  0.19030  0.04480  Biso   1.000  O
  O85      1.0000 0.82490  0.45390  0.59060  Biso   1.000  O
  O86      1.0000 0.81690  0.59760  0.28220  Biso   1.000  O
  O87      1.0000 0.67140  0.22320  0.39490  Biso   1.000  O
  O88      1.0000 0.87100  0.28400  0.64600  Biso   1.000  O
  Eu15     1.0000 0.87898  0.38039  0.45473  Biso   1.000  Eu
  Eu16     1.0000 0.65985  0.12874  0.30110  Biso   1.000  Eu
