data_image0
_cell_length_a       14.348
_cell_length_b       14.475
_cell_length_c       14.983
_cell_angle_alpha    90
_cell_angle_beta     90
_cell_angle_gamma    90

_symmetry_space_group_name_H-M    "P 1"
_symmetry_int_tables_number       1

loop_
  _symmetry_equiv_pos_as_xyz
  'x, y, z'

loop_
  _atom_site_label
  _atom_site_occupancy
  _atom_site_fract_x
  _atom_site_fract_y
  _atom_site_fract_z
  _atom_site_thermal_displace_type
  _atom_site_B_iso_or_equiv
  _atom_site_type_symbol
  C1       1.0000 0.03640  0.19960  0.24750  Biso   1.000  C
  H1       1.0000 0.97960  0.17510  0.27350  Biso   1.000  H
  H2       1.0000 0.03990  0.17970  0.18580  Biso   1.000  H
  C2       1.0000 0.12980  0.07310  0.30490  Biso   1.000  C
  C3       1.0000 0.07110  0.00670  0.26940  Biso   1.000  C
  H3       1.0000 0.01930  0.02370  0.23590  Biso   1.000  H
  C4       1.0000 0.09190  0.91230  0.28510  Biso   1.000  C
  H4       1.0000 0.05430  0.86580  0.26200  Biso   1.000  H
  C5       1.0000 0.17070  0.89110  0.33640  Biso   1.000  C
  H5       1.0000 0.18340  0.82940  0.34890  Biso   1.000  H
  C6       1.0000 0.22850  0.95590  0.36820  Biso   1.000  C
  H6       1.0000 0.28220  0.93760  0.39810  Biso   1.000  H
  C7       1.0000 0.21060  0.04920  0.35780  Biso   1.000  C
  C8       1.0000 0.03380  0.27770  0.53640  Biso   1.000  C
  C9       1.0000 0.99820  0.36730  0.52330  Biso   1.000  C
  H7       1.0000 0.02860  0.41740  0.54910  Biso   1.000  H
  C10      1.0000 0.92000  0.38210  0.47340  Biso   1.000  C
  H8       1.0000 0.89870  0.44210  0.46460  Biso   1.000  H
  C11      1.0000 0.87250  0.30980  0.43620  Biso   1.000  C
  H9       1.0000 0.81890  0.32030  0.40280  Biso   1.000  H
  C12      1.0000 0.90480  0.22130  0.44860  Biso   1.000  C
  H10      1.0000 0.87230  0.17190  0.42400  Biso   1.000  H
  C13      1.0000 0.98440  0.20520  0.49680  Biso   1.000  C
  C14      1.0000 0.97410  0.04000  0.48290  Biso   1.000  C
  H11      1.0000 0.97070  0.03800  0.41830  Biso   1.000  H
  H12      1.0000 0.91120  0.04040  0.50660  Biso   1.000  H
  N1       1.0000 0.26980  0.12530  0.38770  Biso   1.000  N
  H13      1.0000 0.28300  0.15630  0.33710  Biso   1.000  H
  H14      1.0000 0.32340  0.09750  0.40350  Biso   1.000  H
  N2       1.0000 0.11610  0.25870  0.58340  Biso   1.000  N
  H15      1.0000 0.10860  0.20470  0.61230  Biso   1.000  H
  H16      1.0000 0.12360  0.30280  0.62510  Biso   1.000  H
  O1       1.0000 0.02370  0.11990  0.51150  Biso   1.000  O
  O2       1.0000 0.11690  0.16640  0.29670  Biso   1.000  O
  Ag1      1.0000 0.22190  0.19770  0.50080  Biso   1.000  Ag
  C15      1.0000 0.46360  0.30040  0.24750  Biso   1.000  C
  H17      1.0000 0.52040  0.32490  0.27350  Biso   1.000  H
  H18      1.0000 0.46010  0.32030  0.18580  Biso   1.000  H
  C16      1.0000 0.37020  0.42690  0.30490  Biso   1.000  C
  C17      1.0000 0.42890  0.49330  0.26940  Biso   1.000  C
  H19      1.0000 0.48070  0.47630  0.23590  Biso   1.000  H
  C18      1.0000 0.40810  0.58770  0.28510  Biso   1.000  C
  H20      1.0000 0.44570  0.63420  0.26200  Biso   1.000  H
  C19      1.0000 0.32930  0.60890  0.33640  Biso   1.000  C
  H21      1.0000 0.31660  0.67060  0.34890  Biso   1.000  H
  C20      1.0000 0.27150  0.54410  0.36820  Biso   1.000  C
  H22      1.0000 0.21780  0.56240  0.39810  Biso   1.000  H
  C21      1.0000 0.28940  0.45080  0.35780  Biso   1.000  C
  C22      1.0000 0.46620  0.22230  0.53640  Biso   1.000  C
  C23      1.0000 0.50180  0.13270  0.52330  Biso   1.000  C
  H23      1.0000 0.47140  0.08260  0.54910  Biso   1.000  H
  C24      1.0000 0.58000  0.11790  0.47340  Biso   1.000  C
  H24      1.0000 0.60130  0.05790  0.46460  Biso   1.000  H
  C25      1.0000 0.62750  0.19020  0.43620  Biso   1.000  C
  H25      1.0000 0.68110  0.17970  0.40280  Biso   1.000  H
  C26      1.0000 0.59520  0.27870  0.44860  Biso   1.000  C
  H26      1.0000 0.62770  0.32810  0.42400  Biso   1.000  H
  C27      1.0000 0.51560  0.29480  0.49680  Biso   1.000  C
  C28      1.0000 0.52590  0.46000  0.48290  Biso   1.000  C
  H27      1.0000 0.52930  0.46200  0.41830  Biso   1.000  H
  H28      1.0000 0.58880  0.45960  0.50660  Biso   1.000  H
  N3       1.0000 0.23020  0.37470  0.38770  Biso   1.000  N
  H29      1.0000 0.21700  0.34370  0.33710  Biso   1.000  H
  H30      1.0000 0.17660  0.40250  0.40350  Biso   1.000  H
  N4       1.0000 0.38390  0.24130  0.58340  Biso   1.000  N
  H31      1.0000 0.39140  0.29530  0.61230  Biso   1.000  H
  H32      1.0000 0.37640  0.19720  0.62510  Biso   1.000  H
  O3       1.0000 0.47630  0.38010  0.51150  Biso   1.000  O
  O4       1.0000 0.38310  0.33360  0.29670  Biso   1.000  O
  Ag2      1.0000 0.27810  0.30230  0.50080  Biso   1.000  Ag
  C29      1.0000 0.46360  0.19960  0.25250  Biso   1.000  C
  H33      1.0000 0.52040  0.17510  0.22650  Biso   1.000  H
  H34      1.0000 0.46010  0.17970  0.31420  Biso   1.000  H
  C30      1.0000 0.37020  0.07310  0.19510  Biso   1.000  C
  C31      1.0000 0.42890  0.00670  0.23060  Biso   1.000  C
  H35      1.0000 0.48070  0.02370  0.26410  Biso   1.000  H
  C32      1.0000 0.40810  0.91230  0.21490  Biso   1.000  C
  H36      1.0000 0.44570  0.86580  0.23800  Biso   1.000  H
  C33      1.0000 0.32930  0.89110  0.16360  Biso   1.000  C
  H37      1.0000 0.31660  0.82940  0.15110  Biso   1.000  H
  C34      1.0000 0.27150  0.95590  0.13180  Biso   1.000  C
  H38      1.0000 0.21780  0.93760  0.10190  Biso   1.000  H
  C35      1.0000 0.28940  0.04920  0.14220  Biso   1.000  C
  C36      1.0000 0.46620  0.27770  0.96360  Biso   1.000  C
  C37      1.0000 0.50180  0.36730  0.97670  Biso   1.000  C
  H39      1.0000 0.47140  0.41740  0.95090  Biso   1.000  H
  C38      1.0000 0.58000  0.38210  0.02660  Biso   1.000  C
  H40      1.0000 0.60130  0.44210  0.03540  Biso   1.000  H
  C39      1.0000 0.62750  0.30980  0.06380  Biso   1.000  C
  H41      1.0000 0.68110  0.32030  0.09720  Biso   1.000  H
  C40      1.0000 0.59520  0.22130  0.05140  Biso   1.000  C
  H42      1.0000 0.62770  0.17190  0.07600  Biso   1.000  H
  C41      1.0000 0.51560  0.20520  0.00320  Biso   1.000  C
  C42      1.0000 0.52590  0.04000  0.01710  Biso   1.000  C
  H43      1.0000 0.52930  0.03800  0.08170  Biso   1.000  H
  H44      1.0000 0.58880  0.04040  0.99340  Biso   1.000  H
  N5       1.0000 0.23020  0.12530  0.11230  Biso   1.000  N
  H45      1.0000 0.21700  0.15630  0.16290  Biso   1.000  H
  H46      1.0000 0.17660  0.09750  0.09650  Biso   1.000  H
  N6       1.0000 0.38390  0.25870  0.91660  Biso   1.000  N
  H47      1.0000 0.39140  0.20470  0.88770  Biso   1.000  H
  H48      1.0000 0.37640  0.30280  0.87490  Biso   1.000  H
  O5       1.0000 0.47630  0.11990  0.98850  Biso   1.000  O
  O6       1.0000 0.38310  0.16640  0.20330  Biso   1.000  O
  Ag3      1.0000 0.27810  0.19770  0.99920  Biso   1.000  Ag
  C43      1.0000 0.03640  0.30040  0.25250  Biso   1.000  C
  H49      1.0000 0.97960  0.32490  0.22650  Biso   1.000  H
  H50      1.0000 0.03990  0.32030  0.31420  Biso   1.000  H
  C44      1.0000 0.12980  0.42690  0.19510  Biso   1.000  C
  C45      1.0000 0.07110  0.49330  0.23060  Biso   1.000  C
  H51      1.0000 0.01930  0.47630  0.26410  Biso   1.000  H
  C46      1.0000 0.09190  0.58770  0.21490  Biso   1.000  C
  H52      1.0000 0.05430  0.63420  0.23800  Biso   1.000  H
  C47      1.0000 0.17070  0.60890  0.16360  Biso   1.000  C
  H53      1.0000 0.18340  0.67060  0.15110  Biso   1.000  H
  C48      1.0000 0.22850  0.54410  0.13180  Biso   1.000  C
  H54      1.0000 0.28220  0.56240  0.10190  Biso   1.000  H
  C49      1.0000 0.21060  0.45080  0.14220  Biso   1.000  C
  C50      1.0000 0.03380  0.22230  0.96360  Biso   1.000  C
  C51      1.0000 0.99820  0.13270  0.97670  Biso   1.000  C
  H55      1.0000 0.02860  0.08260  0.95090  Biso   1.000  H
  C52      1.0000 0.92000  0.11790  0.02660  Biso   1.000  C
  H56      1.0000 0.89870  0.05790  0.03540  Biso   1.000  H
  C53      1.0000 0.87250  0.19020  0.06380  Biso   1.000  C
  H57      1.0000 0.81890  0.17970  0.09720  Biso   1.000  H
  C54      1.0000 0.90480  0.27870  0.05140  Biso   1.000  C
  H58      1.0000 0.87230  0.32810  0.07600  Biso   1.000  H
  C55      1.0000 0.98440  0.29480  0.00320  Biso   1.000  C
  C56      1.0000 0.97410  0.46000  0.01710  Biso   1.000  C
  H59      1.0000 0.97070  0.46200  0.08170  Biso   1.000  H
  H60      1.0000 0.91120  0.45960  0.99340  Biso   1.000  H
  N7       1.0000 0.26980  0.37470  0.11230  Biso   1.000  N
  H61      1.0000 0.28300  0.34370  0.16290  Biso   1.000  H
  H62      1.0000 0.32340  0.40250  0.09650  Biso   1.000  H
  N8       1.0000 0.11610  0.24130  0.91660  Biso   1.000  N
  H63      1.0000 0.10860  0.29530  0.88770  Biso   1.000  H
  H64      1.0000 0.12360  0.19720  0.87490  Biso   1.000  H
  O7       1.0000 0.02370  0.38010  0.98850  Biso   1.000  O
  O8       1.0000 0.11690  0.33360  0.20330  Biso   1.000  O
  Ag4      1.0000 0.22190  0.30230  0.99920  Biso   1.000  Ag
  C57      1.0000 0.96360  0.80040  0.75250  Biso   1.000  C
  H65      1.0000 0.02040  0.82490  0.72650  Biso   1.000  H
  H66      1.0000 0.96010  0.82030  0.81420  Biso   1.000  H
  C58      1.0000 0.87020  0.92690  0.69510  Biso   1.000  C
  C59      1.0000 0.92890  0.99330  0.73060  Biso   1.000  C
  H67      1.0000 0.98070  0.97630  0.76410  Biso   1.000  H
  C60      1.0000 0.90810  0.08770  0.71490  Biso   1.000  C
  H68      1.0000 0.94570  0.13420  0.73800  Biso   1.000  H
  C61      1.0000 0.82930  0.10890  0.66360  Biso   1.000  C
  H69      1.0000 0.81660  0.17060  0.65110  Biso   1.000  H
  C62      1.0000 0.77150  0.04410  0.63180  Biso   1.000  C
  H70      1.0000 0.71780  0.06240  0.60190  Biso   1.000  H
  C63      1.0000 0.78940  0.95080  0.64220  Biso   1.000  C
  C64      1.0000 0.96620  0.72230  0.46360  Biso   1.000  C
  C65      1.0000 0.00180  0.63270  0.47670  Biso   1.000  C
  H71      1.0000 0.97140  0.58260  0.45090  Biso   1.000  H
  C66      1.0000 0.08000  0.61790  0.52660  Biso   1.000  C
  H72      1.0000 0.10130  0.55790  0.53540  Biso   1.000  H
  C67      1.0000 0.12750  0.69020  0.56380  Biso   1.000  C
  H73      1.0000 0.18110  0.67970  0.59720  Biso   1.000  H
  C68      1.0000 0.09520  0.77870  0.55140  Biso   1.000  C
  H74      1.0000 0.12770  0.82810  0.57600  Biso   1.000  H
  C69      1.0000 0.01560  0.79480  0.50320  Biso   1.000  C
  C70      1.0000 0.02590  0.96000  0.51710  Biso   1.000  C
  H75      1.0000 0.02930  0.96200  0.58170  Biso   1.000  H
  H76      1.0000 0.08880  0.95960  0.49340  Biso   1.000  H
  N9       1.0000 0.73020  0.87470  0.61230  Biso   1.000  N
  H77      1.0000 0.71700  0.84370  0.66290  Biso   1.000  H
  H78      1.0000 0.67660  0.90250  0.59650  Biso   1.000  H
  N10      1.0000 0.88390  0.74130  0.41660  Biso   1.000  N
  H79      1.0000 0.89140  0.79530  0.38770  Biso   1.000  H
  H80      1.0000 0.87640  0.69720  0.37490  Biso   1.000  H
  O9       1.0000 0.97630  0.88010  0.48850  Biso   1.000  O
  O10      1.0000 0.88310  0.83360  0.70330  Biso   1.000  O
  Ag5      1.0000 0.77810  0.80230  0.49920  Biso   1.000  Ag
  C71      1.0000 0.53640  0.69960  0.75250  Biso   1.000  C
  H81      1.0000 0.47960  0.67510  0.72650  Biso   1.000  H
  H82      1.0000 0.53990  0.67970  0.81420  Biso   1.000  H
  C72      1.0000 0.62980  0.57310  0.69510  Biso   1.000  C
  C73      1.0000 0.57110  0.50670  0.73060  Biso   1.000  C
  H83      1.0000 0.51930  0.52370  0.76410  Biso   1.000  H
  C74      1.0000 0.59190  0.41230  0.71490  Biso   1.000  C
  H84      1.0000 0.55430  0.36580  0.73800  Biso   1.000  H
  C75      1.0000 0.67070  0.39110  0.66360  Biso   1.000  C
  H85      1.0000 0.68340  0.32940  0.65110  Biso   1.000  H
  C76      1.0000 0.72850  0.45590  0.63180  Biso   1.000  C
  H86      1.0000 0.78220  0.43760  0.60190  Biso   1.000  H
  C77      1.0000 0.71060  0.54920  0.64220  Biso   1.000  C
  C78      1.0000 0.53380  0.77770  0.46360  Biso   1.000  C
  C79      1.0000 0.49820  0.86730  0.47670  Biso   1.000  C
  H87      1.0000 0.52860  0.91740  0.45090  Biso   1.000  H
  C80      1.0000 0.42000  0.88210  0.52660  Biso   1.000  C
  H88      1.0000 0.39870  0.94210  0.53540  Biso   1.000  H
  C81      1.0000 0.37250  0.80980  0.56380  Biso   1.000  C
  H89      1.0000 0.31890  0.82030  0.59720  Biso   1.000  H
  C82      1.0000 0.40480  0.72130  0.55140  Biso   1.000  C
  H90      1.0000 0.37230  0.67190  0.57600  Biso   1.000  H
  C83      1.0000 0.48440  0.70520  0.50320  Biso   1.000  C
  C84      1.0000 0.47410  0.54000  0.51710  Biso   1.000  C
  H91      1.0000 0.47070  0.53800  0.58170  Biso   1.000  H
  H92      1.0000 0.41120  0.54040  0.49340  Biso   1.000  H
  N11      1.0000 0.76980  0.62530  0.61230  Biso   1.000  N
  H93      1.0000 0.78300  0.65630  0.66290  Biso   1.000  H
  H94      1.0000 0.82340  0.59750  0.59650  Biso   1.000  H
  N12      1.0000 0.61610  0.75870  0.41660  Biso   1.000  N
  H95      1.0000 0.60860  0.70470  0.38770  Biso   1.000  H
  H96      1.0000 0.62360  0.80280  0.37490  Biso   1.000  H
  O11      1.0000 0.52370  0.61990  0.48850  Biso   1.000  O
  O12      1.0000 0.61690  0.66640  0.70330  Biso   1.000  O
  Ag6      1.0000 0.72190  0.69770  0.49920  Biso   1.000  Ag
  C85      1.0000 0.53640  0.80040  0.74750  Biso   1.000  C
  H97      1.0000 0.47960  0.82490  0.77350  Biso   1.000  H
  H98      1.0000 0.53990  0.82030  0.68580  Biso   1.000  H
  C86      1.0000 0.62980  0.92690  0.80490  Biso   1.000  C
  C87      1.0000 0.57110  0.99330  0.76940  Biso   1.000  C
  H99      1.0000 0.51930  0.97630  0.73590  Biso   1.000  H
  C88      1.0000 0.59190  0.08770  0.78510  Biso   1.000  C
  H100     1.0000 0.55430  0.13420  0.76200  Biso   1.000  H
  C89      1.0000 0.67070  0.10890  0.83640  Biso   1.000  C
  H101     1.0000 0.68340  0.17060  0.84890  Biso   1.000  H
  C90      1.0000 0.72850  0.04410  0.86820  Biso   1.000  C
  H102     1.0000 0.78220  0.06240  0.89810  Biso   1.000  H
  C91      1.0000 0.71060  0.95080  0.85780  Biso   1.000  C
  C92      1.0000 0.53380  0.72230  0.03640  Biso   1.000  C
  C93      1.0000 0.49820  0.63270  0.02330  Biso   1.000  C
  H103     1.0000 0.52860  0.58260  0.04910  Biso   1.000  H
  C94      1.0000 0.42000  0.61790  0.97340  Biso   1.000  C
  H104     1.0000 0.39870  0.55790  0.96460  Biso   1.000  H
  C95      1.0000 0.37250  0.69020  0.93620  Biso   1.000  C
  H105     1.0000 0.31890  0.67970  0.90280  Biso   1.000  H
  C96      1.0000 0.40480  0.77870  0.94860  Biso   1.000  C
  H106     1.0000 0.37230  0.82810  0.92400  Biso   1.000  H
  C97      1.0000 0.48440  0.79480  0.99680  Biso   1.000  C
  C98      1.0000 0.47410  0.96000  0.98290  Biso   1.000  C
  H107     1.0000 0.47070  0.96200  0.91830  Biso   1.000  H
  H108     1.0000 0.41120  0.95960  0.00660  Biso   1.000  H
  N13      1.0000 0.76980  0.87470  0.88770  Biso   1.000  N
  H109     1.0000 0.78300  0.84370  0.83710  Biso   1.000  H
  H110     1.0000 0.82340  0.90250  0.90350  Biso   1.000  H
  N14      1.0000 0.61610  0.74130  0.08340  Biso   1.000  N
  H111     1.0000 0.60860  0.79530  0.11230  Biso   1.000  H
  H112     1.0000 0.62360  0.69720  0.12510  Biso   1.000  H
  O13      1.0000 0.52370  0.88010  0.01150  Biso   1.000  O
  O14      1.0000 0.61690  0.83360  0.79670  Biso   1.000  O
  Ag7      1.0000 0.72190  0.80230  0.00080  Biso   1.000  Ag
  C99      1.0000 0.96360  0.69960  0.74750  Biso   1.000  C
  H113     1.0000 0.02040  0.67510  0.77350  Biso   1.000  H
  H114     1.0000 0.96010  0.67970  0.68580  Biso   1.000  H
  C100     1.0000 0.87020  0.57310  0.80490  Biso   1.000  C
  C101     1.0000 0.92890  0.50670  0.76940  Biso   1.000  C
  H115     1.0000 0.98070  0.52370  0.73590  Biso   1.000  H
  C102     1.0000 0.90810  0.41230  0.78510  Biso   1.000  C
  H116     1.0000 0.94570  0.36580  0.76200  Biso   1.000  H
  C103     1.0000 0.82930  0.39110  0.83640  Biso   1.000  C
  H117     1.0000 0.81660  0.32940  0.84890  Biso   1.000  H
  C104     1.0000 0.77150  0.45590  0.86820  Biso   1.000  C
  H118     1.0000 0.71780  0.43760  0.89810  Biso   1.000  H
  C105     1.0000 0.78940  0.54920  0.85780  Biso   1.000  C
  C106     1.0000 0.96620  0.77770  0.03640  Biso   1.000  C
  C107     1.0000 0.00180  0.86730  0.02330  Biso   1.000  C
  H119     1.0000 0.97140  0.91740  0.04910  Biso   1.000  H
  C108     1.0000 0.08000  0.88210  0.97340  Biso   1.000  C
  H120     1.0000 0.10130  0.94210  0.96460  Biso   1.000  H
  C109     1.0000 0.12750  0.80980  0.93620  Biso   1.000  C
  H121     1.0000 0.18110  0.82030  0.90280  Biso   1.000  H
  C110     1.0000 0.09520  0.72130  0.94860  Biso   1.000  C
  H122     1.0000 0.12770  0.67190  0.92400  Biso   1.000  H
  C111     1.0000 0.01560  0.70520  0.99680  Biso   1.000  C
  C112     1.0000 0.02590  0.54000  0.98290  Biso   1.000  C
  H123     1.0000 0.02930  0.53800  0.91830  Biso   1.000  H
  H124     1.0000 0.08880  0.54040  0.00660  Biso   1.000  H
  N15      1.0000 0.73020  0.62530  0.88770  Biso   1.000  N
  H125     1.0000 0.71700  0.65630  0.83710  Biso   1.000  H
  H126     1.0000 0.67660  0.59750  0.90350  Biso   1.000  H
  N16      1.0000 0.88390  0.75870  0.08340  Biso   1.000  N
  H127     1.0000 0.89140  0.70470  0.11230  Biso   1.000  H
  H128     1.0000 0.87640  0.80280  0.12510  Biso   1.000  H
  O15      1.0000 0.97630  0.61990  0.01150  Biso   1.000  O
  O16      1.0000 0.88310  0.66640  0.79670  Biso   1.000  O
  Ag8      1.0000 0.77810  0.69770  0.00080  Biso   1.000  Ag
  Ag9      1.0000 0.25000  0.25000  0.50177  Biso   1.000  Ag
  Ag10     1.0000 0.25000  0.25000  0.99823  Biso   1.000  Ag
  Ag11     1.0000 0.75000  0.75000  0.49823  Biso   1.000  Ag
  Ag12     1.0000 0.75000  0.75000  0.00177  Biso   1.000  Ag
