data_image0
_cell_length_a       15.4168
_cell_length_b       15.4168
_cell_length_c       27.623
_cell_angle_alpha    90
_cell_angle_beta     90
_cell_angle_gamma    90

_symmetry_space_group_name_H-M    "P 1"
_symmetry_int_tables_number       1

loop_
  _symmetry_equiv_pos_as_xyz
  'x, y, z'

loop_
  _atom_site_label
  _atom_site_occupancy
  _atom_site_fract_x
  _atom_site_fract_y
  _atom_site_fract_z
  _atom_site_thermal_displace_type
  _atom_site_B_iso_or_equiv
  _atom_site_type_symbol
  O1       1.0000 0.10524  0.07781  0.21099  Biso   1.000  O
  C1       1.0000 0.17159  0.26354  0.22430  Biso   1.000  C
  C2       1.0000 0.08825  0.27840  0.19742  Biso   1.000  C
  H1       1.0000 0.08980  0.33540  0.18180  Biso   1.000  H
  H2       1.0000 0.03950  0.27610  0.22020  Biso   1.000  H
  H3       1.0000 0.08100  0.23330  0.17270  Biso   1.000  H
  C3       1.0000 0.93980  0.05720  0.05110  Biso   1.000  C
  C4       1.0000 0.98790  0.07940  0.10510  Biso   1.000  C
  C5       1.0000 0.04030  0.06250  0.10350  Biso   1.000  C
  C6       1.0000 0.92220  0.00340  0.94720  Biso   1.000  C
  O2       1.0000 0.60524  0.57781  0.71099  Biso   1.000  O
  C7       1.0000 0.67159  0.76354  0.72430  Biso   1.000  C
  C8       1.0000 0.58825  0.77840  0.69742  Biso   1.000  C
  H4       1.0000 0.58980  0.83540  0.68180  Biso   1.000  H
  H5       1.0000 0.53950  0.77610  0.72020  Biso   1.000  H
  H6       1.0000 0.58100  0.73330  0.67270  Biso   1.000  H
  C9       1.0000 0.43980  0.55720  0.55110  Biso   1.000  C
  C10      1.0000 0.48790  0.57940  0.60510  Biso   1.000  C
  C11      1.0000 0.54030  0.56250  0.60350  Biso   1.000  C
  C12      1.0000 0.42220  0.50340  0.44720  Biso   1.000  C
  O3       1.0000 0.89476  0.92219  0.21099  Biso   1.000  O
  C13      1.0000 0.82841  0.73646  0.22430  Biso   1.000  C
  C14      1.0000 0.91175  0.72160  0.19742  Biso   1.000  C
  H7       1.0000 0.91020  0.66460  0.18180  Biso   1.000  H
  H8       1.0000 0.96050  0.72390  0.22020  Biso   1.000  H
  H9       1.0000 0.91900  0.76670  0.17270  Biso   1.000  H
  C15      1.0000 0.06020  0.94280  0.05110  Biso   1.000  C
  C16      1.0000 0.01210  0.92060  0.10510  Biso   1.000  C
  C17      1.0000 0.95970  0.93750  0.10350  Biso   1.000  C
  C18      1.0000 0.07780  0.99660  0.94720  Biso   1.000  C
  O4       1.0000 0.39476  0.42219  0.71099  Biso   1.000  O
  C19      1.0000 0.32841  0.23646  0.72430  Biso   1.000  C
  C20      1.0000 0.41175  0.22160  0.69742  Biso   1.000  C
  H10      1.0000 0.41020  0.16460  0.68180  Biso   1.000  H
  H11      1.0000 0.46050  0.22390  0.72020  Biso   1.000  H
  H12      1.0000 0.41900  0.26670  0.67270  Biso   1.000  H
  C21      1.0000 0.56020  0.44280  0.55110  Biso   1.000  C
  C22      1.0000 0.51210  0.42060  0.60510  Biso   1.000  C
  C23      1.0000 0.45970  0.43750  0.60350  Biso   1.000  C
  C24      1.0000 0.57780  0.49660  0.44720  Biso   1.000  C
  O5       1.0000 0.92219  0.10524  0.21099  Biso   1.000  O
  C25      1.0000 0.73646  0.17159  0.22430  Biso   1.000  C
  C26      1.0000 0.72160  0.08825  0.19742  Biso   1.000  C
  H13      1.0000 0.66460  0.08980  0.18180  Biso   1.000  H
  H14      1.0000 0.72390  0.03950  0.22020  Biso   1.000  H
  H15      1.0000 0.76670  0.08100  0.17270  Biso   1.000  H
  C27      1.0000 0.94280  0.93980  0.05110  Biso   1.000  C
  C28      1.0000 0.92060  0.98790  0.10510  Biso   1.000  C
  C29      1.0000 0.93750  0.04030  0.10350  Biso   1.000  C
  C30      1.0000 0.99660  0.92220  0.94720  Biso   1.000  C
  O6       1.0000 0.42219  0.60524  0.71099  Biso   1.000  O
  C31      1.0000 0.23646  0.67159  0.72430  Biso   1.000  C
  C32      1.0000 0.22160  0.58825  0.69742  Biso   1.000  C
  H16      1.0000 0.16460  0.58980  0.68180  Biso   1.000  H
  H17      1.0000 0.22390  0.53950  0.72020  Biso   1.000  H
  H18      1.0000 0.26670  0.58100  0.67270  Biso   1.000  H
  C33      1.0000 0.44280  0.43980  0.55110  Biso   1.000  C
  C34      1.0000 0.42060  0.48790  0.60510  Biso   1.000  C
  C35      1.0000 0.43750  0.54030  0.60350  Biso   1.000  C
  C36      1.0000 0.49660  0.42220  0.44720  Biso   1.000  C
  O7       1.0000 0.07781  0.89476  0.21099  Biso   1.000  O
  C37      1.0000 0.26354  0.82841  0.22430  Biso   1.000  C
  C38      1.0000 0.27840  0.91175  0.19742  Biso   1.000  C
  H19      1.0000 0.33540  0.91020  0.18180  Biso   1.000  H
  H20      1.0000 0.27610  0.96050  0.22020  Biso   1.000  H
  H21      1.0000 0.23330  0.91900  0.17270  Biso   1.000  H
  C39      1.0000 0.05720  0.06020  0.05110  Biso   1.000  C
  C40      1.0000 0.07940  0.01210  0.10510  Biso   1.000  C
  C41      1.0000 0.06250  0.95970  0.10350  Biso   1.000  C
  C42      1.0000 0.00340  0.07780  0.94720  Biso   1.000  C
  O8       1.0000 0.57781  0.39476  0.71099  Biso   1.000  O
  C43      1.0000 0.76354  0.32841  0.72430  Biso   1.000  C
  C44      1.0000 0.77840  0.41175  0.69742  Biso   1.000  C
  H22      1.0000 0.83540  0.41020  0.68180  Biso   1.000  H
  H23      1.0000 0.77610  0.46050  0.72020  Biso   1.000  H
  H24      1.0000 0.73330  0.41900  0.67270  Biso   1.000  H
  C45      1.0000 0.55720  0.56020  0.55110  Biso   1.000  C
  C46      1.0000 0.57940  0.51210  0.60510  Biso   1.000  C
  C47      1.0000 0.56250  0.45970  0.60350  Biso   1.000  C
  C48      1.0000 0.50340  0.57780  0.44720  Biso   1.000  C
  O9       1.0000 0.89476  0.07781  0.28901  Biso   1.000  O
  C49      1.0000 0.82841  0.26354  0.27570  Biso   1.000  C
  C50      1.0000 0.91175  0.27840  0.30258  Biso   1.000  C
  H25      1.0000 0.91020  0.33540  0.31820  Biso   1.000  H
  H26      1.0000 0.96050  0.27610  0.27980  Biso   1.000  H
  H27      1.0000 0.91900  0.23330  0.32730  Biso   1.000  H
  C51      1.0000 0.06020  0.05720  0.44890  Biso   1.000  C
  C52      1.0000 0.01210  0.07940  0.39490  Biso   1.000  C
  C53      1.0000 0.95970  0.06250  0.39650  Biso   1.000  C
  C54      1.0000 0.07780  0.00340  0.55280  Biso   1.000  C
  O10      1.0000 0.39476  0.57781  0.78901  Biso   1.000  O
  C55      1.0000 0.32841  0.76354  0.77570  Biso   1.000  C
  C56      1.0000 0.41175  0.77840  0.80258  Biso   1.000  C
  H28      1.0000 0.41020  0.83540  0.81820  Biso   1.000  H
  H29      1.0000 0.46050  0.77610  0.77980  Biso   1.000  H
  H30      1.0000 0.41900  0.73330  0.82730  Biso   1.000  H
  C57      1.0000 0.56020  0.55720  0.94890  Biso   1.000  C
  C58      1.0000 0.51210  0.57940  0.89490  Biso   1.000  C
  C59      1.0000 0.45970  0.56250  0.89650  Biso   1.000  C
  C60      1.0000 0.57780  0.50340  0.05280  Biso   1.000  C
  O11      1.0000 0.10524  0.92219  0.28901  Biso   1.000  O
  C61      1.0000 0.17159  0.73646  0.27570  Biso   1.000  C
  C62      1.0000 0.08825  0.72160  0.30258  Biso   1.000  C
  H31      1.0000 0.08980  0.66460  0.31820  Biso   1.000  H
  H32      1.0000 0.03950  0.72390  0.27980  Biso   1.000  H
  H33      1.0000 0.08100  0.76670  0.32730  Biso   1.000  H
  C63      1.0000 0.93980  0.94280  0.44890  Biso   1.000  C
  C64      1.0000 0.98790  0.92060  0.39490  Biso   1.000  C
  C65      1.0000 0.04030  0.93750  0.39650  Biso   1.000  C
  C66      1.0000 0.92220  0.99660  0.55280  Biso   1.000  C
  O12      1.0000 0.60524  0.42219  0.78901  Biso   1.000  O
  C67      1.0000 0.67159  0.23646  0.77570  Biso   1.000  C
  C68      1.0000 0.58825  0.22160  0.80258  Biso   1.000  C
  H34      1.0000 0.58980  0.16460  0.81820  Biso   1.000  H
  H35      1.0000 0.53950  0.22390  0.77980  Biso   1.000  H
  H36      1.0000 0.58100  0.26670  0.82730  Biso   1.000  H
  C69      1.0000 0.43980  0.44280  0.94890  Biso   1.000  C
  C70      1.0000 0.48790  0.42060  0.89490  Biso   1.000  C
  C71      1.0000 0.54030  0.43750  0.89650  Biso   1.000  C
  C72      1.0000 0.42220  0.49660  0.05280  Biso   1.000  C
  O13      1.0000 0.07781  0.10524  0.28901  Biso   1.000  O
  C73      1.0000 0.26354  0.17159  0.27570  Biso   1.000  C
  C74      1.0000 0.27840  0.08825  0.30258  Biso   1.000  C
  H37      1.0000 0.33540  0.08980  0.31820  Biso   1.000  H
  H38      1.0000 0.27610  0.03950  0.27980  Biso   1.000  H
  H39      1.0000 0.23330  0.08100  0.32730  Biso   1.000  H
  C75      1.0000 0.05720  0.93980  0.44890  Biso   1.000  C
  C76      1.0000 0.07940  0.98790  0.39490  Biso   1.000  C
  C77      1.0000 0.06250  0.04030  0.39650  Biso   1.000  C
  C78      1.0000 0.00340  0.92220  0.55280  Biso   1.000  C
  O14      1.0000 0.57781  0.60524  0.78901  Biso   1.000  O
  C79      1.0000 0.76354  0.67159  0.77570  Biso   1.000  C
  C80      1.0000 0.77840  0.58825  0.80258  Biso   1.000  C
  H40      1.0000 0.83540  0.58980  0.81820  Biso   1.000  H
  H41      1.0000 0.77610  0.53950  0.77980  Biso   1.000  H
  H42      1.0000 0.73330  0.58100  0.82730  Biso   1.000  H
  C81      1.0000 0.55720  0.43980  0.94890  Biso   1.000  C
  C82      1.0000 0.57940  0.48790  0.89490  Biso   1.000  C
  C83      1.0000 0.56250  0.54030  0.89650  Biso   1.000  C
  C84      1.0000 0.50340  0.42220  0.05280  Biso   1.000  C
  O15      1.0000 0.92219  0.89476  0.28901  Biso   1.000  O
  C85      1.0000 0.73646  0.82841  0.27570  Biso   1.000  C
  C86      1.0000 0.72160  0.91175  0.30258  Biso   1.000  C
  H43      1.0000 0.66460  0.91020  0.31820  Biso   1.000  H
  H44      1.0000 0.72390  0.96050  0.27980  Biso   1.000  H
  H45      1.0000 0.76670  0.91900  0.32730  Biso   1.000  H
  C87      1.0000 0.94280  0.06020  0.44890  Biso   1.000  C
  C88      1.0000 0.92060  0.01210  0.39490  Biso   1.000  C
  C89      1.0000 0.93750  0.95970  0.39650  Biso   1.000  C
  C90      1.0000 0.99660  0.07780  0.55280  Biso   1.000  C
  O16      1.0000 0.42219  0.39476  0.78901  Biso   1.000  O
  C91      1.0000 0.23646  0.32841  0.77570  Biso   1.000  C
  C92      1.0000 0.22160  0.41175  0.80258  Biso   1.000  C
  H46      1.0000 0.16460  0.41020  0.81820  Biso   1.000  H
  H47      1.0000 0.22390  0.46050  0.77980  Biso   1.000  H
  H48      1.0000 0.26670  0.41900  0.82730  Biso   1.000  H
  C93      1.0000 0.44280  0.56020  0.94890  Biso   1.000  C
  C94      1.0000 0.42060  0.51210  0.89490  Biso   1.000  C
  C95      1.0000 0.43750  0.45970  0.89650  Biso   1.000  C
  C96      1.0000 0.49660  0.57780  0.05280  Biso   1.000  C
  O17      1.0000 0.89476  0.92219  0.78901  Biso   1.000  O
  C97      1.0000 0.82841  0.73646  0.77570  Biso   1.000  C
  C98      1.0000 0.91175  0.72160  0.80258  Biso   1.000  C
  H49      1.0000 0.91020  0.66460  0.81820  Biso   1.000  H
  H50      1.0000 0.96050  0.72390  0.77980  Biso   1.000  H
  H51      1.0000 0.91900  0.76670  0.82730  Biso   1.000  H
  C99      1.0000 0.06020  0.94280  0.94890  Biso   1.000  C
  C100     1.0000 0.01210  0.92060  0.89490  Biso   1.000  C
  C101     1.0000 0.95970  0.93750  0.89650  Biso   1.000  C
  C102     1.0000 0.07780  0.99660  0.05280  Biso   1.000  C
  O18      1.0000 0.39476  0.42219  0.28901  Biso   1.000  O
  C103     1.0000 0.32841  0.23646  0.27570  Biso   1.000  C
  C104     1.0000 0.41175  0.22160  0.30258  Biso   1.000  C
  H52      1.0000 0.41020  0.16460  0.31820  Biso   1.000  H
  H53      1.0000 0.46050  0.22390  0.27980  Biso   1.000  H
  H54      1.0000 0.41900  0.26670  0.32730  Biso   1.000  H
  C105     1.0000 0.56020  0.44280  0.44890  Biso   1.000  C
  C106     1.0000 0.51210  0.42060  0.39490  Biso   1.000  C
  C107     1.0000 0.45970  0.43750  0.39650  Biso   1.000  C
  C108     1.0000 0.57780  0.49660  0.55280  Biso   1.000  C
  O19      1.0000 0.10524  0.07781  0.78901  Biso   1.000  O
  C109     1.0000 0.17159  0.26354  0.77570  Biso   1.000  C
  C110     1.0000 0.08825  0.27840  0.80258  Biso   1.000  C
  H55      1.0000 0.08980  0.33540  0.81820  Biso   1.000  H
  H56      1.0000 0.03950  0.27610  0.77980  Biso   1.000  H
  H57      1.0000 0.08100  0.23330  0.82730  Biso   1.000  H
  C111     1.0000 0.93980  0.05720  0.94890  Biso   1.000  C
  C112     1.0000 0.98790  0.07940  0.89490  Biso   1.000  C
  C113     1.0000 0.04030  0.06250  0.89650  Biso   1.000  C
  C114     1.0000 0.92220  0.00340  0.05280  Biso   1.000  C
  O20      1.0000 0.60524  0.57781  0.28901  Biso   1.000  O
  C115     1.0000 0.67159  0.76354  0.27570  Biso   1.000  C
  C116     1.0000 0.58825  0.77840  0.30258  Biso   1.000  C
  H58      1.0000 0.58980  0.83540  0.31820  Biso   1.000  H
  H59      1.0000 0.53950  0.77610  0.27980  Biso   1.000  H
  H60      1.0000 0.58100  0.73330  0.32730  Biso   1.000  H
  C117     1.0000 0.43980  0.55720  0.44890  Biso   1.000  C
  C118     1.0000 0.48790  0.57940  0.39490  Biso   1.000  C
  C119     1.0000 0.54030  0.56250  0.39650  Biso   1.000  C
  C120     1.0000 0.42220  0.50340  0.55280  Biso   1.000  C
  O21      1.0000 0.07781  0.89476  0.78901  Biso   1.000  O
  C121     1.0000 0.26354  0.82841  0.77570  Biso   1.000  C
  C122     1.0000 0.27840  0.91175  0.80258  Biso   1.000  C
  H61      1.0000 0.33540  0.91020  0.81820  Biso   1.000  H
  H62      1.0000 0.27610  0.96050  0.77980  Biso   1.000  H
  H63      1.0000 0.23330  0.91900  0.82730  Biso   1.000  H
  C123     1.0000 0.05720  0.06020  0.94890  Biso   1.000  C
  C124     1.0000 0.07940  0.01210  0.89490  Biso   1.000  C
  C125     1.0000 0.06250  0.95970  0.89650  Biso   1.000  C
  C126     1.0000 0.00340  0.07780  0.05280  Biso   1.000  C
  O22      1.0000 0.57781  0.39476  0.28901  Biso   1.000  O
  C127     1.0000 0.76354  0.32841  0.27570  Biso   1.000  C
  C128     1.0000 0.77840  0.41175  0.30258  Biso   1.000  C
  H64      1.0000 0.83540  0.41020  0.31820  Biso   1.000  H
  H65      1.0000 0.77610  0.46050  0.27980  Biso   1.000  H
  H66      1.0000 0.73330  0.41900  0.32730  Biso   1.000  H
  C129     1.0000 0.55720  0.56020  0.44890  Biso   1.000  C
  C130     1.0000 0.57940  0.51210  0.39490  Biso   1.000  C
  C131     1.0000 0.56250  0.45970  0.39650  Biso   1.000  C
  C132     1.0000 0.50340  0.57780  0.55280  Biso   1.000  C
  O23      1.0000 0.92219  0.10524  0.78901  Biso   1.000  O
  C133     1.0000 0.73646  0.17159  0.77570  Biso   1.000  C
  C134     1.0000 0.72160  0.08825  0.80258  Biso   1.000  C
  H67      1.0000 0.66460  0.08980  0.81820  Biso   1.000  H
  H68      1.0000 0.72390  0.03950  0.77980  Biso   1.000  H
  H69      1.0000 0.76670  0.08100  0.82730  Biso   1.000  H
  C135     1.0000 0.94280  0.93980  0.94890  Biso   1.000  C
  C136     1.0000 0.92060  0.98790  0.89490  Biso   1.000  C
  C137     1.0000 0.93750  0.04030  0.89650  Biso   1.000  C
  C138     1.0000 0.99660  0.92220  0.05280  Biso   1.000  C
  O24      1.0000 0.42219  0.60524  0.28901  Biso   1.000  O
  C139     1.0000 0.23646  0.67159  0.27570  Biso   1.000  C
  C140     1.0000 0.22160  0.58825  0.30258  Biso   1.000  C
  H70      1.0000 0.16460  0.58980  0.31820  Biso   1.000  H
  H71      1.0000 0.22390  0.53950  0.27980  Biso   1.000  H
  H72      1.0000 0.26670  0.58100  0.32730  Biso   1.000  H
  C141     1.0000 0.44280  0.43980  0.44890  Biso   1.000  C
  C142     1.0000 0.42060  0.48790  0.39490  Biso   1.000  C
  C143     1.0000 0.43750  0.54030  0.39650  Biso   1.000  C
  C144     1.0000 0.49660  0.42220  0.55280  Biso   1.000  C
  O25      1.0000 0.10524  0.92219  0.71099  Biso   1.000  O
  C145     1.0000 0.17159  0.73646  0.72430  Biso   1.000  C
  C146     1.0000 0.08825  0.72160  0.69742  Biso   1.000  C
  H73      1.0000 0.08980  0.66460  0.68180  Biso   1.000  H
  H74      1.0000 0.03950  0.72390  0.72020  Biso   1.000  H
  H75      1.0000 0.08100  0.76670  0.67270  Biso   1.000  H
  C147     1.0000 0.93980  0.94280  0.55110  Biso   1.000  C
  C148     1.0000 0.98790  0.92060  0.60510  Biso   1.000  C
  C149     1.0000 0.04030  0.93750  0.60350  Biso   1.000  C
  C150     1.0000 0.92220  0.99660  0.44720  Biso   1.000  C
  O26      1.0000 0.60524  0.42219  0.21099  Biso   1.000  O
  C151     1.0000 0.67159  0.23646  0.22430  Biso   1.000  C
  C152     1.0000 0.58825  0.22160  0.19742  Biso   1.000  C
  H76      1.0000 0.58980  0.16460  0.18180  Biso   1.000  H
  H77      1.0000 0.53950  0.22390  0.22020  Biso   1.000  H
  H78      1.0000 0.58100  0.26670  0.17270  Biso   1.000  H
  C153     1.0000 0.43980  0.44280  0.05110  Biso   1.000  C
  C154     1.0000 0.48790  0.42060  0.10510  Biso   1.000  C
  C155     1.0000 0.54030  0.43750  0.10350  Biso   1.000  C
  C156     1.0000 0.42220  0.49660  0.94720  Biso   1.000  C
  O27      1.0000 0.89476  0.07781  0.71099  Biso   1.000  O
  C157     1.0000 0.82841  0.26354  0.72430  Biso   1.000  C
  C158     1.0000 0.91175  0.27840  0.69742  Biso   1.000  C
  H79      1.0000 0.91020  0.33540  0.68180  Biso   1.000  H
  H80      1.0000 0.96050  0.27610  0.72020  Biso   1.000  H
  H81      1.0000 0.91900  0.23330  0.67270  Biso   1.000  H
  C159     1.0000 0.06020  0.05720  0.55110  Biso   1.000  C
  C160     1.0000 0.01210  0.07940  0.60510  Biso   1.000  C
  C161     1.0000 0.95970  0.06250  0.60350  Biso   1.000  C
  C162     1.0000 0.07780  0.00340  0.44720  Biso   1.000  C
  O28      1.0000 0.39476  0.57781  0.21099  Biso   1.000  O
  C163     1.0000 0.32841  0.76354  0.22430  Biso   1.000  C
  C164     1.0000 0.41175  0.77840  0.19742  Biso   1.000  C
  H82      1.0000 0.41020  0.83540  0.18180  Biso   1.000  H
  H83      1.0000 0.46050  0.77610  0.22020  Biso   1.000  H
  H84      1.0000 0.41900  0.73330  0.17270  Biso   1.000  H
  C165     1.0000 0.56020  0.55720  0.05110  Biso   1.000  C
  C166     1.0000 0.51210  0.57940  0.10510  Biso   1.000  C
  C167     1.0000 0.45970  0.56250  0.10350  Biso   1.000  C
  C168     1.0000 0.57780  0.50340  0.94720  Biso   1.000  C
  O29      1.0000 0.92219  0.89476  0.71099  Biso   1.000  O
  C169     1.0000 0.73646  0.82841  0.72430  Biso   1.000  C
  C170     1.0000 0.72160  0.91175  0.69742  Biso   1.000  C
  H85      1.0000 0.66460  0.91020  0.68180  Biso   1.000  H
  H86      1.0000 0.72390  0.96050  0.72020  Biso   1.000  H
  H87      1.0000 0.76670  0.91900  0.67270  Biso   1.000  H
  C171     1.0000 0.94280  0.06020  0.55110  Biso   1.000  C
  C172     1.0000 0.92060  0.01210  0.60510  Biso   1.000  C
  C173     1.0000 0.93750  0.95970  0.60350  Biso   1.000  C
  C174     1.0000 0.99660  0.07780  0.44720  Biso   1.000  C
  O30      1.0000 0.42219  0.39476  0.21099  Biso   1.000  O
  C175     1.0000 0.23646  0.32841  0.22430  Biso   1.000  C
  C176     1.0000 0.22160  0.41175  0.19742  Biso   1.000  C
  H88      1.0000 0.16460  0.41020  0.18180  Biso   1.000  H
  H89      1.0000 0.22390  0.46050  0.22020  Biso   1.000  H
  H90      1.0000 0.26670  0.41900  0.17270  Biso   1.000  H
  C177     1.0000 0.44280  0.56020  0.05110  Biso   1.000  C
  C178     1.0000 0.42060  0.51210  0.10510  Biso   1.000  C
  C179     1.0000 0.43750  0.45970  0.10350  Biso   1.000  C
  C180     1.0000 0.49660  0.57780  0.94720  Biso   1.000  C
  O31      1.0000 0.07781  0.10524  0.71099  Biso   1.000  O
  C181     1.0000 0.26354  0.17159  0.72430  Biso   1.000  C
  C182     1.0000 0.27840  0.08825  0.69742  Biso   1.000  C
  H91      1.0000 0.33540  0.08980  0.68180  Biso   1.000  H
  H92      1.0000 0.27610  0.03950  0.72020  Biso   1.000  H
  H93      1.0000 0.23330  0.08100  0.67270  Biso   1.000  H
  C183     1.0000 0.05720  0.93980  0.55110  Biso   1.000  C
  C184     1.0000 0.07940  0.98790  0.60510  Biso   1.000  C
  C185     1.0000 0.06250  0.04030  0.60350  Biso   1.000  C
  C186     1.0000 0.00340  0.92220  0.44720  Biso   1.000  C
  O32      1.0000 0.57781  0.60524  0.21099  Biso   1.000  O
  C187     1.0000 0.76354  0.67159  0.22430  Biso   1.000  C
  C188     1.0000 0.77840  0.58825  0.19742  Biso   1.000  C
  H94      1.0000 0.83540  0.58980  0.18180  Biso   1.000  H
  H95      1.0000 0.77610  0.53950  0.22020  Biso   1.000  H
  H96      1.0000 0.73330  0.58100  0.17270  Biso   1.000  H
  C189     1.0000 0.55720  0.43980  0.05110  Biso   1.000  C
  C190     1.0000 0.57940  0.48790  0.10510  Biso   1.000  C
  C191     1.0000 0.56250  0.54030  0.10350  Biso   1.000  C
  C192     1.0000 0.50340  0.42220  0.94720  Biso   1.000  C
  Co1      1.0000 0.00000  0.00000  0.20158  Biso   1.000  Co
  N1       1.0000 0.00000  0.00000  0.12780  Biso   1.000  N
  C193     1.0000 0.00000  0.00000  0.02610  Biso   1.000  C
  Co2      1.0000 0.50000  0.50000  0.70158  Biso   1.000  Co
  N2       1.0000 0.50000  0.50000  0.62780  Biso   1.000  N
  C194     1.0000 0.50000  0.50000  0.52610  Biso   1.000  C
  Co3      1.0000 0.00000  0.00000  0.29842  Biso   1.000  Co
  N3       1.0000 0.00000  0.00000  0.37220  Biso   1.000  N
  C195     1.0000 0.00000  0.00000  0.47390  Biso   1.000  C
  Co4      1.0000 0.50000  0.50000  0.79842  Biso   1.000  Co
  N4       1.0000 0.50000  0.50000  0.87220  Biso   1.000  N
  C196     1.0000 0.50000  0.50000  0.97390  Biso   1.000  C
  Co5      1.0000 0.00000  0.00000  0.79842  Biso   1.000  Co
  N5       1.0000 0.00000  0.00000  0.87220  Biso   1.000  N
  C197     1.0000 0.00000  0.00000  0.97390  Biso   1.000  C
  Co6      1.0000 0.50000  0.50000  0.29842  Biso   1.000  Co
  N6       1.0000 0.50000  0.50000  0.37220  Biso   1.000  N
  C198     1.0000 0.50000  0.50000  0.47390  Biso   1.000  C
  Co7      1.0000 0.00000  0.00000  0.70158  Biso   1.000  Co
  N7       1.0000 0.00000  0.00000  0.62780  Biso   1.000  N
  C199     1.0000 0.00000  0.00000  0.52610  Biso   1.000  C
  Co8      1.0000 0.50000  0.50000  0.20158  Biso   1.000  Co
  N8       1.0000 0.50000  0.50000  0.12780  Biso   1.000  N
  C200     1.0000 0.50000  0.50000  0.02610  Biso   1.000  C
  C201     1.0000 0.11809  0.11809  0.25000  Biso   1.000  C
  C202     1.0000 0.18687  0.18687  0.25000  Biso   1.000  C
  C203     1.0000 0.61809  0.61809  0.75000  Biso   1.000  C
  C204     1.0000 0.68687  0.68687  0.75000  Biso   1.000  C
  C205     1.0000 0.88191  0.88191  0.25000  Biso   1.000  C
  C206     1.0000 0.81313  0.81313  0.25000  Biso   1.000  C
  C207     1.0000 0.38191  0.38191  0.75000  Biso   1.000  C
  C208     1.0000 0.31313  0.31313  0.75000  Biso   1.000  C
  C209     1.0000 0.88191  0.11809  0.25000  Biso   1.000  C
  C210     1.0000 0.81313  0.18687  0.25000  Biso   1.000  C
  C211     1.0000 0.38191  0.61809  0.75000  Biso   1.000  C
  C212     1.0000 0.31313  0.68687  0.75000  Biso   1.000  C
  C213     1.0000 0.11809  0.88191  0.25000  Biso   1.000  C
  C214     1.0000 0.18687  0.81313  0.25000  Biso   1.000  C
  C215     1.0000 0.61809  0.38191  0.75000  Biso   1.000  C
  C216     1.0000 0.68687  0.31313  0.75000  Biso   1.000  C
  C217     1.0000 0.88191  0.88191  0.75000  Biso   1.000  C
  C218     1.0000 0.81313  0.81313  0.75000  Biso   1.000  C
  C219     1.0000 0.38191  0.38191  0.25000  Biso   1.000  C
  C220     1.0000 0.31313  0.31313  0.25000  Biso   1.000  C
  C221     1.0000 0.11809  0.11809  0.75000  Biso   1.000  C
  C222     1.0000 0.18687  0.18687  0.75000  Biso   1.000  C
  C223     1.0000 0.61809  0.61809  0.25000  Biso   1.000  C
  C224     1.0000 0.68687  0.68687  0.25000  Biso   1.000  C
  C225     1.0000 0.11809  0.88191  0.75000  Biso   1.000  C
  C226     1.0000 0.18687  0.81313  0.75000  Biso   1.000  C
  C227     1.0000 0.61809  0.38191  0.25000  Biso   1.000  C
  C228     1.0000 0.68687  0.31313  0.25000  Biso   1.000  C
  C229     1.0000 0.88191  0.11809  0.75000  Biso   1.000  C
  C230     1.0000 0.81313  0.18687  0.75000  Biso   1.000  C
  C231     1.0000 0.38191  0.61809  0.25000  Biso   1.000  C
  C232     1.0000 0.31313  0.68687  0.25000  Biso   1.000  C
