data_image0
_cell_length_a       13.0923
_cell_length_b       14.2717
_cell_length_c       14.2197
_cell_angle_alpha    90
_cell_angle_beta     90.308
_cell_angle_gamma    90

_symmetry_space_group_name_H-M    "P 1"
_symmetry_int_tables_number       1

loop_
  _symmetry_equiv_pos_as_xyz
  'x, y, z'

loop_
  _atom_site_label
  _atom_site_occupancy
  _atom_site_fract_x
  _atom_site_fract_y
  _atom_site_fract_z
  _atom_site_thermal_displace_type
  _atom_site_B_iso_or_equiv
  _atom_site_type_symbol
  Zn1      1.0000 0.75723  0.53094  0.66994  Biso   1.000  Zn
  Zn2      1.0000 0.54230  0.02430  0.16801  Biso   1.000  Zn
  Zn3      1.0000 0.58391  0.98582  0.92037  Biso   1.000  Zn
  Zn4      1.0000 0.66793  0.62427  0.07923  Biso   1.000  Zn
  Zn5      1.0000 0.64804  0.87753  0.51074  Biso   1.000  Zn
  Zn6      1.0000 0.47820  0.48421  0.52262  Biso   1.000  Zn
  Zn7      1.0000 0.66739  0.13159  0.53930  Biso   1.000  Zn
  Zn8      1.0000 0.80757  0.49608  0.42315  Biso   1.000  Zn
  Zn9      1.0000 0.86295  0.98799  0.07041  Biso   1.000  Zn
  Zn10     1.0000 0.69539  0.37248  0.04693  Biso   1.000  Zn
  Zn11     1.0000 0.87080  0.95620  0.30190  Biso   1.000  Zn
  Zn12     1.0000 0.62450  0.57150  0.29280  Biso   1.000  Zn
  Zn13     1.0000 0.70970  0.91620  0.29870  Biso   1.000  Zn
  Zn14     1.0000 0.48170  0.50400  0.29050  Biso   1.000  Zn
  P1       1.0000 0.86030  0.99750  0.51190  Biso   1.000  P
  P2       1.0000 0.69230  0.14210  0.04650  Biso   1.000  P
  P3       1.0000 0.98200  0.52360  0.57520  Biso   1.000  P
  P4       1.0000 0.67170  0.36020  0.54820  Biso   1.000  P
  P5       1.0000 0.64960  0.64520  0.50260  Biso   1.000  P
  P6       1.0000 0.66890  0.85560  0.08850  Biso   1.000  P
  P7       1.0000 0.82350  0.49880  0.19320  Biso   1.000  P
  P8       1.0000 0.77120  0.53120  0.90230  Biso   1.000  P
  P9       1.0000 0.52090  0.02750  0.39720  Biso   1.000  P
  P10      1.0000 0.56700  0.98420  0.68690  Biso   1.000  P
  O1       1.0000 0.90340  0.53070  0.65270  Biso   1.000  O
  O2       1.0000 0.67840  0.42320  0.63470  Biso   1.000  O
  O3       1.0000 0.73700  0.55280  0.80270  Biso   1.000  O
  O4       1.0000 0.71450  0.63640  0.59010  Biso   1.000  O
  O5       1.0000 0.63060  0.91800  0.16980  Biso   1.000  O
  O6       1.0000 0.59820  0.13860  0.11050  Biso   1.000  O
  O7       1.0000 0.49240  0.04560  0.29340  Biso   1.000  O
  O8       1.0000 0.91450  0.00640  0.60380  Biso   1.000  O
  O9       1.0000 0.61060  0.87700  0.99740  Biso   1.000  O
  O10      1.0000 0.67550  0.08720  0.95280  Biso   1.000  O
  O11      1.0000 0.93730  0.98540  0.43060  Biso   1.000  O
  O12      1.0000 0.59710  0.95800  0.78820  Biso   1.000  O
  O13      1.0000 0.73720  0.61200  0.96550  Biso   1.000  O
  O14      1.0000 0.64520  0.75290  0.11570  Biso   1.000  O
  O15      1.0000 0.03250  0.42660  0.57890  Biso   1.000  O
  O16      1.0000 0.73200  0.56920  0.19160  Biso   1.000  O
  O17      1.0000 0.59940  0.94720  0.40120  Biso   1.000  O
  O18      1.0000 0.79270  0.91110  0.50990  Biso   1.000  O
  O19      1.0000 0.57170  0.89820  0.62420  Biso   1.000  O
  O20      1.0000 0.64510  0.74820  0.47020  Biso   1.000  O
  O21      1.0000 0.56750  0.37760  0.49690  Biso   1.000  O
  O22      1.0000 0.91520  0.54050  0.14440  Biso   1.000  O
  O23      1.0000 0.54130  0.60900  0.51850  Biso   1.000  O
  O24      1.0000 0.89040  0.52360  0.90860  Biso   1.000  O
  O25      1.0000 0.68030  0.25780  0.57860  Biso   1.000  O
  O26      1.0000 0.79930  0.08780  0.49230  Biso   1.000  O
  O27      1.0000 0.64250  0.05930  0.65400  Biso   1.000  O
  O28      1.0000 0.56640  0.11770  0.44040  Biso   1.000  O
  O29      1.0000 0.93140  0.54030  0.47830  Biso   1.000  O
  O30      1.0000 0.76260  0.37990  0.48210  Biso   1.000  O
  O31      1.0000 0.69740  0.58920  0.41900  Biso   1.000  O
  O32      1.0000 0.85270  0.47930  0.29450  Biso   1.000  O
  O33      1.0000 0.78280  0.10000  0.10040  Biso   1.000  O
  O34      1.0000 0.42470  0.99940  0.45010  Biso   1.000  O
  O35      1.0000 0.78520  0.86910  0.07640  Biso   1.000  O
  O36      1.0000 0.45730  0.01990  0.68390  Biso   1.000  O
  O37      1.0000 0.72190  0.43920  0.93180  Biso   1.000  O
  O38      1.0000 0.05920  0.60180  0.59370  Biso   1.000  O
  O39      1.0000 0.78980  0.40730  0.14720  Biso   1.000  O
  O40      1.0000 0.71830  0.24220  0.02170  Biso   1.000  O
  O41      1.0000 0.76640  0.04550  0.28960  Biso   1.000  O
  O42      1.0000 0.57980  0.43430  0.29680  Biso   1.000  O
  C1       1.0000 0.37050  0.76220  0.32740  Biso   1.000  C
  C2       1.0000 0.42160  0.68190  0.28630  Biso   1.000  C
  N1       1.0000 0.05360  0.59590  0.30430  Biso   1.000  N
  N2       1.0000 0.30330  0.92620  0.28630  Biso   1.000  N
  C3       1.0000 0.07660  0.69340  0.30620  Biso   1.000  C
  C4       1.0000 0.89160  0.75210  0.33620  Biso   1.000  C
  C5       1.0000 0.93450  0.74810  0.26110  Biso   1.000  C
  C6       1.0000 0.98750  0.74640  0.34110  Biso   1.000  C
  C7       1.0000 0.34840  0.82240  0.26060  Biso   1.000  C
  N3       1.0000 0.81460  0.81700  0.29720  Biso   1.000  N
  N4       1.0000 0.54410  0.69360  0.28280  Biso   1.000  N
  N5       1.0000 0.49880  0.65640  0.29050  Biso   1.000  N
  Zn15     1.0000 0.25723  0.46906  0.16994  Biso   1.000  Zn
  Zn16     1.0000 0.04230  0.97570  0.66801  Biso   1.000  Zn
  Zn17     1.0000 0.08391  0.01418  0.42037  Biso   1.000  Zn
  Zn18     1.0000 0.16793  0.37573  0.57923  Biso   1.000  Zn
  Zn19     1.0000 0.14804  0.12247  0.01074  Biso   1.000  Zn
  Zn20     1.0000 0.97820  0.51579  0.02262  Biso   1.000  Zn
  Zn21     1.0000 0.16739  0.86841  0.03930  Biso   1.000  Zn
  Zn22     1.0000 0.30757  0.50392  0.92315  Biso   1.000  Zn
  Zn23     1.0000 0.36295  0.01201  0.57041  Biso   1.000  Zn
  Zn24     1.0000 0.19539  0.62752  0.54693  Biso   1.000  Zn
  Zn25     1.0000 0.37080  0.04380  0.80190  Biso   1.000  Zn
  Zn26     1.0000 0.12450  0.42850  0.79280  Biso   1.000  Zn
  Zn27     1.0000 0.20970  0.08380  0.79870  Biso   1.000  Zn
  Zn28     1.0000 0.98170  0.49600  0.79050  Biso   1.000  Zn
  P11      1.0000 0.36030  0.00250  0.01190  Biso   1.000  P
  P12      1.0000 0.19230  0.85790  0.54650  Biso   1.000  P
  P13      1.0000 0.48200  0.47640  0.07520  Biso   1.000  P
  P14      1.0000 0.17170  0.63980  0.04820  Biso   1.000  P
  P15      1.0000 0.14960  0.35480  0.00260  Biso   1.000  P
  P16      1.0000 0.16890  0.14440  0.58850  Biso   1.000  P
  P17      1.0000 0.32350  0.50120  0.69320  Biso   1.000  P
  P18      1.0000 0.27120  0.46880  0.40230  Biso   1.000  P
  P19      1.0000 0.02090  0.97250  0.89720  Biso   1.000  P
  P20      1.0000 0.06700  0.01580  0.18690  Biso   1.000  P
  O43      1.0000 0.40340  0.46930  0.15270  Biso   1.000  O
  O44      1.0000 0.17840  0.57680  0.13470  Biso   1.000  O
  O45      1.0000 0.23700  0.44720  0.30270  Biso   1.000  O
  O46      1.0000 0.21450  0.36360  0.09010  Biso   1.000  O
  O47      1.0000 0.13060  0.08200  0.66980  Biso   1.000  O
  O48      1.0000 0.09820  0.86140  0.61050  Biso   1.000  O
  O49      1.0000 0.99240  0.95440  0.79340  Biso   1.000  O
  O50      1.0000 0.41450  0.99360  0.10380  Biso   1.000  O
  O51      1.0000 0.11060  0.12300  0.49740  Biso   1.000  O
  O52      1.0000 0.17550  0.91280  0.45280  Biso   1.000  O
  O53      1.0000 0.43730  0.01460  0.93060  Biso   1.000  O
  O54      1.0000 0.09710  0.04200  0.28820  Biso   1.000  O
  O55      1.0000 0.23720  0.38800  0.46550  Biso   1.000  O
  O56      1.0000 0.14520  0.24710  0.61570  Biso   1.000  O
  O57      1.0000 0.53250  0.57340  0.07890  Biso   1.000  O
  O58      1.0000 0.23200  0.43080  0.69160  Biso   1.000  O
  O59      1.0000 0.09940  0.05280  0.90120  Biso   1.000  O
  O60      1.0000 0.29270  0.08890  0.00990  Biso   1.000  O
  O61      1.0000 0.07170  0.10180  0.12420  Biso   1.000  O
  O62      1.0000 0.14510  0.25180  0.97020  Biso   1.000  O
  O63      1.0000 0.06750  0.62240  0.99690  Biso   1.000  O
  O64      1.0000 0.41520  0.45950  0.64440  Biso   1.000  O
  O65      1.0000 0.04130  0.39100  0.01850  Biso   1.000  O
  O66      1.0000 0.39040  0.47640  0.40860  Biso   1.000  O
  O67      1.0000 0.18030  0.74220  0.07860  Biso   1.000  O
  O68      1.0000 0.29930  0.91220  0.99230  Biso   1.000  O
  O69      1.0000 0.14250  0.94070  0.15400  Biso   1.000  O
  O70      1.0000 0.06640  0.88230  0.94040  Biso   1.000  O
  O71      1.0000 0.43140  0.45970  0.97830  Biso   1.000  O
  O72      1.0000 0.26260  0.62010  0.98210  Biso   1.000  O
  O73      1.0000 0.19740  0.41080  0.91900  Biso   1.000  O
  O74      1.0000 0.35270  0.52070  0.79450  Biso   1.000  O
  O75      1.0000 0.28280  0.90000  0.60040  Biso   1.000  O
  O76      1.0000 0.92470  0.00060  0.95010  Biso   1.000  O
  O77      1.0000 0.28520  0.13090  0.57640  Biso   1.000  O
  O78      1.0000 0.95730  0.98010  0.18390  Biso   1.000  O
  O79      1.0000 0.22190  0.56080  0.43180  Biso   1.000  O
  O80      1.0000 0.55920  0.39820  0.09370  Biso   1.000  O
  O81      1.0000 0.28980  0.59270  0.64720  Biso   1.000  O
  O82      1.0000 0.21830  0.75780  0.52170  Biso   1.000  O
  O83      1.0000 0.26640  0.95450  0.78960  Biso   1.000  O
  O84      1.0000 0.07980  0.56570  0.79680  Biso   1.000  O
  C8       1.0000 0.87050  0.23780  0.82740  Biso   1.000  C
  C9       1.0000 0.92160  0.31810  0.78630  Biso   1.000  C
  N6       1.0000 0.55360  0.40410  0.80430  Biso   1.000  N
  N7       1.0000 0.80330  0.07380  0.78630  Biso   1.000  N
  C10      1.0000 0.57660  0.30660  0.80620  Biso   1.000  C
  C11      1.0000 0.39160  0.24790  0.83620  Biso   1.000  C
  C12      1.0000 0.43450  0.25190  0.76110  Biso   1.000  C
  C13      1.0000 0.48750  0.25360  0.84110  Biso   1.000  C
  C14      1.0000 0.84840  0.17760  0.76060  Biso   1.000  C
  N8       1.0000 0.31460  0.18300  0.79720  Biso   1.000  N
  N9       1.0000 0.04410  0.30640  0.78280  Biso   1.000  N
  N10      1.0000 0.99880  0.34360  0.79050  Biso   1.000  N
