data_image0
_cell_length_a       7.307
_cell_length_b       24.96
_cell_length_c       7.27
_cell_angle_alpha    90
_cell_angle_beta     90
_cell_angle_gamma    90

_symmetry_space_group_name_H-M    "P 1"
_symmetry_int_tables_number       1

loop_
  _symmetry_equiv_pos_as_xyz
  'x, y, z'

loop_
  _atom_site_label
  _atom_site_occupancy
  _atom_site_fract_x
  _atom_site_fract_y
  _atom_site_fract_z
  _atom_site_thermal_displace_type
  _atom_site_B_iso_or_equiv
  _atom_site_type_symbol
  Zn1      1.0000 0.94633  0.78031  0.87380  Biso   1.000  Zn
  O1       1.0000 0.10470  0.74100  0.07060  Biso   1.000  O
  O2       1.0000 0.30840  0.67960  0.16120  Biso   1.000  O
  O3       1.0000 0.10800  0.73950  0.67790  Biso   1.000  O
  O4       1.0000 0.31450  0.67960  0.59150  Biso   1.000  O
  C1       1.0000 0.19740  0.69790  0.04980  Biso   1.000  C
  C2       1.0000 0.16050  0.66512  0.87240  Biso   1.000  C
  H1       1.0000 0.24060  0.63310  0.87150  Biso   1.000  H
  H2       1.0000 0.03190  0.65270  0.87270  Biso   1.000  H
  C3       1.0000 0.19430  0.69690  0.70380  Biso   1.000  C
  C4       1.0000 0.44460  0.87905  0.86950  Biso   1.000  C
  C5       1.0000 0.32130  0.83709  0.89080  Biso   1.000  C
  H3       1.0000 0.36380  0.80270  0.92680  Biso   1.000  H
  N1       1.0000 0.13590  0.84547  0.85930  Biso   1.000  N
  C6       1.0000 0.07370  0.89581  0.80660  Biso   1.000  C
  C7       1.0000 0.19700  0.93777  0.78530  Biso   1.000  C
  C8       1.0000 0.38240  0.92939  0.81680  Biso   1.000  C
  C9       1.0000 0.51800  0.97450  0.80000  Biso   1.000  C
  C10      1.0000 0.08020  0.89525  0.92350  Biso   1.000  C
  C11      1.0000 0.19750  0.93910  0.92600  Biso   1.000  C
  C12      1.0000 0.38510  0.93060  0.91200  Biso   1.000  C
  C13      1.0000 0.52150  0.97350  0.91100  Biso   1.000  C
  Zn2      1.0000 0.05367  0.21969  0.87380  Biso   1.000  Zn
  O5       1.0000 0.89530  0.25900  0.07060  Biso   1.000  O
  O6       1.0000 0.69160  0.32040  0.16120  Biso   1.000  O
  O7       1.0000 0.89200  0.26050  0.67790  Biso   1.000  O
  O8       1.0000 0.68550  0.32040  0.59150  Biso   1.000  O
  C14      1.0000 0.80260  0.30210  0.04980  Biso   1.000  C
  C15      1.0000 0.83950  0.33488  0.87240  Biso   1.000  C
  H4       1.0000 0.75940  0.36690  0.87150  Biso   1.000  H
  H5       1.0000 0.96810  0.34730  0.87270  Biso   1.000  H
  C16      1.0000 0.80570  0.30310  0.70380  Biso   1.000  C
  C17      1.0000 0.55540  0.12095  0.86950  Biso   1.000  C
  C18      1.0000 0.67870  0.16291  0.89080  Biso   1.000  C
  H6       1.0000 0.63620  0.19730  0.92680  Biso   1.000  H
  N2       1.0000 0.86410  0.15453  0.85930  Biso   1.000  N
  C19      1.0000 0.92630  0.10419  0.80660  Biso   1.000  C
  C20      1.0000 0.80300  0.06223  0.78530  Biso   1.000  C
  C21      1.0000 0.61760  0.07061  0.81680  Biso   1.000  C
  C22      1.0000 0.48200  0.02550  0.80000  Biso   1.000  C
  C23      1.0000 0.91980  0.10475  0.92350  Biso   1.000  C
  C24      1.0000 0.80250  0.06090  0.92600  Biso   1.000  C
  C25      1.0000 0.61490  0.06940  0.91200  Biso   1.000  C
  C26      1.0000 0.47850  0.02650  0.91100  Biso   1.000  C
  Zn3      1.0000 0.44633  0.71969  0.37380  Biso   1.000  Zn
  O9       1.0000 0.60470  0.75900  0.57060  Biso   1.000  O
  O10      1.0000 0.80840  0.82040  0.66120  Biso   1.000  O
  O11      1.0000 0.60800  0.76050  0.17790  Biso   1.000  O
  O12      1.0000 0.81450  0.82040  0.09150  Biso   1.000  O
  C27      1.0000 0.69740  0.80210  0.54980  Biso   1.000  C
  C28      1.0000 0.66050  0.83488  0.37240  Biso   1.000  C
  H7       1.0000 0.74060  0.86690  0.37150  Biso   1.000  H
  H8       1.0000 0.53190  0.84730  0.37270  Biso   1.000  H
  C29      1.0000 0.69430  0.80310  0.20380  Biso   1.000  C
  C30      1.0000 0.94460  0.62095  0.36950  Biso   1.000  C
  C31      1.0000 0.82130  0.66291  0.39080  Biso   1.000  C
  H9       1.0000 0.86380  0.69730  0.42680  Biso   1.000  H
  N3       1.0000 0.63590  0.65453  0.35930  Biso   1.000  N
  C32      1.0000 0.57370  0.60419  0.30660  Biso   1.000  C
  C33      1.0000 0.69700  0.56223  0.28530  Biso   1.000  C
  C34      1.0000 0.88240  0.57061  0.31680  Biso   1.000  C
  C35      1.0000 0.01800  0.52550  0.30000  Biso   1.000  C
  C36      1.0000 0.58020  0.60475  0.42350  Biso   1.000  C
  C37      1.0000 0.69750  0.56090  0.42600  Biso   1.000  C
  C38      1.0000 0.88510  0.56940  0.41200  Biso   1.000  C
  C39      1.0000 0.02150  0.52650  0.41100  Biso   1.000  C
  Zn4      1.0000 0.55367  0.28031  0.37380  Biso   1.000  Zn
  O13      1.0000 0.39530  0.24100  0.57060  Biso   1.000  O
  O14      1.0000 0.19160  0.17960  0.66120  Biso   1.000  O
  O15      1.0000 0.39200  0.23950  0.17790  Biso   1.000  O
  O16      1.0000 0.18550  0.17960  0.09150  Biso   1.000  O
  C40      1.0000 0.30260  0.19790  0.54980  Biso   1.000  C
  C41      1.0000 0.33950  0.16512  0.37240  Biso   1.000  C
  H10      1.0000 0.25940  0.13310  0.37150  Biso   1.000  H
  H11      1.0000 0.46810  0.15270  0.37270  Biso   1.000  H
  C42      1.0000 0.30570  0.19690  0.20380  Biso   1.000  C
  C43      1.0000 0.05540  0.37905  0.36950  Biso   1.000  C
  C44      1.0000 0.17870  0.33709  0.39080  Biso   1.000  C
  H12      1.0000 0.13620  0.30270  0.42680  Biso   1.000  H
  N4       1.0000 0.36410  0.34547  0.35930  Biso   1.000  N
  C45      1.0000 0.42630  0.39581  0.30660  Biso   1.000  C
  C46      1.0000 0.30300  0.43777  0.28530  Biso   1.000  C
  C47      1.0000 0.11760  0.42939  0.31680  Biso   1.000  C
  C48      1.0000 0.98200  0.47450  0.30000  Biso   1.000  C
  C49      1.0000 0.41980  0.39525  0.42350  Biso   1.000  C
  C50      1.0000 0.30250  0.43910  0.42600  Biso   1.000  C
  C51      1.0000 0.11490  0.43060  0.41200  Biso   1.000  C
  C52      1.0000 0.97850  0.47350  0.41100  Biso   1.000  C
