data_image0
_cell_length_a       7.3888
_cell_length_b       7.3888
_cell_length_c       22.1438
_cell_angle_alpha    90
_cell_angle_beta     90
_cell_angle_gamma    90

_symmetry_space_group_name_H-M    "P 1"
_symmetry_int_tables_number       1

loop_
  _symmetry_equiv_pos_as_xyz
  'x, y, z'

loop_
  _atom_site_label
  _atom_site_occupancy
  _atom_site_fract_x
  _atom_site_fract_y
  _atom_site_fract_z
  _atom_site_thermal_displace_type
  _atom_site_B_iso_or_equiv
  _atom_site_type_symbol
  F1       1.0000 0.81150  0.93410  0.94124  Biso   1.000  F
  C1       1.0000 0.65300  0.96260  0.96889  Biso   1.000  C
  F2       1.0000 0.18850  0.06590  0.94124  Biso   1.000  F
  C2       1.0000 0.34700  0.03740  0.96889  Biso   1.000  C
  F3       1.0000 0.06590  0.81150  0.44124  Biso   1.000  F
  C3       1.0000 0.03740  0.65300  0.46889  Biso   1.000  C
  F4       1.0000 0.93410  0.18850  0.44124  Biso   1.000  F
  C4       1.0000 0.96260  0.34700  0.46889  Biso   1.000  C
  F5       1.0000 0.18850  0.93410  0.05876  Biso   1.000  F
  C5       1.0000 0.34700  0.96260  0.03111  Biso   1.000  C
  F6       1.0000 0.81150  0.06590  0.05876  Biso   1.000  F
  C6       1.0000 0.65300  0.03740  0.03111  Biso   1.000  C
  F7       1.0000 0.93410  0.81150  0.55876  Biso   1.000  F
  C7       1.0000 0.96260  0.65300  0.53111  Biso   1.000  C
  F8       1.0000 0.06590  0.18850  0.55876  Biso   1.000  F
  C8       1.0000 0.03740  0.34700  0.53111  Biso   1.000  C
  F9       1.0000 0.18850  0.06590  0.05876  Biso   1.000  F
  C9       1.0000 0.34700  0.03740  0.03111  Biso   1.000  C
  F10      1.0000 0.81150  0.93410  0.05876  Biso   1.000  F
  C10      1.0000 0.65300  0.96260  0.03111  Biso   1.000  C
  F11      1.0000 0.93410  0.18850  0.55876  Biso   1.000  F
  C11      1.0000 0.96260  0.34700  0.53111  Biso   1.000  C
  F12      1.0000 0.06590  0.81150  0.55876  Biso   1.000  F
  C12      1.0000 0.03740  0.65300  0.53111  Biso   1.000  C
  F13      1.0000 0.81150  0.06590  0.94124  Biso   1.000  F
  C13      1.0000 0.65300  0.03740  0.96889  Biso   1.000  C
  F14      1.0000 0.18850  0.93410  0.94124  Biso   1.000  F
  C14      1.0000 0.34700  0.96260  0.96889  Biso   1.000  C
  F15      1.0000 0.06590  0.18850  0.44124  Biso   1.000  F
  C15      1.0000 0.03740  0.34700  0.46889  Biso   1.000  C
  F16      1.0000 0.93410  0.81150  0.44124  Biso   1.000  F
  C16      1.0000 0.96260  0.65300  0.46889  Biso   1.000  C
  Cu1      1.0000 0.00000  0.00000  0.75000  Biso   1.000  Cu
  Cu2      1.0000 0.00000  0.00000  0.25000  Biso   1.000  Cu
  N1       1.0000 0.78400  0.00000  0.80295  Biso   1.000  N
  C17      1.0000 0.65880  0.00000  0.83381  Biso   1.000  C
  N2       1.0000 0.21600  0.00000  0.80295  Biso   1.000  N
  C18      1.0000 0.34120  0.00000  0.83381  Biso   1.000  C
  N3       1.0000 0.00000  0.78400  0.30295  Biso   1.000  N
  C19      1.0000 0.00000  0.65880  0.33381  Biso   1.000  C
  N4       1.0000 0.00000  0.21600  0.30295  Biso   1.000  N
  C20      1.0000 0.00000  0.34120  0.33381  Biso   1.000  C
  N5       1.0000 0.21600  0.00000  0.19705  Biso   1.000  N
  C21      1.0000 0.34120  0.00000  0.16619  Biso   1.000  C
  N6       1.0000 0.78400  0.00000  0.19705  Biso   1.000  N
  C22      1.0000 0.65880  0.00000  0.16619  Biso   1.000  C
  N7       1.0000 0.00000  0.78400  0.69705  Biso   1.000  N
  C23      1.0000 0.00000  0.65880  0.66619  Biso   1.000  C
  N8       1.0000 0.00000  0.21600  0.69705  Biso   1.000  N
  C24      1.0000 0.00000  0.34120  0.66619  Biso   1.000  C
  C25      1.0000 0.50000  0.00000  0.86800  Biso   1.000  C
  C26      1.0000 0.50000  0.00000  0.93450  Biso   1.000  C
  C27      1.0000 0.00000  0.50000  0.36800  Biso   1.000  C
  C28      1.0000 0.00000  0.50000  0.43450  Biso   1.000  C
  C29      1.0000 0.50000  0.00000  0.13200  Biso   1.000  C
  C30      1.0000 0.50000  0.00000  0.06550  Biso   1.000  C
  C31      1.0000 0.00000  0.50000  0.63200  Biso   1.000  C
  C32      1.0000 0.00000  0.50000  0.56550  Biso   1.000  C
