data_image0
_cell_length_a       10.9619
_cell_length_b       16.0098
_cell_length_c       23.383
_cell_angle_alpha    90
_cell_angle_beta     90
_cell_angle_gamma    90

_symmetry_space_group_name_H-M    "P 1"
_symmetry_int_tables_number       1

loop_
  _symmetry_equiv_pos_as_xyz
  'x, y, z'

loop_
  _atom_site_label
  _atom_site_occupancy
  _atom_site_fract_x
  _atom_site_fract_y
  _atom_site_fract_z
  _atom_site_thermal_displace_type
  _atom_site_B_iso_or_equiv
  _atom_site_type_symbol
  O1       1.0000 0.87300  0.91100  0.04680  Biso   1.000  O
  C1       1.0000 0.65960  0.69640  0.95000  Biso   1.000  C
  H1       1.0000 0.63310  0.67260  0.91500  Biso   1.000  H
  C2       1.0000 0.72870  0.77130  0.94940  Biso   1.000  C
  H2       1.0000 0.75050  0.79670  0.91410  Biso   1.000  H
  C3       1.0000 0.41900  0.92500  0.35300  Biso   1.000  C
  H3       1.0000 0.43330  0.88970  0.31880  Biso   1.000  H
  H4       1.0000 0.42750  0.89690  0.38940  Biso   1.000  H
  H5       1.0000 0.33500  0.94050  0.34560  Biso   1.000  H
  H6       1.0000 0.62610  0.04460  0.29340  Biso   1.000  H
  H7       1.0000 0.50750  0.00700  0.26290  Biso   1.000  H
  H8       1.0000 0.60800  0.94560  0.28940  Biso   1.000  H
  H9       1.0000 0.43610  0.89270  0.38720  Biso   1.000  H
  H10      1.0000 0.33310  0.94270  0.35290  Biso   1.000  H
  H11      1.0000 0.44540  0.88500  0.32190  Biso   1.000  H
  O2       1.0000 0.12700  0.08900  0.04680  Biso   1.000  O
  C4       1.0000 0.34040  0.30360  0.95000  Biso   1.000  C
  H12      1.0000 0.36690  0.32740  0.91500  Biso   1.000  H
  C5       1.0000 0.27130  0.22870  0.94940  Biso   1.000  C
  H13      1.0000 0.24950  0.20330  0.91410  Biso   1.000  H
  C6       1.0000 0.58100  0.07500  0.35300  Biso   1.000  C
  H14      1.0000 0.56670  0.11030  0.31880  Biso   1.000  H
  H15      1.0000 0.57250  0.10310  0.38940  Biso   1.000  H
  H16      1.0000 0.66500  0.05950  0.34560  Biso   1.000  H
  H17      1.0000 0.37390  0.95540  0.29340  Biso   1.000  H
  H18      1.0000 0.49250  0.99300  0.26290  Biso   1.000  H
  H19      1.0000 0.39200  0.05440  0.28940  Biso   1.000  H
  H20      1.0000 0.56390  0.10730  0.38720  Biso   1.000  H
  H21      1.0000 0.66690  0.05730  0.35290  Biso   1.000  H
  H22      1.0000 0.55460  0.11500  0.32190  Biso   1.000  H
  O3       1.0000 0.12700  0.91100  0.95320  Biso   1.000  O
  C7       1.0000 0.34040  0.69640  0.05000  Biso   1.000  C
  H23      1.0000 0.36690  0.67260  0.08500  Biso   1.000  H
  C8       1.0000 0.27130  0.77130  0.05060  Biso   1.000  C
  H24      1.0000 0.24950  0.79670  0.08590  Biso   1.000  H
  C9       1.0000 0.58100  0.92500  0.64700  Biso   1.000  C
  H25      1.0000 0.56670  0.88970  0.68120  Biso   1.000  H
  H26      1.0000 0.57250  0.89690  0.61060  Biso   1.000  H
  H27      1.0000 0.66500  0.94050  0.65440  Biso   1.000  H
  H28      1.0000 0.37390  0.04460  0.70660  Biso   1.000  H
  H29      1.0000 0.49250  0.00700  0.73710  Biso   1.000  H
  H30      1.0000 0.39200  0.94560  0.71060  Biso   1.000  H
  H31      1.0000 0.56390  0.89270  0.61280  Biso   1.000  H
  H32      1.0000 0.66690  0.94270  0.64710  Biso   1.000  H
  H33      1.0000 0.55460  0.88500  0.67810  Biso   1.000  H
  O4       1.0000 0.87300  0.08900  0.95320  Biso   1.000  O
  C10      1.0000 0.65960  0.30360  0.05000  Biso   1.000  C
  H34      1.0000 0.63310  0.32740  0.08500  Biso   1.000  H
  C11      1.0000 0.72870  0.22870  0.05060  Biso   1.000  C
  H35      1.0000 0.75050  0.20330  0.08590  Biso   1.000  H
  C12      1.0000 0.41900  0.07500  0.64700  Biso   1.000  C
  H36      1.0000 0.43330  0.11030  0.68120  Biso   1.000  H
  H37      1.0000 0.42750  0.10310  0.61060  Biso   1.000  H
  H38      1.0000 0.33500  0.05950  0.65440  Biso   1.000  H
  H39      1.0000 0.62610  0.95540  0.70660  Biso   1.000  H
  H40      1.0000 0.50750  0.99300  0.73710  Biso   1.000  H
  H41      1.0000 0.60800  0.05440  0.71060  Biso   1.000  H
  H42      1.0000 0.43610  0.10730  0.61280  Biso   1.000  H
  H43      1.0000 0.33310  0.05730  0.64710  Biso   1.000  H
  H44      1.0000 0.44540  0.11500  0.67810  Biso   1.000  H
  O5       1.0000 0.12700  0.08900  0.95320  Biso   1.000  O
  C13      1.0000 0.34040  0.30360  0.05000  Biso   1.000  C
  H45      1.0000 0.36690  0.32740  0.08500  Biso   1.000  H
  C14      1.0000 0.27130  0.22870  0.05060  Biso   1.000  C
  H46      1.0000 0.24950  0.20330  0.08590  Biso   1.000  H
  C15      1.0000 0.58100  0.07500  0.64700  Biso   1.000  C
  H47      1.0000 0.56670  0.11030  0.68120  Biso   1.000  H
  H48      1.0000 0.57250  0.10310  0.61060  Biso   1.000  H
  H49      1.0000 0.66500  0.05950  0.65440  Biso   1.000  H
  H50      1.0000 0.37390  0.95540  0.70660  Biso   1.000  H
  H51      1.0000 0.49250  0.99300  0.73710  Biso   1.000  H
  H52      1.0000 0.39200  0.05440  0.71060  Biso   1.000  H
  H53      1.0000 0.56390  0.10730  0.61280  Biso   1.000  H
  H54      1.0000 0.66690  0.05730  0.64710  Biso   1.000  H
  H55      1.0000 0.55460  0.11500  0.67810  Biso   1.000  H
  O6       1.0000 0.87300  0.91100  0.95320  Biso   1.000  O
  C16      1.0000 0.65960  0.69640  0.05000  Biso   1.000  C
  H56      1.0000 0.63310  0.67260  0.08500  Biso   1.000  H
  C17      1.0000 0.72870  0.77130  0.05060  Biso   1.000  C
  H57      1.0000 0.75050  0.79670  0.08590  Biso   1.000  H
  C18      1.0000 0.41900  0.92500  0.64700  Biso   1.000  C
  H58      1.0000 0.43330  0.88970  0.68120  Biso   1.000  H
  H59      1.0000 0.42750  0.89690  0.61060  Biso   1.000  H
  H60      1.0000 0.33500  0.94050  0.65440  Biso   1.000  H
  H61      1.0000 0.62610  0.04460  0.70660  Biso   1.000  H
  H62      1.0000 0.50750  0.00700  0.73710  Biso   1.000  H
  H63      1.0000 0.60800  0.94560  0.71060  Biso   1.000  H
  H64      1.0000 0.43610  0.89270  0.61280  Biso   1.000  H
  H65      1.0000 0.33310  0.94270  0.64710  Biso   1.000  H
  H66      1.0000 0.44540  0.88500  0.67810  Biso   1.000  H
  O7       1.0000 0.87300  0.08900  0.04680  Biso   1.000  O
  C19      1.0000 0.65960  0.30360  0.95000  Biso   1.000  C
  H67      1.0000 0.63310  0.32740  0.91500  Biso   1.000  H
  C20      1.0000 0.72870  0.22870  0.94940  Biso   1.000  C
  H68      1.0000 0.75050  0.20330  0.91410  Biso   1.000  H
  C21      1.0000 0.41900  0.07500  0.35300  Biso   1.000  C
  H69      1.0000 0.43330  0.11030  0.31880  Biso   1.000  H
  H70      1.0000 0.42750  0.10310  0.38940  Biso   1.000  H
  H71      1.0000 0.33500  0.05950  0.34560  Biso   1.000  H
  H72      1.0000 0.62610  0.95540  0.29340  Biso   1.000  H
  H73      1.0000 0.50750  0.99300  0.26290  Biso   1.000  H
  H74      1.0000 0.60800  0.05440  0.28940  Biso   1.000  H
  H75      1.0000 0.43610  0.10730  0.38720  Biso   1.000  H
  H76      1.0000 0.33310  0.05730  0.35290  Biso   1.000  H
  H77      1.0000 0.44540  0.11500  0.32190  Biso   1.000  H
  O8       1.0000 0.12700  0.91100  0.04680  Biso   1.000  O
  C22      1.0000 0.34040  0.69640  0.95000  Biso   1.000  C
  H78      1.0000 0.36690  0.67260  0.91500  Biso   1.000  H
  C23      1.0000 0.27130  0.77130  0.94940  Biso   1.000  C
  H79      1.0000 0.24950  0.79670  0.91410  Biso   1.000  H
  C24      1.0000 0.58100  0.92500  0.35300  Biso   1.000  C
  H80      1.0000 0.56670  0.88970  0.31880  Biso   1.000  H
  H81      1.0000 0.57250  0.89690  0.38940  Biso   1.000  H
  H82      1.0000 0.66500  0.94050  0.34560  Biso   1.000  H
  H83      1.0000 0.37390  0.04460  0.29340  Biso   1.000  H
  H84      1.0000 0.49250  0.00700  0.26290  Biso   1.000  H
  H85      1.0000 0.39200  0.94560  0.28940  Biso   1.000  H
  H86      1.0000 0.56390  0.89270  0.38720  Biso   1.000  H
  H87      1.0000 0.66690  0.94270  0.35290  Biso   1.000  H
  H88      1.0000 0.55460  0.88500  0.32190  Biso   1.000  H
  Zn1      1.0000 0.00000  0.00000  0.06283  Biso   1.000  Zn
  N1       1.0000 0.00000  0.00000  0.13930  Biso   1.000  N
  C25      1.0000 0.00000  0.00000  0.27420  Biso   1.000  C
  C26      1.0000 0.00000  0.00000  0.32910  Biso   1.000  C
  C27      1.0000 0.00000  0.00000  0.37780  Biso   1.000  C
  C28      1.0000 0.00000  0.00000  0.43290  Biso   1.000  C
  Zn2      1.0000 0.00000  0.00000  0.93717  Biso   1.000  Zn
  N2       1.0000 0.00000  0.00000  0.86070  Biso   1.000  N
  C29      1.0000 0.00000  0.00000  0.72580  Biso   1.000  C
  C30      1.0000 0.00000  0.00000  0.67090  Biso   1.000  C
  C31      1.0000 0.00000  0.00000  0.62220  Biso   1.000  C
  C32      1.0000 0.00000  0.00000  0.56710  Biso   1.000  C
  Br1      1.0000 0.79771  0.50000  0.00000  Biso   1.000  Br
  C33      1.0000 0.62810  0.50000  0.00000  Biso   1.000  C
  Br2      1.0000 0.20229  0.50000  0.00000  Biso   1.000  Br
  C34      1.0000 0.37190  0.50000  0.00000  Biso   1.000  C
  C35      1.0000 0.63070  0.65830  0.00000  Biso   1.000  C
  C36      1.0000 0.76360  0.80640  0.00000  Biso   1.000  C
  C37      1.0000 0.84560  0.88370  0.00000  Biso   1.000  C
  C38      1.0000 0.56490  0.57660  0.00000  Biso   1.000  C
  C39      1.0000 0.36930  0.34170  0.00000  Biso   1.000  C
  C40      1.0000 0.23640  0.19360  0.00000  Biso   1.000  C
  C41      1.0000 0.15440  0.11630  0.00000  Biso   1.000  C
  C42      1.0000 0.43510  0.42340  0.00000  Biso   1.000  C
  C43      1.0000 0.36930  0.65830  0.00000  Biso   1.000  C
  C44      1.0000 0.23640  0.80640  0.00000  Biso   1.000  C
  C45      1.0000 0.15440  0.88370  0.00000  Biso   1.000  C
  C46      1.0000 0.43510  0.57660  0.00000  Biso   1.000  C
  C47      1.0000 0.63070  0.34170  0.00000  Biso   1.000  C
  C48      1.0000 0.76360  0.19360  0.00000  Biso   1.000  C
  C49      1.0000 0.84560  0.11630  0.00000  Biso   1.000  C
  C50      1.0000 0.56490  0.42340  0.00000  Biso   1.000  C
  C51      1.0000 0.09550  0.00000  0.17770  Biso   1.000  C
  H89      1.0000 0.17400  0.00000  0.16050  Biso   1.000  H
  C52      1.0000 0.09730  0.00000  0.23670  Biso   1.000  C
  H90      1.0000 0.17590  0.00000  0.25380  Biso   1.000  H
  C53      1.0000 0.90290  0.00000  0.47049  Biso   1.000  C
  O9       1.0000 0.78020  0.00000  0.44730  Biso   1.000  O
  C54      1.0000 0.64800  0.00000  0.45190  Biso   1.000  C
  O10      1.0000 0.58620  0.00000  0.39730  Biso   1.000  O
  C55      1.0000 0.56600  0.00000  0.29410  Biso   1.000  C
  C56      1.0000 0.90450  0.00000  0.17770  Biso   1.000  C
  H91      1.0000 0.82600  0.00000  0.16050  Biso   1.000  H
  C57      1.0000 0.90270  0.00000  0.23670  Biso   1.000  C
  H92      1.0000 0.82410  0.00000  0.25380  Biso   1.000  H
  C58      1.0000 0.09710  0.00000  0.47049  Biso   1.000  C
  O11      1.0000 0.21980  0.00000  0.44730  Biso   1.000  O
  C59      1.0000 0.35200  0.00000  0.45190  Biso   1.000  C
  O12      1.0000 0.41380  0.00000  0.39730  Biso   1.000  O
  C60      1.0000 0.43400  0.00000  0.29410  Biso   1.000  C
  C61      1.0000 0.90450  0.00000  0.82230  Biso   1.000  C
  H93      1.0000 0.82600  0.00000  0.83950  Biso   1.000  H
  C62      1.0000 0.90270  0.00000  0.76330  Biso   1.000  C
  H94      1.0000 0.82410  0.00000  0.74620  Biso   1.000  H
  C63      1.0000 0.09710  0.00000  0.52951  Biso   1.000  C
  O13      1.0000 0.21980  0.00000  0.55270  Biso   1.000  O
  C64      1.0000 0.35200  0.00000  0.54810  Biso   1.000  C
  O14      1.0000 0.41380  0.00000  0.60270  Biso   1.000  O
  C65      1.0000 0.43400  0.00000  0.70590  Biso   1.000  C
  C66      1.0000 0.09550  0.00000  0.82230  Biso   1.000  C
  H95      1.0000 0.17400  0.00000  0.83950  Biso   1.000  H
  C67      1.0000 0.09730  0.00000  0.76330  Biso   1.000  C
  H96      1.0000 0.17590  0.00000  0.74620  Biso   1.000  H
  C68      1.0000 0.90290  0.00000  0.52951  Biso   1.000  C
  O15      1.0000 0.78020  0.00000  0.55270  Biso   1.000  O
  C69      1.0000 0.64800  0.00000  0.54810  Biso   1.000  C
  O16      1.0000 0.58620  0.00000  0.60270  Biso   1.000  O
  C70      1.0000 0.56600  0.00000  0.70590  Biso   1.000  C
  O17      1.0000 0.59100  0.00000  0.50000  Biso   1.000  O
  O18      1.0000 0.40900  0.00000  0.50000  Biso   1.000  O
  C71      1.0000 0.50000  0.00000  0.35030  Biso   1.000  C
  C72      1.0000 0.50000  0.00000  0.64970  Biso   1.000  C
