data_image0
_cell_length_a       12.051
_cell_length_b       18.59
_cell_length_c       19.726
_cell_angle_alpha    90
_cell_angle_beta     116.94
_cell_angle_gamma    90

_symmetry_space_group_name_H-M    "P 1"
_symmetry_int_tables_number       1

loop_
  _symmetry_equiv_pos_as_xyz
  'x, y, z'

loop_
  _atom_site_label
  _atom_site_occupancy
  _atom_site_fract_x
  _atom_site_fract_y
  _atom_site_fract_z
  _atom_site_thermal_displace_type
  _atom_site_B_iso_or_equiv
  _atom_site_type_symbol
  Dy1      1.0000 0.17172  0.27473  0.21246  Biso   1.000  Dy
  Dy2      1.0000 0.18254  0.70983  0.22729  Biso   1.000  Dy
  K1       1.0000 0.18103  0.49215  0.21827  Biso   1.000  K
  O1       1.0000 0.52870  0.67320  0.33680  Biso   1.000  O
  O2       1.0000 0.34250  0.62280  0.27060  Biso   1.000  O
  O3       1.0000 0.44130  0.49040  0.29790  Biso   1.000  O
  O4       1.0000 0.33590  0.35840  0.26290  Biso   1.000  O
  O5       1.0000 0.52060  0.30510  0.32340  Biso   1.000  O
  O6       1.0000 0.16110  0.68250  0.02960  Biso   1.000  O
  O7       1.0000 0.15350  0.62650  0.12770  Biso   1.000  O
  O8       1.0000 0.15600  0.49680  0.06910  Biso   1.000  O
  O9       1.0000 0.15000  0.36400  0.11890  Biso   1.000  O
  O10      1.0000 0.16040  0.31340  0.01880  Biso   1.000  O
  O11      1.0000 0.91260  0.67590  0.25980  Biso   1.000  O
  O12      1.0000 0.04810  0.62100  0.23040  Biso   1.000  O
  O13      1.0000 0.89660  0.30780  0.24040  Biso   1.000  O
  O14      1.0000 0.03950  0.36460  0.21780  Biso   1.000  O
  O15      1.0000 0.96200  0.49270  0.23630  Biso   1.000  O
  C1       1.0000 0.45980  0.62090  0.31040  Biso   1.000  C
  C2       1.0000 0.51600  0.54840  0.32720  Biso   1.000  C
  C3       1.0000 0.63410  0.52610  0.37290  Biso   1.000  C
  H1       1.0000 0.70240  0.55540  0.40060  Biso   1.000  H
  C4       1.0000 0.63400  0.45010  0.37050  Biso   1.000  C
  H2       1.0000 0.70190  0.41980  0.39590  Biso   1.000  H
  C5       1.0000 0.51460  0.42990  0.32360  Biso   1.000  C
  C6       1.0000 0.45370  0.35960  0.30220  Biso   1.000  C
  C7       1.0000 0.15320  0.62770  0.06420  Biso   1.000  C
  C8       1.0000 0.15170  0.55680  0.02800  Biso   1.000  C
  C9       1.0000 0.14910  0.53790  0.96280  Biso   1.000  C
  H3       1.0000 0.14930  0.56920  0.92600  Biso   1.000  H
  C10      1.0000 0.14590  0.46210  0.95830  Biso   1.000  C
  H4       1.0000 0.13920  0.43400  0.91760  Biso   1.000  H
  C11      1.0000 0.15450  0.43890  0.02550  Biso   1.000  C
  C12      1.0000 0.15570  0.36590  0.05680  Biso   1.000  C
  C13      1.0000 0.96020  0.62100  0.24650  Biso   1.000  C
  C14      1.0000 0.90730  0.55050  0.25210  Biso   1.000  C
  C15      1.0000 0.81750  0.52980  0.26840  Biso   1.000  C
  H5       1.0000 0.76580  0.55930  0.27970  Biso   1.000  H
  C16      1.0000 0.81550  0.45260  0.26520  Biso   1.000  C
  H6       1.0000 0.76290  0.42230  0.27500  Biso   1.000  H
  C17      1.0000 0.90340  0.43260  0.24580  Biso   1.000  C
  C18      1.0000 0.95030  0.36250  0.23370  Biso   1.000  C
  O16      1.0000 0.27420  0.44080  0.37610  Biso   1.000  O
  O17      1.0000 0.21400  0.29300  0.34400  Biso   1.000  O
  O18      1.0000 0.35200  0.19000  0.46200  Biso   1.000  O
  O19      1.0000 0.35600  0.21600  0.44500  Biso   1.000  O
  O20      1.0000 0.31500  0.41500  0.41500  Biso   1.000  O
  O21      1.0000 0.28700  0.51000  0.38550  Biso   1.000  O
  O22      1.0000 0.47000  0.55300  0.48700  Biso   1.000  O
  C19      1.0000 0.30000  0.27100  0.40500  Biso   1.000  C
  C20      1.0000 0.34400  0.34800  0.43800  Biso   1.000  C
  C21      1.0000 0.46100  0.32700  0.49300  Biso   1.000  C
  H7       1.0000 0.51470  0.28920  0.52300  Biso   1.000  H
  C22      1.0000 0.53100  0.38900  0.51400  Biso   1.000  C
  H8       1.0000 0.60280  0.41290  0.55150  Biso   1.000  H
  C23      1.0000 0.43000  0.43000  0.46300  Biso   1.000  C
  C24      1.0000 0.39100  0.50900  0.44310  Biso   1.000  C
  O23      1.0000 0.21220  0.29360  0.34510  Biso   1.000  O
  Dy3      1.0000 0.82828  0.77473  0.28754  Biso   1.000  Dy
  Dy4      1.0000 0.81746  0.20983  0.27271  Biso   1.000  Dy
  K2       1.0000 0.81897  0.99215  0.28173  Biso   1.000  K
  O24      1.0000 0.47130  0.17320  0.16320  Biso   1.000  O
  O25      1.0000 0.65750  0.12280  0.22940  Biso   1.000  O
  O26      1.0000 0.55870  0.99040  0.20210  Biso   1.000  O
  O27      1.0000 0.66410  0.85840  0.23710  Biso   1.000  O
  O28      1.0000 0.47940  0.80510  0.17660  Biso   1.000  O
  O29      1.0000 0.83890  0.18250  0.47040  Biso   1.000  O
  O30      1.0000 0.84650  0.12650  0.37230  Biso   1.000  O
  O31      1.0000 0.84400  0.99680  0.43090  Biso   1.000  O
  O32      1.0000 0.85000  0.86400  0.38110  Biso   1.000  O
  O33      1.0000 0.83960  0.81340  0.48120  Biso   1.000  O
  O34      1.0000 0.08740  0.17590  0.24020  Biso   1.000  O
  O35      1.0000 0.95190  0.12100  0.26960  Biso   1.000  O
  O36      1.0000 0.10340  0.80780  0.25960  Biso   1.000  O
  O37      1.0000 0.96050  0.86460  0.28220  Biso   1.000  O
  O38      1.0000 0.03800  0.99270  0.26370  Biso   1.000  O
  C25      1.0000 0.54020  0.12090  0.18960  Biso   1.000  C
  C26      1.0000 0.48400  0.04840  0.17280  Biso   1.000  C
  C27      1.0000 0.36590  0.02610  0.12710  Biso   1.000  C
  H9       1.0000 0.29760  0.05540  0.09940  Biso   1.000  H
  C28      1.0000 0.36600  0.95010  0.12950  Biso   1.000  C
  H10      1.0000 0.29810  0.91980  0.10410  Biso   1.000  H
  C29      1.0000 0.48540  0.92990  0.17640  Biso   1.000  C
  C30      1.0000 0.54630  0.85960  0.19780  Biso   1.000  C
  C31      1.0000 0.84680  0.12770  0.43580  Biso   1.000  C
  C32      1.0000 0.84830  0.05680  0.47200  Biso   1.000  C
  C33      1.0000 0.85090  0.03790  0.53720  Biso   1.000  C
  H11      1.0000 0.85070  0.06920  0.57400  Biso   1.000  H
  C34      1.0000 0.85410  0.96210  0.54170  Biso   1.000  C
  H12      1.0000 0.86080  0.93400  0.58240  Biso   1.000  H
  C35      1.0000 0.84550  0.93890  0.47450  Biso   1.000  C
  C36      1.0000 0.84430  0.86590  0.44320  Biso   1.000  C
  C37      1.0000 0.03980  0.12100  0.25350  Biso   1.000  C
  C38      1.0000 0.09270  0.05050  0.24790  Biso   1.000  C
  C39      1.0000 0.18250  0.02980  0.23160  Biso   1.000  C
  H13      1.0000 0.23420  0.05930  0.22030  Biso   1.000  H
  C40      1.0000 0.18450  0.95260  0.23480  Biso   1.000  C
  H14      1.0000 0.23710  0.92230  0.22500  Biso   1.000  H
  C41      1.0000 0.09660  0.93260  0.25420  Biso   1.000  C
  C42      1.0000 0.04970  0.86250  0.26630  Biso   1.000  C
  O39      1.0000 0.72580  0.94080  0.12390  Biso   1.000  O
  O40      1.0000 0.78600  0.79300  0.15600  Biso   1.000  O
  O41      1.0000 0.64800  0.69000  0.03800  Biso   1.000  O
  O42      1.0000 0.64400  0.71600  0.05500  Biso   1.000  O
  O43      1.0000 0.68500  0.91500  0.08500  Biso   1.000  O
  O44      1.0000 0.71300  0.01000  0.11450  Biso   1.000  O
  O45      1.0000 0.53000  0.05300  0.01300  Biso   1.000  O
  C43      1.0000 0.70000  0.77100  0.09500  Biso   1.000  C
  C44      1.0000 0.65600  0.84800  0.06200  Biso   1.000  C
  C45      1.0000 0.53900  0.82700  0.00700  Biso   1.000  C
  H15      1.0000 0.48530  0.78920  0.97700  Biso   1.000  H
  C46      1.0000 0.46900  0.88900  0.98600  Biso   1.000  C
  H16      1.0000 0.39720  0.91290  0.94850  Biso   1.000  H
  C47      1.0000 0.57000  0.93000  0.03700  Biso   1.000  C
  C48      1.0000 0.60900  0.00900  0.05690  Biso   1.000  C
  O46      1.0000 0.78780  0.79360  0.15490  Biso   1.000  O
  Dy5      1.0000 0.82828  0.72528  0.78754  Biso   1.000  Dy
  Dy6      1.0000 0.81746  0.29017  0.77271  Biso   1.000  Dy
  K3       1.0000 0.81897  0.50785  0.78173  Biso   1.000  K
  O47      1.0000 0.47130  0.32680  0.66320  Biso   1.000  O
  O48      1.0000 0.65750  0.37720  0.72940  Biso   1.000  O
  O49      1.0000 0.55870  0.50960  0.70210  Biso   1.000  O
  O50      1.0000 0.66410  0.64160  0.73710  Biso   1.000  O
  O51      1.0000 0.47940  0.69490  0.67660  Biso   1.000  O
  O52      1.0000 0.83890  0.31750  0.97040  Biso   1.000  O
  O53      1.0000 0.84650  0.37350  0.87230  Biso   1.000  O
  O54      1.0000 0.84400  0.50320  0.93090  Biso   1.000  O
  O55      1.0000 0.85000  0.63600  0.88110  Biso   1.000  O
  O56      1.0000 0.83960  0.68660  0.98120  Biso   1.000  O
  O57      1.0000 0.08740  0.32410  0.74020  Biso   1.000  O
  O58      1.0000 0.95190  0.37900  0.76960  Biso   1.000  O
  O59      1.0000 0.10340  0.69220  0.75960  Biso   1.000  O
  O60      1.0000 0.96050  0.63540  0.78220  Biso   1.000  O
  O61      1.0000 0.03800  0.50730  0.76370  Biso   1.000  O
  C49      1.0000 0.54020  0.37910  0.68960  Biso   1.000  C
  C50      1.0000 0.48400  0.45160  0.67280  Biso   1.000  C
  C51      1.0000 0.36590  0.47390  0.62710  Biso   1.000  C
  H17      1.0000 0.29760  0.44460  0.59940  Biso   1.000  H
  C52      1.0000 0.36600  0.54990  0.62950  Biso   1.000  C
  H18      1.0000 0.29810  0.58020  0.60410  Biso   1.000  H
  C53      1.0000 0.48540  0.57010  0.67640  Biso   1.000  C
  C54      1.0000 0.54630  0.64040  0.69780  Biso   1.000  C
  C55      1.0000 0.84680  0.37230  0.93580  Biso   1.000  C
  C56      1.0000 0.84830  0.44320  0.97200  Biso   1.000  C
  C57      1.0000 0.85090  0.46210  0.03720  Biso   1.000  C
  H19      1.0000 0.85070  0.43080  0.07400  Biso   1.000  H
  C58      1.0000 0.85410  0.53790  0.04170  Biso   1.000  C
  H20      1.0000 0.86080  0.56600  0.08240  Biso   1.000  H
  C59      1.0000 0.84550  0.56110  0.97450  Biso   1.000  C
  C60      1.0000 0.84430  0.63410  0.94320  Biso   1.000  C
  C61      1.0000 0.03980  0.37900  0.75350  Biso   1.000  C
  C62      1.0000 0.09270  0.44950  0.74790  Biso   1.000  C
  C63      1.0000 0.18250  0.47020  0.73160  Biso   1.000  C
  H21      1.0000 0.23420  0.44070  0.72030  Biso   1.000  H
  C64      1.0000 0.18450  0.54740  0.73480  Biso   1.000  C
  H22      1.0000 0.23710  0.57770  0.72500  Biso   1.000  H
  C65      1.0000 0.09660  0.56740  0.75420  Biso   1.000  C
  C66      1.0000 0.04970  0.63750  0.76630  Biso   1.000  C
  O62      1.0000 0.72580  0.55920  0.62390  Biso   1.000  O
  O63      1.0000 0.78600  0.70700  0.65600  Biso   1.000  O
  O64      1.0000 0.64800  0.81000  0.53800  Biso   1.000  O
  O65      1.0000 0.64400  0.78400  0.55500  Biso   1.000  O
  O66      1.0000 0.68500  0.58500  0.58500  Biso   1.000  O
  O67      1.0000 0.71300  0.49000  0.61450  Biso   1.000  O
  O68      1.0000 0.53000  0.44700  0.51300  Biso   1.000  O
  C67      1.0000 0.70000  0.72900  0.59500  Biso   1.000  C
  C68      1.0000 0.65600  0.65200  0.56200  Biso   1.000  C
  C69      1.0000 0.53900  0.67300  0.50700  Biso   1.000  C
  H23      1.0000 0.48530  0.71080  0.47700  Biso   1.000  H
  C70      1.0000 0.46900  0.61100  0.48600  Biso   1.000  C
  H24      1.0000 0.39720  0.58710  0.44850  Biso   1.000  H
  C71      1.0000 0.57000  0.57000  0.53700  Biso   1.000  C
  C72      1.0000 0.60900  0.49100  0.55690  Biso   1.000  C
  O69      1.0000 0.78780  0.70640  0.65490  Biso   1.000  O
  Dy7      1.0000 0.17172  0.22528  0.71246  Biso   1.000  Dy
  Dy8      1.0000 0.18254  0.79017  0.72729  Biso   1.000  Dy
  K4       1.0000 0.18103  0.00785  0.71827  Biso   1.000  K
  O70      1.0000 0.52870  0.82680  0.83680  Biso   1.000  O
  O71      1.0000 0.34250  0.87720  0.77060  Biso   1.000  O
  O72      1.0000 0.44130  0.00960  0.79790  Biso   1.000  O
  O73      1.0000 0.33590  0.14160  0.76290  Biso   1.000  O
  O74      1.0000 0.52060  0.19490  0.82340  Biso   1.000  O
  O75      1.0000 0.16110  0.81750  0.52960  Biso   1.000  O
  O76      1.0000 0.15350  0.87350  0.62770  Biso   1.000  O
  O77      1.0000 0.15600  0.00320  0.56910  Biso   1.000  O
  O78      1.0000 0.15000  0.13600  0.61890  Biso   1.000  O
  O79      1.0000 0.16040  0.18660  0.51880  Biso   1.000  O
  O80      1.0000 0.91260  0.82410  0.75980  Biso   1.000  O
  O81      1.0000 0.04810  0.87900  0.73040  Biso   1.000  O
  O82      1.0000 0.89660  0.19220  0.74040  Biso   1.000  O
  O83      1.0000 0.03950  0.13540  0.71780  Biso   1.000  O
  O84      1.0000 0.96200  0.00730  0.73630  Biso   1.000  O
  C73      1.0000 0.45980  0.87910  0.81040  Biso   1.000  C
  C74      1.0000 0.51600  0.95160  0.82720  Biso   1.000  C
  C75      1.0000 0.63410  0.97390  0.87290  Biso   1.000  C
  H25      1.0000 0.70240  0.94460  0.90060  Biso   1.000  H
  C76      1.0000 0.63400  0.04990  0.87050  Biso   1.000  C
  H26      1.0000 0.70190  0.08020  0.89590  Biso   1.000  H
  C77      1.0000 0.51460  0.07010  0.82360  Biso   1.000  C
  C78      1.0000 0.45370  0.14040  0.80220  Biso   1.000  C
  C79      1.0000 0.15320  0.87230  0.56420  Biso   1.000  C
  C80      1.0000 0.15170  0.94320  0.52800  Biso   1.000  C
  C81      1.0000 0.14910  0.96210  0.46280  Biso   1.000  C
  H27      1.0000 0.14930  0.93080  0.42600  Biso   1.000  H
  C82      1.0000 0.14590  0.03790  0.45830  Biso   1.000  C
  H28      1.0000 0.13920  0.06600  0.41760  Biso   1.000  H
  C83      1.0000 0.15450  0.06110  0.52550  Biso   1.000  C
  C84      1.0000 0.15570  0.13410  0.55680  Biso   1.000  C
  C85      1.0000 0.96020  0.87900  0.74650  Biso   1.000  C
  C86      1.0000 0.90730  0.94950  0.75210  Biso   1.000  C
  C87      1.0000 0.81750  0.97020  0.76840  Biso   1.000  C
  H29      1.0000 0.76580  0.94070  0.77970  Biso   1.000  H
  C88      1.0000 0.81550  0.04740  0.76520  Biso   1.000  C
  H30      1.0000 0.76290  0.07770  0.77500  Biso   1.000  H
  C89      1.0000 0.90340  0.06740  0.74580  Biso   1.000  C
  C90      1.0000 0.95030  0.13750  0.73370  Biso   1.000  C
  O85      1.0000 0.27420  0.05920  0.87610  Biso   1.000  O
  O86      1.0000 0.21400  0.20700  0.84400  Biso   1.000  O
  O87      1.0000 0.35200  0.31000  0.96200  Biso   1.000  O
  O88      1.0000 0.35600  0.28400  0.94500  Biso   1.000  O
  O89      1.0000 0.31500  0.08500  0.91500  Biso   1.000  O
  O90      1.0000 0.28700  0.99000  0.88550  Biso   1.000  O
  O91      1.0000 0.47000  0.94700  0.98700  Biso   1.000  O
  C91      1.0000 0.30000  0.22900  0.90500  Biso   1.000  C
  C92      1.0000 0.34400  0.15200  0.93800  Biso   1.000  C
  C93      1.0000 0.46100  0.17300  0.99300  Biso   1.000  C
  H31      1.0000 0.51470  0.21080  0.02300  Biso   1.000  H
  C94      1.0000 0.53100  0.11100  0.01400  Biso   1.000  C
  H32      1.0000 0.60280  0.08710  0.05150  Biso   1.000  H
  C95      1.0000 0.43000  0.07000  0.96300  Biso   1.000  C
  C96      1.0000 0.39100  0.99100  0.94310  Biso   1.000  C
  O92      1.0000 0.21220  0.20640  0.84510  Biso   1.000  O
