data_image0
_cell_length_a       16.0324
_cell_length_b       6.3798
_cell_length_c       15.1705
_cell_angle_alpha    90
_cell_angle_beta     90
_cell_angle_gamma    90

_symmetry_space_group_name_H-M    "P 1"
_symmetry_int_tables_number       1

loop_
  _symmetry_equiv_pos_as_xyz
  'x, y, z'

loop_
  _atom_site_label
  _atom_site_occupancy
  _atom_site_fract_x
  _atom_site_fract_y
  _atom_site_fract_z
  _atom_site_thermal_displace_type
  _atom_site_B_iso_or_equiv
  _atom_site_type_symbol
  N1       1.0000 0.37270  0.92290  0.14520  Biso   1.000  N
  N2       1.0000 0.42610  0.85190  0.08520  Biso   1.000  N
  H1       1.0000 0.22340  0.81530  0.22810  Biso   1.000  H
  H2       1.0000 0.29370  0.82930  0.30270  Biso   1.000  H
  H3       1.0000 0.26200  0.60540  0.26900  Biso   1.000  H
  N3       1.0000 0.12730  0.07710  0.64520  Biso   1.000  N
  N4       1.0000 0.07390  0.14810  0.58520  Biso   1.000  N
  H4       1.0000 0.27660  0.18470  0.72810  Biso   1.000  H
  H5       1.0000 0.20630  0.17070  0.80270  Biso   1.000  H
  H6       1.0000 0.23800  0.39460  0.76900  Biso   1.000  H
  N5       1.0000 0.62730  0.42290  0.85480  Biso   1.000  N
  N6       1.0000 0.57390  0.35190  0.91480  Biso   1.000  N
  H7       1.0000 0.77660  0.31530  0.77190  Biso   1.000  H
  H8       1.0000 0.70630  0.32930  0.69730  Biso   1.000  H
  H9       1.0000 0.73800  0.10540  0.73100  Biso   1.000  H
  N7       1.0000 0.87270  0.57710  0.35480  Biso   1.000  N
  N8       1.0000 0.92610  0.64810  0.41480  Biso   1.000  N
  H10      1.0000 0.72340  0.68470  0.27190  Biso   1.000  H
  H11      1.0000 0.79370  0.67070  0.19730  Biso   1.000  H
  H12      1.0000 0.76200  0.89460  0.23100  Biso   1.000  H
  N9       1.0000 0.62730  0.07710  0.85480  Biso   1.000  N
  N10      1.0000 0.57390  0.14810  0.91480  Biso   1.000  N
  H13      1.0000 0.77660  0.18470  0.77190  Biso   1.000  H
  H14      1.0000 0.70630  0.17070  0.69730  Biso   1.000  H
  H15      1.0000 0.73800  0.39460  0.73100  Biso   1.000  H
  N11      1.0000 0.87270  0.92290  0.35480  Biso   1.000  N
  N12      1.0000 0.92610  0.85190  0.41480  Biso   1.000  N
  H16      1.0000 0.72340  0.81530  0.27190  Biso   1.000  H
  H17      1.0000 0.79370  0.82930  0.19730  Biso   1.000  H
  H18      1.0000 0.76200  0.60540  0.23100  Biso   1.000  H
  N13      1.0000 0.37270  0.57710  0.14520  Biso   1.000  N
  N14      1.0000 0.42610  0.64810  0.08520  Biso   1.000  N
  H19      1.0000 0.22340  0.68470  0.22810  Biso   1.000  H
  H20      1.0000 0.29370  0.67070  0.30270  Biso   1.000  H
  H21      1.0000 0.26200  0.89460  0.26900  Biso   1.000  H
  N15      1.0000 0.12730  0.42290  0.64520  Biso   1.000  N
  N16      1.0000 0.07390  0.35190  0.58520  Biso   1.000  N
  H22      1.0000 0.27660  0.31530  0.72810  Biso   1.000  H
  H23      1.0000 0.20630  0.32930  0.80270  Biso   1.000  H
  H24      1.0000 0.23800  0.10540  0.76900  Biso   1.000  H
  Cu1      1.0000 0.36766  0.25000  0.15893  Biso   1.000  Cu
  O1       1.0000 0.47230  0.25000  0.23230  Biso   1.000  O
  O2       1.0000 0.36140  0.25000  0.31720  Biso   1.000  O
  O3       1.0000 0.43780  0.25000  0.02680  Biso   1.000  O
  C1       1.0000 0.43890  0.25000  0.30910  Biso   1.000  C
  O4       1.0000 0.75150  0.25000  0.36750  Biso   1.000  O
  H25      1.0000 0.39220  0.25000  0.98200  Biso   1.000  H
  C2       1.0000 0.49440  0.25000  0.38760  Biso   1.000  C
  C3       1.0000 0.57930  0.25000  0.37940  Biso   1.000  C
  C4       1.0000 0.45840  0.25000  0.47150  Biso   1.000  C
  H26      1.0000 0.60350  0.25000  0.32230  Biso   1.000  H
  C5       1.0000 0.63240  0.25000  0.45550  Biso   1.000  C
  C6       1.0000 0.50930  0.25000  0.54450  Biso   1.000  C
  H27      1.0000 0.39950  0.25000  0.47810  Biso   1.000  H
  C7       1.0000 0.59540  0.25000  0.53760  Biso   1.000  C
  C8       1.0000 0.72530  0.25000  0.44700  Biso   1.000  C
  N17      1.0000 0.47050  0.25000  0.63070  Biso   1.000  N
  H28      1.0000 0.62900  0.25000  0.58930  Biso   1.000  H
  O5       1.0000 0.76900  0.25000  0.51240  Biso   1.000  O
  O6       1.0000 0.51740  0.25000  0.69670  Biso   1.000  O
  O7       1.0000 0.39480  0.25000  0.63660  Biso   1.000  O
  Cu2      1.0000 0.13234  0.75000  0.65893  Biso   1.000  Cu
  O8       1.0000 0.02770  0.75000  0.73230  Biso   1.000  O
  O9       1.0000 0.13860  0.75000  0.81720  Biso   1.000  O
  O10      1.0000 0.06220  0.75000  0.52680  Biso   1.000  O
  C9       1.0000 0.06110  0.75000  0.80910  Biso   1.000  C
  O11      1.0000 0.74850  0.75000  0.86750  Biso   1.000  O
  H29      1.0000 0.10780  0.75000  0.48200  Biso   1.000  H
  C10      1.0000 0.00560  0.75000  0.88760  Biso   1.000  C
  C11      1.0000 0.92070  0.75000  0.87940  Biso   1.000  C
  C12      1.0000 0.04160  0.75000  0.97150  Biso   1.000  C
  H30      1.0000 0.89650  0.75000  0.82230  Biso   1.000  H
  C13      1.0000 0.86760  0.75000  0.95550  Biso   1.000  C
  C14      1.0000 0.99070  0.75000  0.04450  Biso   1.000  C
  H31      1.0000 0.10050  0.75000  0.97810  Biso   1.000  H
  C15      1.0000 0.90460  0.75000  0.03760  Biso   1.000  C
  C16      1.0000 0.77470  0.75000  0.94700  Biso   1.000  C
  N18      1.0000 0.02950  0.75000  0.13070  Biso   1.000  N
  H32      1.0000 0.87100  0.75000  0.08930  Biso   1.000  H
  O12      1.0000 0.73100  0.75000  0.01240  Biso   1.000  O
  O13      1.0000 0.98260  0.75000  0.19670  Biso   1.000  O
  O14      1.0000 0.10520  0.75000  0.13660  Biso   1.000  O
  Cu3      1.0000 0.63234  0.75000  0.84107  Biso   1.000  Cu
  O15      1.0000 0.52770  0.75000  0.76770  Biso   1.000  O
  O16      1.0000 0.63860  0.75000  0.68280  Biso   1.000  O
  O17      1.0000 0.56220  0.75000  0.97320  Biso   1.000  O
  C17      1.0000 0.56110  0.75000  0.69090  Biso   1.000  C
  O18      1.0000 0.24850  0.75000  0.63250  Biso   1.000  O
  H33      1.0000 0.60780  0.75000  0.01800  Biso   1.000  H
  C18      1.0000 0.50560  0.75000  0.61240  Biso   1.000  C
  C19      1.0000 0.42070  0.75000  0.62060  Biso   1.000  C
  C20      1.0000 0.54160  0.75000  0.52850  Biso   1.000  C
  H34      1.0000 0.39650  0.75000  0.67770  Biso   1.000  H
  C21      1.0000 0.36760  0.75000  0.54450  Biso   1.000  C
  C22      1.0000 0.49070  0.75000  0.45550  Biso   1.000  C
  H35      1.0000 0.60050  0.75000  0.52190  Biso   1.000  H
  C23      1.0000 0.40460  0.75000  0.46240  Biso   1.000  C
  C24      1.0000 0.27470  0.75000  0.55300  Biso   1.000  C
  N19      1.0000 0.52950  0.75000  0.36930  Biso   1.000  N
  H36      1.0000 0.37100  0.75000  0.41070  Biso   1.000  H
  O19      1.0000 0.23100  0.75000  0.48760  Biso   1.000  O
  O20      1.0000 0.48260  0.75000  0.30330  Biso   1.000  O
  O21      1.0000 0.60520  0.75000  0.36340  Biso   1.000  O
  Cu4      1.0000 0.86766  0.25000  0.34107  Biso   1.000  Cu
  O22      1.0000 0.97230  0.25000  0.26770  Biso   1.000  O
  O23      1.0000 0.86140  0.25000  0.18280  Biso   1.000  O
  O24      1.0000 0.93780  0.25000  0.47320  Biso   1.000  O
  C25      1.0000 0.93890  0.25000  0.19090  Biso   1.000  C
  O25      1.0000 0.25150  0.25000  0.13250  Biso   1.000  O
  H37      1.0000 0.89220  0.25000  0.51800  Biso   1.000  H
  C26      1.0000 0.99440  0.25000  0.11240  Biso   1.000  C
  C27      1.0000 0.07930  0.25000  0.12060  Biso   1.000  C
  C28      1.0000 0.95840  0.25000  0.02850  Biso   1.000  C
  H38      1.0000 0.10350  0.25000  0.17770  Biso   1.000  H
  C29      1.0000 0.13240  0.25000  0.04450  Biso   1.000  C
  C30      1.0000 0.00930  0.25000  0.95550  Biso   1.000  C
  H39      1.0000 0.89950  0.25000  0.02190  Biso   1.000  H
  C31      1.0000 0.09540  0.25000  0.96240  Biso   1.000  C
  C32      1.0000 0.22530  0.25000  0.05300  Biso   1.000  C
  N20      1.0000 0.97050  0.25000  0.86930  Biso   1.000  N
  H40      1.0000 0.12900  0.25000  0.91070  Biso   1.000  H
  O26      1.0000 0.26900  0.25000  0.98760  Biso   1.000  O
  O27      1.0000 0.01740  0.25000  0.80330  Biso   1.000  O
  O28      1.0000 0.89480  0.25000  0.86340  Biso   1.000  O
  Cu5      1.0000 0.50000  0.00000  0.00000  Biso   1.000  Cu
  Cu6      1.0000 0.00000  0.00000  0.50000  Biso   1.000  Cu
  Cu7      1.0000 0.50000  0.50000  0.00000  Biso   1.000  Cu
  Cu8      1.0000 0.00000  0.50000  0.50000  Biso   1.000  Cu
  C33      1.0000 0.33840  0.75000  0.18380  Biso   1.000  C
  C34      1.0000 0.27410  0.75000  0.25140  Biso   1.000  C
  C35      1.0000 0.16160  0.25000  0.68380  Biso   1.000  C
  C36      1.0000 0.22590  0.25000  0.75140  Biso   1.000  C
  C37      1.0000 0.66160  0.25000  0.81620  Biso   1.000  C
  C38      1.0000 0.72590  0.25000  0.74860  Biso   1.000  C
  C39      1.0000 0.83840  0.75000  0.31620  Biso   1.000  C
  C40      1.0000 0.77410  0.75000  0.24860  Biso   1.000  C
