data_image0
_cell_length_a       22.012
_cell_length_b       7.778
_cell_length_c       19.724
_cell_angle_alpha    90
_cell_angle_beta     90
_cell_angle_gamma    90

_symmetry_space_group_name_H-M    "P 1"
_symmetry_int_tables_number       1

loop_
  _symmetry_equiv_pos_as_xyz
  'x, y, z'

loop_
  _atom_site_label
  _atom_site_occupancy
  _atom_site_fract_x
  _atom_site_fract_y
  _atom_site_fract_z
  _atom_site_thermal_displace_type
  _atom_site_B_iso_or_equiv
  _atom_site_type_symbol
  Nd1      1.0000 0.28110  0.42280  0.05520  Biso   1.000  Nd
  O1       1.0000 0.23760  0.19240  0.12430  Biso   1.000  O
  O2       1.0000 0.18030  0.00150  0.17460  Biso   1.000  O
  O3       1.0000 0.25070  0.33210  0.48070  Biso   1.000  O
  O4       1.0000 0.17940  0.16540  0.43910  Biso   1.000  O
  C1       1.0000 0.20060  0.14950  0.17170  Biso   1.000  C
  C2       1.0000 0.19740  0.28880  0.22860  Biso   1.000  C
  C3       1.0000 0.15330  0.24030  0.28380  Biso   1.000  C
  O5       1.0000 0.36100  0.21640  0.07530  Biso   1.000  O
  C4       1.0000 0.43800  0.00410  0.07040  Biso   1.000  C
  C5       1.0000 0.14090  0.38010  0.33510  Biso   1.000  C
  C6       1.0000 0.19420  0.42690  0.37990  Biso   1.000  C
  C7       1.0000 0.16430  0.27800  0.21440  Biso   1.000  C
  C8       1.0000 0.19650  0.29400  0.28350  Biso   1.000  C
  C9       1.0000 0.16130  0.41800  0.32920  Biso   1.000  C
  C10      1.0000 0.19880  0.46120  0.39270  Biso   1.000  C
  C11      1.0000 0.20800  0.30180  0.43660  Biso   1.000  C
  O6       1.0000 0.33230  0.94670  0.05570  Biso   1.000  O
  C12      1.0000 0.37210  0.06060  0.06820  Biso   1.000  C
  C13      1.0000 0.46660  0.02550  0.00110  Biso   1.000  C
  Nd2      1.0000 0.21890  0.07720  0.55520  Biso   1.000  Nd
  O7       1.0000 0.26240  0.30760  0.62430  Biso   1.000  O
  O8       1.0000 0.31970  0.49850  0.67460  Biso   1.000  O
  O9       1.0000 0.24930  0.16790  0.98070  Biso   1.000  O
  O10      1.0000 0.32060  0.33460  0.93910  Biso   1.000  O
  C14      1.0000 0.29940  0.35050  0.67170  Biso   1.000  C
  C15      1.0000 0.30260  0.21120  0.72860  Biso   1.000  C
  C16      1.0000 0.34670  0.25970  0.78380  Biso   1.000  C
  O11      1.0000 0.13900  0.28360  0.57530  Biso   1.000  O
  C17      1.0000 0.06200  0.49590  0.57040  Biso   1.000  C
  C18      1.0000 0.35910  0.11990  0.83510  Biso   1.000  C
  C19      1.0000 0.30580  0.07310  0.87990  Biso   1.000  C
  C20      1.0000 0.33570  0.22200  0.71440  Biso   1.000  C
  C21      1.0000 0.30350  0.20600  0.78350  Biso   1.000  C
  C22      1.0000 0.33870  0.08200  0.82920  Biso   1.000  C
  C23      1.0000 0.30120  0.03880  0.89270  Biso   1.000  C
  C24      1.0000 0.29200  0.19820  0.93660  Biso   1.000  C
  O12      1.0000 0.16770  0.55330  0.55570  Biso   1.000  O
  C25      1.0000 0.12790  0.43940  0.56820  Biso   1.000  C
  C26      1.0000 0.03340  0.47450  0.50110  Biso   1.000  C
  Nd3      1.0000 0.71890  0.42280  0.44480  Biso   1.000  Nd
  O13      1.0000 0.76240  0.19240  0.37570  Biso   1.000  O
  O14      1.0000 0.81970  0.00150  0.32540  Biso   1.000  O
  O15      1.0000 0.74930  0.33210  0.01930  Biso   1.000  O
  O16      1.0000 0.82060  0.16540  0.06090  Biso   1.000  O
  C27      1.0000 0.79940  0.14950  0.32830  Biso   1.000  C
  C28      1.0000 0.80260  0.28880  0.27140  Biso   1.000  C
  C29      1.0000 0.84670  0.24030  0.21620  Biso   1.000  C
  O17      1.0000 0.63900  0.21640  0.42470  Biso   1.000  O
  C30      1.0000 0.56200  0.00410  0.42960  Biso   1.000  C
  C31      1.0000 0.85910  0.38010  0.16490  Biso   1.000  C
  C32      1.0000 0.80580  0.42690  0.12010  Biso   1.000  C
  C33      1.0000 0.83570  0.27800  0.28560  Biso   1.000  C
  C34      1.0000 0.80350  0.29400  0.21650  Biso   1.000  C
  C35      1.0000 0.83870  0.41800  0.17080  Biso   1.000  C
  C36      1.0000 0.80120  0.46120  0.10730  Biso   1.000  C
  C37      1.0000 0.79200  0.30180  0.06340  Biso   1.000  C
  O18      1.0000 0.66770  0.94670  0.44430  Biso   1.000  O
  C38      1.0000 0.62790  0.06060  0.43180  Biso   1.000  C
  C39      1.0000 0.53340  0.02550  0.49890  Biso   1.000  C
  Nd4      1.0000 0.78110  0.07720  0.94480  Biso   1.000  Nd
  O19      1.0000 0.73760  0.30760  0.87570  Biso   1.000  O
  O20      1.0000 0.68030  0.49850  0.82540  Biso   1.000  O
  O21      1.0000 0.75070  0.16790  0.51930  Biso   1.000  O
  O22      1.0000 0.67940  0.33460  0.56090  Biso   1.000  O
  C40      1.0000 0.70060  0.35050  0.82830  Biso   1.000  C
  C41      1.0000 0.69740  0.21120  0.77140  Biso   1.000  C
  C42      1.0000 0.65330  0.25970  0.71620  Biso   1.000  C
  O23      1.0000 0.86100  0.28360  0.92470  Biso   1.000  O
  C43      1.0000 0.93800  0.49590  0.92960  Biso   1.000  C
  C44      1.0000 0.64090  0.11990  0.66490  Biso   1.000  C
  C45      1.0000 0.69420  0.07310  0.62010  Biso   1.000  C
  C46      1.0000 0.66430  0.22200  0.78560  Biso   1.000  C
  C47      1.0000 0.69650  0.20600  0.71650  Biso   1.000  C
  C48      1.0000 0.66130  0.08200  0.67080  Biso   1.000  C
  C49      1.0000 0.69880  0.03880  0.60730  Biso   1.000  C
  C50      1.0000 0.70800  0.19820  0.56340  Biso   1.000  C
  O24      1.0000 0.83230  0.55330  0.94430  Biso   1.000  O
  C51      1.0000 0.87210  0.43940  0.93180  Biso   1.000  C
  C52      1.0000 0.96660  0.47450  0.99890  Biso   1.000  C
  Nd5      1.0000 0.71890  0.57720  0.94480  Biso   1.000  Nd
  O25      1.0000 0.76240  0.80760  0.87570  Biso   1.000  O
  O26      1.0000 0.81970  0.99850  0.82540  Biso   1.000  O
  O27      1.0000 0.74930  0.66790  0.51930  Biso   1.000  O
  O28      1.0000 0.82060  0.83460  0.56090  Biso   1.000  O
  C53      1.0000 0.79940  0.85050  0.82830  Biso   1.000  C
  C54      1.0000 0.80260  0.71120  0.77140  Biso   1.000  C
  C55      1.0000 0.84670  0.75970  0.71620  Biso   1.000  C
  O29      1.0000 0.63900  0.78360  0.92470  Biso   1.000  O
  C56      1.0000 0.56200  0.99590  0.92960  Biso   1.000  C
  C57      1.0000 0.85910  0.61990  0.66490  Biso   1.000  C
  C58      1.0000 0.80580  0.57310  0.62010  Biso   1.000  C
  C59      1.0000 0.83570  0.72200  0.78560  Biso   1.000  C
  C60      1.0000 0.80350  0.70600  0.71650  Biso   1.000  C
  C61      1.0000 0.83870  0.58200  0.67080  Biso   1.000  C
  C62      1.0000 0.80120  0.53880  0.60730  Biso   1.000  C
  C63      1.0000 0.79200  0.69820  0.56340  Biso   1.000  C
  O30      1.0000 0.66770  0.05330  0.94430  Biso   1.000  O
  C64      1.0000 0.62790  0.93940  0.93180  Biso   1.000  C
  C65      1.0000 0.53340  0.97450  0.99890  Biso   1.000  C
  Nd6      1.0000 0.78110  0.92280  0.44480  Biso   1.000  Nd
  O31      1.0000 0.73760  0.69240  0.37570  Biso   1.000  O
  O32      1.0000 0.68030  0.50150  0.32540  Biso   1.000  O
  O33      1.0000 0.75070  0.83210  0.01930  Biso   1.000  O
  O34      1.0000 0.67940  0.66540  0.06090  Biso   1.000  O
  C66      1.0000 0.70060  0.64950  0.32830  Biso   1.000  C
  C67      1.0000 0.69740  0.78880  0.27140  Biso   1.000  C
  C68      1.0000 0.65330  0.74030  0.21620  Biso   1.000  C
  O35      1.0000 0.86100  0.71640  0.42470  Biso   1.000  O
  C69      1.0000 0.93800  0.50410  0.42960  Biso   1.000  C
  C70      1.0000 0.64090  0.88010  0.16490  Biso   1.000  C
  C71      1.0000 0.69420  0.92690  0.12010  Biso   1.000  C
  C72      1.0000 0.66430  0.77800  0.28560  Biso   1.000  C
  C73      1.0000 0.69650  0.79400  0.21650  Biso   1.000  C
  C74      1.0000 0.66130  0.91800  0.17080  Biso   1.000  C
  C75      1.0000 0.69880  0.96120  0.10730  Biso   1.000  C
  C76      1.0000 0.70800  0.80180  0.06340  Biso   1.000  C
  O36      1.0000 0.83230  0.44670  0.44430  Biso   1.000  O
  C77      1.0000 0.87210  0.56060  0.43180  Biso   1.000  C
  C78      1.0000 0.96660  0.52550  0.49890  Biso   1.000  C
  Nd7      1.0000 0.28110  0.57720  0.55520  Biso   1.000  Nd
  O37      1.0000 0.23760  0.80760  0.62430  Biso   1.000  O
  O38      1.0000 0.18030  0.99850  0.67460  Biso   1.000  O
  O39      1.0000 0.25070  0.66790  0.98070  Biso   1.000  O
  O40      1.0000 0.17940  0.83460  0.93910  Biso   1.000  O
  C79      1.0000 0.20060  0.85050  0.67170  Biso   1.000  C
  C80      1.0000 0.19740  0.71120  0.72860  Biso   1.000  C
  C81      1.0000 0.15330  0.75970  0.78380  Biso   1.000  C
  O41      1.0000 0.36100  0.78360  0.57530  Biso   1.000  O
  C82      1.0000 0.43800  0.99590  0.57040  Biso   1.000  C
  C83      1.0000 0.14090  0.61990  0.83510  Biso   1.000  C
  C84      1.0000 0.19420  0.57310  0.87990  Biso   1.000  C
  C85      1.0000 0.16430  0.72200  0.71440  Biso   1.000  C
  C86      1.0000 0.19650  0.70600  0.78350  Biso   1.000  C
  C87      1.0000 0.16130  0.58200  0.82920  Biso   1.000  C
  C88      1.0000 0.19880  0.53880  0.89270  Biso   1.000  C
  C89      1.0000 0.20800  0.69820  0.93660  Biso   1.000  C
  O42      1.0000 0.33230  0.05330  0.55570  Biso   1.000  O
  C90      1.0000 0.37210  0.93940  0.56820  Biso   1.000  C
  C91      1.0000 0.46660  0.97450  0.50110  Biso   1.000  C
  Nd8      1.0000 0.21890  0.92280  0.05520  Biso   1.000  Nd
  O43      1.0000 0.26240  0.69240  0.12430  Biso   1.000  O
  O44      1.0000 0.31970  0.50150  0.17460  Biso   1.000  O
  O45      1.0000 0.24930  0.83210  0.48070  Biso   1.000  O
  O46      1.0000 0.32060  0.66540  0.43910  Biso   1.000  O
  C92      1.0000 0.29940  0.64950  0.17170  Biso   1.000  C
  C93      1.0000 0.30260  0.78880  0.22860  Biso   1.000  C
  C94      1.0000 0.34670  0.74030  0.28380  Biso   1.000  C
  O47      1.0000 0.13900  0.71640  0.07530  Biso   1.000  O
  C95      1.0000 0.06200  0.50410  0.07040  Biso   1.000  C
  C96      1.0000 0.35910  0.88010  0.33510  Biso   1.000  C
  C97      1.0000 0.30580  0.92690  0.37990  Biso   1.000  C
  C98      1.0000 0.33570  0.77800  0.21440  Biso   1.000  C
  C99      1.0000 0.30350  0.79400  0.28350  Biso   1.000  C
  C100     1.0000 0.33870  0.91800  0.32920  Biso   1.000  C
  C101     1.0000 0.30120  0.96120  0.39270  Biso   1.000  C
  C102     1.0000 0.29200  0.80180  0.43660  Biso   1.000  C
  O48      1.0000 0.16770  0.44670  0.05570  Biso   1.000  O
  C103     1.0000 0.12790  0.56060  0.06820  Biso   1.000  C
  C104     1.0000 0.03340  0.52550  0.00110  Biso   1.000  C
