data_image0
_cell_length_a       14.1046
_cell_length_b       19.926
_cell_length_c       25.9898
_cell_angle_alpha    90
_cell_angle_beta     90.005
_cell_angle_gamma    90

_symmetry_space_group_name_H-M    "P 1"
_symmetry_int_tables_number       1

loop_
  _symmetry_equiv_pos_as_xyz
  'x, y, z'

loop_
  _atom_site_label
  _atom_site_occupancy
  _atom_site_fract_x
  _atom_site_fract_y
  _atom_site_fract_z
  _atom_site_thermal_displace_type
  _atom_site_B_iso_or_equiv
  _atom_site_type_symbol
  C1       1.0000 0.86830  0.14480  0.51092  Biso   1.000  C
  C2       1.0000 0.83770  0.20370  0.48900  Biso   1.000  C
  H1       1.0000 0.84880  0.24480  0.50570  Biso   1.000  H
  C3       1.0000 0.79130  0.20280  0.44280  Biso   1.000  C
  H2       1.0000 0.77150  0.24370  0.42830  Biso   1.000  H
  C4       1.0000 0.80210  0.08440  0.43960  Biso   1.000  C
  H3       1.0000 0.78840  0.04330  0.42360  Biso   1.000  H
  C5       1.0000 0.77220  0.14370  0.41670  Biso   1.000  C
  C6       1.0000 0.87150  0.14600  0.77097  Biso   1.000  C
  C7       1.0000 0.81770  0.08740  0.84600  Biso   1.000  C
  H4       1.0000 0.81330  0.04700  0.86470  Biso   1.000  H
  C8       1.0000 0.86420  0.08730  0.79960  Biso   1.000  C
  H5       1.0000 0.89130  0.04740  0.78710  Biso   1.000  H
  C9       1.0000 0.82660  0.20050  0.78900  Biso   1.000  C
  H6       1.0000 0.82740  0.24030  0.76960  Biso   1.000  H
  C10      1.0000 0.77910  0.19950  0.83570  Biso   1.000  C
  H7       1.0000 0.74710  0.23830  0.84670  Biso   1.000  H
  C11      1.0000 0.92410  0.14790  0.72093  Biso   1.000  C
  C12      1.0000 0.62750  0.14530  0.27093  Biso   1.000  C
  C13      1.0000 0.57630  0.14740  0.22091  Biso   1.000  C
  C14      1.0000 0.97620  0.93990  0.60290  Biso   1.000  C
  H8       1.0000 0.95640  0.96330  0.57340  Biso   1.000  H
  C15      1.0000 0.96800  0.87050  0.60390  Biso   1.000  C
  H9       1.0000 0.93980  0.84750  0.57620  Biso   1.000  H
  C16      1.0000 0.00160  0.83600  0.64590  Biso   1.000  C
  C17      1.0000 0.03850  0.87100  0.68430  Biso   1.000  C
  H10      1.0000 0.06220  0.84830  0.71330  Biso   1.000  H
  C18      1.0000 0.04280  0.94050  0.68250  Biso   1.000  C
  H11      1.0000 0.06870  0.96380  0.71060  Biso   1.000  H
  C19      1.0000 0.85130  0.08430  0.48520  Biso   1.000  C
  H12      1.0000 0.87350  0.04360  0.49900  Biso   1.000  H
  C20      1.0000 0.92220  0.14620  0.56102  Biso   1.000  C
  C21      1.0000 0.27290  0.17270  0.64860  Biso   1.000  C
  C22      1.0000 0.17960  0.13970  0.64450  Biso   1.000  C
  C23      1.0000 0.35550  0.13540  0.65630  Biso   1.000  C
  H13      1.0000 0.35140  0.08840  0.65910  Biso   1.000  H
  C24      1.0000 0.44130  0.16530  0.65990  Biso   1.000  C
  H14      1.0000 0.49500  0.13890  0.66700  Biso   1.000  H
  C25      1.0000 0.45200  0.23380  0.65340  Biso   1.000  C
  C26      1.0000 0.37030  0.27060  0.64500  Biso   1.000  C
  H15      1.0000 0.37430  0.31730  0.64050  Biso   1.000  H
  C27      1.0000 0.28360  0.23970  0.64320  Biso   1.000  C
  H16      1.0000 0.22930  0.26620  0.63810  Biso   1.000  H
  C28      1.0000 0.71970  0.20020  0.33610  Biso   1.000  C
  H17      1.0000 0.74980  0.23950  0.34760  Biso   1.000  H
  C29      1.0000 0.68310  0.08740  0.34530  Biso   1.000  C
  H18      1.0000 0.69000  0.04650  0.36290  Biso   1.000  H
  C30      1.0000 0.67410  0.20030  0.28920  Biso   1.000  C
  H19      1.0000 0.67510  0.23960  0.26920  Biso   1.000  H
  C31      1.0000 0.63440  0.08800  0.30000  Biso   1.000  C
  H20      1.0000 0.60500  0.04840  0.28840  Biso   1.000  H
  C32      1.0000 0.55810  0.33550  0.65980  Biso   1.000  C
  H21      1.0000 0.50450  0.36250  0.66580  Biso   1.000  H
  C33      1.0000 0.62930  0.22980  0.64570  Biso   1.000  C
  H22      1.0000 0.62530  0.18300  0.64160  Biso   1.000  H
  C34      1.0000 0.64490  0.36410  0.65710  Biso   1.000  C
  H23      1.0000 0.64990  0.41090  0.66090  Biso   1.000  H
  C35      1.0000 0.71700  0.26040  0.64350  Biso   1.000  C
  H24      1.0000 0.77130  0.23390  0.63800  Biso   1.000  H
  C36      1.0000 0.72690  0.32690  0.64890  Biso   1.000  C
  C37      1.0000 0.82010  0.36000  0.64450  Biso   1.000  C
  C38      1.0000 0.54750  0.26600  0.65370  Biso   1.000  C
  C39      1.0000 0.72210  0.14360  0.36620  Biso   1.000  C
  C40      1.0000 0.77770  0.14380  0.86590  Biso   1.000  C
  C41      1.0000 0.72750  0.14400  0.91680  Biso   1.000  C
  C42      1.0000 0.71000  0.20350  0.94270  Biso   1.000  C
  H25      1.0000 0.73210  0.24430  0.92890  Biso   1.000  H
  C43      1.0000 0.69770  0.08420  0.93940  Biso   1.000  C
  H26      1.0000 0.71030  0.04320  0.92280  Biso   1.000  H
  C44      1.0000 0.66030  0.20370  0.98860  Biso   1.000  C
  H27      1.0000 0.64590  0.24470  0.00460  Biso   1.000  H
  C45      1.0000 0.63170  0.14420  0.01112  Biso   1.000  C
  C46      1.0000 0.64990  0.08420  0.98590  Biso   1.000  C
  H28      1.0000 0.62980  0.04340  0.00050  Biso   1.000  H
  C47      1.0000 0.57820  0.14640  0.06083  Biso   1.000  C
  C48      1.0000 0.99850  0.66370  0.64630  Biso   1.000  C
  C49      1.0000 0.02930  0.63020  0.60480  Biso   1.000  C
  H29      1.0000 0.05450  0.65370  0.57650  Biso   1.000  H
  C50      1.0000 0.96230  0.62850  0.68470  Biso   1.000  C
  H30      1.0000 0.93790  0.65090  0.71370  Biso   1.000  H
  C51      1.0000 0.96000  0.55960  0.68270  Biso   1.000  C
  H31      1.0000 0.93630  0.53600  0.71120  Biso   1.000  H
  C52      1.0000 0.02390  0.56090  0.60390  Biso   1.000  C
  H32      1.0000 0.04560  0.53810  0.57450  Biso   1.000  H
  N1       1.0000 0.98960  0.52530  0.64269  Biso   1.000  N
  N2       1.0000 0.01220  0.97470  0.64310  Biso   1.000  N
  N3       1.0000 0.01010  0.73160  0.63390  Biso   1.000  N
  N4       1.0000 0.99880  0.76970  0.66410  Biso   1.000  N
  O1       1.0000 0.96080  0.09319  0.70629  Biso   1.000  O
  O2       1.0000 0.92600  0.20166  0.69748  Biso   1.000  O
  O3       1.0000 0.57200  0.20044  0.08354  Biso   1.000  O
  O4       1.0000 0.54330  0.09064  0.07615  Biso   1.000  O
  O5       1.0000 0.95670  0.09076  0.57612  Biso   1.000  O
  O6       1.0000 0.57440  0.20180  0.19730  Biso   1.000  O
  O7       1.0000 0.53920  0.09276  0.20590  Biso   1.000  O
  O8       1.0000 0.17190  0.07681  0.64630  Biso   1.000  O
  O9       1.0000 0.10600  0.17362  0.63937  Biso   1.000  O
  O10      1.0000 0.82910  0.42258  0.64660  Biso   1.000  O
  O11      1.0000 0.89380  0.32693  0.63894  Biso   1.000  O
  O12      1.0000 0.92810  0.20061  0.58342  Biso   1.000  O
  Zn1      1.0000 0.02442  0.07819  0.64081  Biso   1.000  Zn
  Zn2      1.0000 0.00009  0.25002  0.64062  Biso   1.000  Zn
  Zn3      1.0000 0.97560  0.42185  0.64068  Biso   1.000  Zn
  N5       1.0000 0.99370  0.75960  0.62610  Biso   1.000  N
  N6       1.0000 0.99820  0.74000  0.66880  Biso   1.000  N
  C53      1.0000 0.36830  0.35520  0.01092  Biso   1.000  C
  C54      1.0000 0.33770  0.29630  0.98900  Biso   1.000  C
  H33      1.0000 0.34880  0.25520  0.00570  Biso   1.000  H
  C55      1.0000 0.29130  0.29720  0.94280  Biso   1.000  C
  H34      1.0000 0.27150  0.25630  0.92830  Biso   1.000  H
  C56      1.0000 0.30210  0.41560  0.93960  Biso   1.000  C
  H35      1.0000 0.28840  0.45670  0.92360  Biso   1.000  H
  C57      1.0000 0.27220  0.35630  0.91670  Biso   1.000  C
  C58      1.0000 0.37150  0.35400  0.27097  Biso   1.000  C
  C59      1.0000 0.31770  0.41260  0.34600  Biso   1.000  C
  H36      1.0000 0.31330  0.45300  0.36470  Biso   1.000  H
  C60      1.0000 0.36420  0.41270  0.29960  Biso   1.000  C
  H37      1.0000 0.39130  0.45260  0.28710  Biso   1.000  H
  C61      1.0000 0.32660  0.29950  0.28900  Biso   1.000  C
  H38      1.0000 0.32740  0.25970  0.26960  Biso   1.000  H
  C62      1.0000 0.27910  0.30050  0.33570  Biso   1.000  C
  H39      1.0000 0.24710  0.26170  0.34670  Biso   1.000  H
  C63      1.0000 0.42410  0.35210  0.22093  Biso   1.000  C
  C64      1.0000 0.12750  0.35470  0.77093  Biso   1.000  C
  C65      1.0000 0.07630  0.35260  0.72091  Biso   1.000  C
  C66      1.0000 0.47620  0.56010  0.10290  Biso   1.000  C
  H40      1.0000 0.45640  0.53670  0.07340  Biso   1.000  H
  C67      1.0000 0.46800  0.62950  0.10390  Biso   1.000  C
  H41      1.0000 0.43980  0.65250  0.07620  Biso   1.000  H
  C68      1.0000 0.50160  0.66400  0.14590  Biso   1.000  C
  C69      1.0000 0.53850  0.62900  0.18430  Biso   1.000  C
  H42      1.0000 0.56220  0.65170  0.21330  Biso   1.000  H
  C70      1.0000 0.54280  0.55950  0.18250  Biso   1.000  C
  H43      1.0000 0.56870  0.53620  0.21060  Biso   1.000  H
  C71      1.0000 0.35130  0.41570  0.98520  Biso   1.000  C
  H44      1.0000 0.37350  0.45640  0.99900  Biso   1.000  H
  C72      1.0000 0.42220  0.35380  0.06102  Biso   1.000  C
  C73      1.0000 0.77290  0.32730  0.14860  Biso   1.000  C
  C74      1.0000 0.67960  0.36030  0.14450  Biso   1.000  C
  C75      1.0000 0.85550  0.36460  0.15630  Biso   1.000  C
  H45      1.0000 0.85140  0.41160  0.15910  Biso   1.000  H
  C76      1.0000 0.94130  0.33470  0.15990  Biso   1.000  C
  H46      1.0000 0.99500  0.36110  0.16700  Biso   1.000  H
  C77      1.0000 0.95200  0.26620  0.15340  Biso   1.000  C
  C78      1.0000 0.87030  0.22940  0.14500  Biso   1.000  C
  H47      1.0000 0.87430  0.18270  0.14050  Biso   1.000  H
  C79      1.0000 0.78360  0.26030  0.14320  Biso   1.000  C
  H48      1.0000 0.72930  0.23380  0.13810  Biso   1.000  H
  C80      1.0000 0.21970  0.29980  0.83610  Biso   1.000  C
  H49      1.0000 0.24980  0.26050  0.84760  Biso   1.000  H
  C81      1.0000 0.18310  0.41260  0.84530  Biso   1.000  C
  H50      1.0000 0.19000  0.45350  0.86290  Biso   1.000  H
  C82      1.0000 0.17410  0.29970  0.78920  Biso   1.000  C
  H51      1.0000 0.17510  0.26040  0.76920  Biso   1.000  H
  C83      1.0000 0.13440  0.41200  0.80000  Biso   1.000  C
  H52      1.0000 0.10500  0.45160  0.78840  Biso   1.000  H
  C84      1.0000 0.05810  0.16450  0.15980  Biso   1.000  C
  H53      1.0000 0.00450  0.13750  0.16580  Biso   1.000  H
  C85      1.0000 0.12930  0.27020  0.14570  Biso   1.000  C
  H54      1.0000 0.12530  0.31700  0.14160  Biso   1.000  H
  C86      1.0000 0.14490  0.13590  0.15710  Biso   1.000  C
  H55      1.0000 0.14990  0.08910  0.16090  Biso   1.000  H
  C87      1.0000 0.21700  0.23960  0.14350  Biso   1.000  C
  H56      1.0000 0.27130  0.26610  0.13800  Biso   1.000  H
  C88      1.0000 0.22690  0.17310  0.14890  Biso   1.000  C
  C89      1.0000 0.32010  0.14000  0.14450  Biso   1.000  C
  C90      1.0000 0.04750  0.23400  0.15370  Biso   1.000  C
  C91      1.0000 0.22210  0.35640  0.86620  Biso   1.000  C
  C92      1.0000 0.27770  0.35620  0.36590  Biso   1.000  C
  C93      1.0000 0.22750  0.35600  0.41680  Biso   1.000  C
  C94      1.0000 0.21000  0.29650  0.44270  Biso   1.000  C
  H57      1.0000 0.23210  0.25570  0.42890  Biso   1.000  H
  C95      1.0000 0.19770  0.41580  0.43940  Biso   1.000  C
  H58      1.0000 0.21030  0.45680  0.42280  Biso   1.000  H
  C96      1.0000 0.16030  0.29630  0.48860  Biso   1.000  C
  H59      1.0000 0.14590  0.25530  0.50460  Biso   1.000  H
  C97      1.0000 0.13170  0.35580  0.51112  Biso   1.000  C
  C98      1.0000 0.14990  0.41580  0.48590  Biso   1.000  C
  H60      1.0000 0.12980  0.45660  0.50050  Biso   1.000  H
  C99      1.0000 0.07820  0.35360  0.56083  Biso   1.000  C
  C100     1.0000 0.49850  0.83630  0.14630  Biso   1.000  C
  C101     1.0000 0.52930  0.86980  0.10480  Biso   1.000  C
  H61      1.0000 0.55450  0.84630  0.07650  Biso   1.000  H
  C102     1.0000 0.46230  0.87150  0.18470  Biso   1.000  C
  H62      1.0000 0.43790  0.84910  0.21370  Biso   1.000  H
  C103     1.0000 0.46000  0.94040  0.18270  Biso   1.000  C
  H63      1.0000 0.43630  0.96400  0.21120  Biso   1.000  H
  C104     1.0000 0.52390  0.93910  0.10390  Biso   1.000  C
  H64      1.0000 0.54560  0.96190  0.07450  Biso   1.000  H
  N7       1.0000 0.48960  0.97470  0.14269  Biso   1.000  N
  N8       1.0000 0.51220  0.52530  0.14310  Biso   1.000  N
  N9       1.0000 0.51010  0.76840  0.13390  Biso   1.000  N
  N10      1.0000 0.49880  0.73030  0.16410  Biso   1.000  N
  O13      1.0000 0.46080  0.40681  0.20629  Biso   1.000  O
  O14      1.0000 0.42600  0.29834  0.19748  Biso   1.000  O
  O15      1.0000 0.07200  0.29956  0.58354  Biso   1.000  O
  O16      1.0000 0.04330  0.40936  0.57615  Biso   1.000  O
  O17      1.0000 0.45670  0.40924  0.07612  Biso   1.000  O
  O18      1.0000 0.07440  0.29820  0.69730  Biso   1.000  O
  O19      1.0000 0.03920  0.40724  0.70590  Biso   1.000  O
  O20      1.0000 0.67190  0.42319  0.14630  Biso   1.000  O
  O21      1.0000 0.60600  0.32638  0.13937  Biso   1.000  O
  O22      1.0000 0.32910  0.07742  0.14660  Biso   1.000  O
  O23      1.0000 0.39380  0.17307  0.13894  Biso   1.000  O
  O24      1.0000 0.42810  0.29939  0.08342  Biso   1.000  O
  Zn4      1.0000 0.52442  0.42181  0.14081  Biso   1.000  Zn
  Zn5      1.0000 0.50009  0.24998  0.14062  Biso   1.000  Zn
  Zn6      1.0000 0.47560  0.07815  0.14068  Biso   1.000  Zn
  N11      1.0000 0.49370  0.74040  0.12610  Biso   1.000  N
  N12      1.0000 0.49820  0.76000  0.16880  Biso   1.000  N
  C105     1.0000 0.63170  0.64480  0.98908  Biso   1.000  C
  C106     1.0000 0.66230  0.70370  0.01100  Biso   1.000  C
  H65      1.0000 0.65120  0.74480  0.99430  Biso   1.000  H
  C107     1.0000 0.70870  0.70280  0.05720  Biso   1.000  C
  H66      1.0000 0.72850  0.74370  0.07170  Biso   1.000  H
  C108     1.0000 0.69790  0.58440  0.06040  Biso   1.000  C
  H67      1.0000 0.71160  0.54330  0.07640  Biso   1.000  H
  C109     1.0000 0.72780  0.64370  0.08330  Biso   1.000  C
  C110     1.0000 0.62850  0.64600  0.72903  Biso   1.000  C
  C111     1.0000 0.68230  0.58740  0.65400  Biso   1.000  C
  H68      1.0000 0.68670  0.54700  0.63530  Biso   1.000  H
  C112     1.0000 0.63580  0.58730  0.70040  Biso   1.000  C
  H69      1.0000 0.60870  0.54740  0.71290  Biso   1.000  H
  C113     1.0000 0.67340  0.70050  0.71100  Biso   1.000  C
  H70      1.0000 0.67260  0.74030  0.73040  Biso   1.000  H
  C114     1.0000 0.72090  0.69950  0.66430  Biso   1.000  C
  H71      1.0000 0.75290  0.73830  0.65330  Biso   1.000  H
  C115     1.0000 0.57590  0.64790  0.77907  Biso   1.000  C
  C116     1.0000 0.87250  0.64530  0.22907  Biso   1.000  C
  C117     1.0000 0.92370  0.64740  0.27909  Biso   1.000  C
  C118     1.0000 0.52380  0.43990  0.89710  Biso   1.000  C
  H72      1.0000 0.54360  0.46330  0.92660  Biso   1.000  H
  C119     1.0000 0.53200  0.37050  0.89610  Biso   1.000  C
  H73      1.0000 0.56020  0.34750  0.92380  Biso   1.000  H
  C120     1.0000 0.49840  0.33600  0.85410  Biso   1.000  C
  C121     1.0000 0.46150  0.37100  0.81570  Biso   1.000  C
  H74      1.0000 0.43780  0.34830  0.78670  Biso   1.000  H
  C122     1.0000 0.45720  0.44050  0.81750  Biso   1.000  C
  H75      1.0000 0.43130  0.46380  0.78940  Biso   1.000  H
  C123     1.0000 0.64870  0.58430  0.01480  Biso   1.000  C
  H76      1.0000 0.62650  0.54360  0.00100  Biso   1.000  H
  C124     1.0000 0.57780  0.64620  0.93898  Biso   1.000  C
  C125     1.0000 0.22710  0.67270  0.85140  Biso   1.000  C
  C126     1.0000 0.32040  0.63970  0.85550  Biso   1.000  C
  C127     1.0000 0.14450  0.63540  0.84370  Biso   1.000  C
  H77      1.0000 0.14860  0.58840  0.84090  Biso   1.000  H
  C128     1.0000 0.05870  0.66530  0.84010  Biso   1.000  C
  H78      1.0000 0.00500  0.63890  0.83300  Biso   1.000  H
  C129     1.0000 0.04800  0.73380  0.84660  Biso   1.000  C
  C130     1.0000 0.12970  0.77060  0.85500  Biso   1.000  C
  H79      1.0000 0.12570  0.81730  0.85950  Biso   1.000  H
  C131     1.0000 0.21640  0.73970  0.85680  Biso   1.000  C
  H80      1.0000 0.27070  0.76620  0.86190  Biso   1.000  H
  C132     1.0000 0.78030  0.70020  0.16390  Biso   1.000  C
  H81      1.0000 0.75020  0.73950  0.15240  Biso   1.000  H
  C133     1.0000 0.81690  0.58740  0.15470  Biso   1.000  C
  H82      1.0000 0.81000  0.54650  0.13710  Biso   1.000  H
  C134     1.0000 0.82590  0.70030  0.21080  Biso   1.000  C
  H83      1.0000 0.82490  0.73960  0.23080  Biso   1.000  H
  C135     1.0000 0.86560  0.58800  0.20000  Biso   1.000  C
  H84      1.0000 0.89500  0.54840  0.21160  Biso   1.000  H
  C136     1.0000 0.94190  0.83550  0.84020  Biso   1.000  C
  H85      1.0000 0.99550  0.86250  0.83420  Biso   1.000  H
  C137     1.0000 0.87070  0.72980  0.85430  Biso   1.000  C
  H86      1.0000 0.87470  0.68300  0.85840  Biso   1.000  H
  C138     1.0000 0.85510  0.86410  0.84290  Biso   1.000  C
  H87      1.0000 0.85010  0.91090  0.83910  Biso   1.000  H
  C139     1.0000 0.78300  0.76040  0.85650  Biso   1.000  C
  H88      1.0000 0.72870  0.73390  0.86200  Biso   1.000  H
  C140     1.0000 0.77310  0.82690  0.85110  Biso   1.000  C
  C141     1.0000 0.67990  0.86000  0.85550  Biso   1.000  C
  C142     1.0000 0.95250  0.76600  0.84630  Biso   1.000  C
  C143     1.0000 0.77790  0.64360  0.13380  Biso   1.000  C
  C144     1.0000 0.72230  0.64380  0.63410  Biso   1.000  C
  C145     1.0000 0.77250  0.64400  0.58320  Biso   1.000  C
  C146     1.0000 0.79000  0.70350  0.55730  Biso   1.000  C
  H89      1.0000 0.76790  0.74430  0.57110  Biso   1.000  H
  C147     1.0000 0.80230  0.58420  0.56060  Biso   1.000  C
  H90      1.0000 0.78970  0.54320  0.57720  Biso   1.000  H
  C148     1.0000 0.83970  0.70370  0.51140  Biso   1.000  C
  H91      1.0000 0.85410  0.74470  0.49540  Biso   1.000  H
  C149     1.0000 0.86830  0.64420  0.48888  Biso   1.000  C
  C150     1.0000 0.85010  0.58420  0.51410  Biso   1.000  C
  H92      1.0000 0.87020  0.54340  0.49950  Biso   1.000  H
  C151     1.0000 0.92180  0.64640  0.43917  Biso   1.000  C
  C152     1.0000 0.50150  0.16370  0.85370  Biso   1.000  C
  C153     1.0000 0.47070  0.13020  0.89520  Biso   1.000  C
  H93      1.0000 0.44550  0.15370  0.92350  Biso   1.000  H
  C154     1.0000 0.53770  0.12850  0.81530  Biso   1.000  C
  H94      1.0000 0.56210  0.15090  0.78630  Biso   1.000  H
  C155     1.0000 0.54000  0.05960  0.81730  Biso   1.000  C
  H95      1.0000 0.56370  0.03600  0.78880  Biso   1.000  H
  C156     1.0000 0.47610  0.06090  0.89610  Biso   1.000  C
  H96      1.0000 0.45440  0.03810  0.92550  Biso   1.000  H
  N13      1.0000 0.51040  0.02530  0.85731  Biso   1.000  N
  N14      1.0000 0.48780  0.47470  0.85690  Biso   1.000  N
  N15      1.0000 0.48990  0.23160  0.86610  Biso   1.000  N
  N16      1.0000 0.50120  0.26970  0.83590  Biso   1.000  N
  O25      1.0000 0.53920  0.59319  0.79371  Biso   1.000  O
  O26      1.0000 0.57400  0.70166  0.80252  Biso   1.000  O
  O27      1.0000 0.92800  0.70044  0.41646  Biso   1.000  O
  O28      1.0000 0.95670  0.59064  0.42385  Biso   1.000  O
  O29      1.0000 0.54330  0.59076  0.92388  Biso   1.000  O
  O30      1.0000 0.92560  0.70180  0.30270  Biso   1.000  O
  O31      1.0000 0.96080  0.59276  0.29410  Biso   1.000  O
  O32      1.0000 0.32810  0.57681  0.85370  Biso   1.000  O
  O33      1.0000 0.39400  0.67362  0.86063  Biso   1.000  O
  O34      1.0000 0.67090  0.92258  0.85340  Biso   1.000  O
  O35      1.0000 0.60620  0.82693  0.86106  Biso   1.000  O
  O36      1.0000 0.57190  0.70061  0.91658  Biso   1.000  O
  Zn7      1.0000 0.47558  0.57819  0.85919  Biso   1.000  Zn
  Zn8      1.0000 0.49991  0.75002  0.85938  Biso   1.000  Zn
  Zn9      1.0000 0.52440  0.92185  0.85932  Biso   1.000  Zn
  N17      1.0000 0.50630  0.25960  0.87390  Biso   1.000  N
  N18      1.0000 0.50180  0.24000  0.83120  Biso   1.000  N
  C157     1.0000 0.13170  0.85520  0.48908  Biso   1.000  C
  C158     1.0000 0.16230  0.79630  0.51100  Biso   1.000  C
  H97      1.0000 0.15120  0.75520  0.49430  Biso   1.000  H
  C159     1.0000 0.20870  0.79720  0.55720  Biso   1.000  C
  H98      1.0000 0.22850  0.75630  0.57170  Biso   1.000  H
  C160     1.0000 0.19790  0.91560  0.56040  Biso   1.000  C
  H99      1.0000 0.21160  0.95670  0.57640  Biso   1.000  H
  C161     1.0000 0.22780  0.85630  0.58330  Biso   1.000  C
  C162     1.0000 0.12850  0.85400  0.22903  Biso   1.000  C
  C163     1.0000 0.18230  0.91260  0.15400  Biso   1.000  C
  H100     1.0000 0.18670  0.95300  0.13530  Biso   1.000  H
  C164     1.0000 0.13580  0.91270  0.20040  Biso   1.000  C
  H101     1.0000 0.10870  0.95260  0.21290  Biso   1.000  H
  C165     1.0000 0.17340  0.79950  0.21100  Biso   1.000  C
  H102     1.0000 0.17260  0.75970  0.23040  Biso   1.000  H
  C166     1.0000 0.22090  0.80050  0.16430  Biso   1.000  C
  H103     1.0000 0.25290  0.76170  0.15330  Biso   1.000  H
  C167     1.0000 0.07590  0.85210  0.27907  Biso   1.000  C
  C168     1.0000 0.37250  0.85470  0.72907  Biso   1.000  C
  C169     1.0000 0.42370  0.85260  0.77909  Biso   1.000  C
  C170     1.0000 0.02380  0.06010  0.39710  Biso   1.000  C
  H104     1.0000 0.04360  0.03670  0.42660  Biso   1.000  H
  C171     1.0000 0.03200  0.12950  0.39610  Biso   1.000  C
  H105     1.0000 0.06020  0.15250  0.42380  Biso   1.000  H
  C172     1.0000 0.99840  0.16400  0.35410  Biso   1.000  C
  C173     1.0000 0.96150  0.12900  0.31570  Biso   1.000  C
  H106     1.0000 0.93780  0.15170  0.28670  Biso   1.000  H
  C174     1.0000 0.95720  0.05950  0.31750  Biso   1.000  C
  H107     1.0000 0.93130  0.03620  0.28940  Biso   1.000  H
  C175     1.0000 0.14870  0.91570  0.51480  Biso   1.000  C
  H108     1.0000 0.12650  0.95640  0.50100  Biso   1.000  H
  C176     1.0000 0.07780  0.85380  0.43898  Biso   1.000  C
  C177     1.0000 0.72710  0.82730  0.35140  Biso   1.000  C
  C178     1.0000 0.82040  0.86030  0.35550  Biso   1.000  C
  C179     1.0000 0.64450  0.86460  0.34370  Biso   1.000  C
  H109     1.0000 0.64860  0.91160  0.34090  Biso   1.000  H
  C180     1.0000 0.55870  0.83470  0.34010  Biso   1.000  C
  H110     1.0000 0.50500  0.86110  0.33300  Biso   1.000  H
  C181     1.0000 0.54800  0.76620  0.34660  Biso   1.000  C
  C182     1.0000 0.62970  0.72940  0.35500  Biso   1.000  C
  H111     1.0000 0.62570  0.68270  0.35950  Biso   1.000  H
  C183     1.0000 0.71640  0.76030  0.35680  Biso   1.000  C
  H112     1.0000 0.77070  0.73380  0.36190  Biso   1.000  H
  C184     1.0000 0.28030  0.79980  0.66390  Biso   1.000  C
  H113     1.0000 0.25020  0.76050  0.65240  Biso   1.000  H
  C185     1.0000 0.31690  0.91260  0.65470  Biso   1.000  C
  H114     1.0000 0.31000  0.95350  0.63710  Biso   1.000  H
  C186     1.0000 0.32590  0.79970  0.71080  Biso   1.000  C
  H115     1.0000 0.32490  0.76040  0.73080  Biso   1.000  H
  C187     1.0000 0.36560  0.91200  0.70000  Biso   1.000  C
  H116     1.0000 0.39500  0.95160  0.71160  Biso   1.000  H
  C188     1.0000 0.44190  0.66450  0.34020  Biso   1.000  C
  H117     1.0000 0.49550  0.63750  0.33420  Biso   1.000  H
  C189     1.0000 0.37070  0.77020  0.35430  Biso   1.000  C
  H118     1.0000 0.37470  0.81700  0.35840  Biso   1.000  H
  C190     1.0000 0.35510  0.63590  0.34290  Biso   1.000  C
  H119     1.0000 0.35010  0.58910  0.33910  Biso   1.000  H
  C191     1.0000 0.28300  0.73960  0.35650  Biso   1.000  C
  H120     1.0000 0.22870  0.76610  0.36200  Biso   1.000  H
  C192     1.0000 0.27310  0.67310  0.35110  Biso   1.000  C
  C193     1.0000 0.17990  0.64000  0.35550  Biso   1.000  C
  C194     1.0000 0.45250  0.73400  0.34630  Biso   1.000  C
  C195     1.0000 0.27790  0.85640  0.63380  Biso   1.000  C
  C196     1.0000 0.22230  0.85620  0.13410  Biso   1.000  C
  C197     1.0000 0.27250  0.85600  0.08320  Biso   1.000  C
  C198     1.0000 0.29000  0.79650  0.05730  Biso   1.000  C
  H121     1.0000 0.26790  0.75570  0.07110  Biso   1.000  H
  C199     1.0000 0.30230  0.91580  0.06060  Biso   1.000  C
  H122     1.0000 0.28970  0.95680  0.07720  Biso   1.000  H
  C200     1.0000 0.33970  0.79630  0.01140  Biso   1.000  C
  H123     1.0000 0.35410  0.75530  0.99540  Biso   1.000  H
  C201     1.0000 0.36830  0.85580  0.98888  Biso   1.000  C
  C202     1.0000 0.35010  0.91580  0.01410  Biso   1.000  C
  H124     1.0000 0.37020  0.95660  0.99950  Biso   1.000  H
  C203     1.0000 0.42180  0.85360  0.93917  Biso   1.000  C
  C204     1.0000 0.00150  0.33630  0.35370  Biso   1.000  C
  C205     1.0000 0.97070  0.36980  0.39520  Biso   1.000  C
  H125     1.0000 0.94550  0.34630  0.42350  Biso   1.000  H
  C206     1.0000 0.03770  0.37150  0.31530  Biso   1.000  C
  H126     1.0000 0.06210  0.34910  0.28630  Biso   1.000  H
  C207     1.0000 0.04000  0.44040  0.31730  Biso   1.000  C
  H127     1.0000 0.06370  0.46400  0.28880  Biso   1.000  H
  C208     1.0000 0.97610  0.43910  0.39610  Biso   1.000  C
  H128     1.0000 0.95440  0.46190  0.42550  Biso   1.000  H
  N19      1.0000 0.01040  0.47470  0.35731  Biso   1.000  N
  N20      1.0000 0.98780  0.02530  0.35690  Biso   1.000  N
  N21      1.0000 0.98990  0.26840  0.36610  Biso   1.000  N
  N22      1.0000 0.00120  0.23030  0.33590  Biso   1.000  N
  O37      1.0000 0.03920  0.90681  0.29371  Biso   1.000  O
  O38      1.0000 0.07400  0.79834  0.30252  Biso   1.000  O
  O39      1.0000 0.42800  0.79956  0.91646  Biso   1.000  O
  O40      1.0000 0.45670  0.90936  0.92385  Biso   1.000  O
  O41      1.0000 0.04330  0.90924  0.42388  Biso   1.000  O
  O42      1.0000 0.42560  0.79820  0.80270  Biso   1.000  O
  O43      1.0000 0.46080  0.90724  0.79410  Biso   1.000  O
  O44      1.0000 0.82810  0.92319  0.35370  Biso   1.000  O
  O45      1.0000 0.89400  0.82638  0.36063  Biso   1.000  O
  O46      1.0000 0.17090  0.57742  0.35340  Biso   1.000  O
  O47      1.0000 0.10620  0.67307  0.36106  Biso   1.000  O
  O48      1.0000 0.07190  0.79939  0.41658  Biso   1.000  O
  Zn10     1.0000 0.97558  0.92181  0.35919  Biso   1.000  Zn
  Zn11     1.0000 0.99991  0.74998  0.35938  Biso   1.000  Zn
  Zn12     1.0000 0.02440  0.57815  0.35932  Biso   1.000  Zn
  N23      1.0000 0.00630  0.24040  0.37390  Biso   1.000  N
  N24      1.0000 0.00180  0.26000  0.33120  Biso   1.000  N
