data_image0
_cell_length_a       13.617
_cell_length_b       14.3185
_cell_length_c       18.6289
_cell_angle_alpha    88.841
_cell_angle_beta     69.413
_cell_angle_gamma    79.69

_symmetry_space_group_name_H-M    "P 1"
_symmetry_int_tables_number       1

loop_
  _symmetry_equiv_pos_as_xyz
  'x, y, z'

loop_
  _atom_site_label
  _atom_site_occupancy
  _atom_site_fract_x
  _atom_site_fract_y
  _atom_site_fract_z
  _atom_site_thermal_displace_type
  _atom_site_B_iso_or_equiv
  _atom_site_type_symbol
  Ni1      1.0000 0.20117  0.19360  0.47930  Biso   1.000  Ni
  C1       1.0000 0.30260  0.90150  0.80080  Biso   1.000  C
  C2       1.0000 0.40440  0.91830  0.76280  Biso   1.000  C
  H1       1.0000 0.42560  0.96970  0.77920  Biso   1.000  H
  C3       1.0000 0.47580  0.86100  0.70100  Biso   1.000  C
  C4       1.0000 0.43980  0.78910  0.67450  Biso   1.000  C
  H2       1.0000 0.48680  0.75140  0.63200  Biso   1.000  H
  C5       1.0000 0.33580  0.76990  0.70870  Biso   1.000  C
  C6       1.0000 0.26950  0.82840  0.77240  Biso   1.000  C
  H3       1.0000 0.20020  0.81820  0.79700  Biso   1.000  H
  C7       1.0000 0.22720  0.96570  0.86740  Biso   1.000  C
  C8       1.0000 0.58580  0.87610  0.66100  Biso   1.000  C
  C9       1.0000 0.28740  0.70710  0.66990  Biso   1.000  C
  H4       1.0000 0.22680  0.68660  0.70820  Biso   1.000  H
  H5       1.0000 0.26210  0.74350  0.63330  Biso   1.000  H
  C10      1.0000 0.37280  0.55750  0.68650  Biso   1.000  C
  H6       1.0000 0.30170  0.54460  0.71330  Biso   1.000  H
  H7       1.0000 0.39450  0.58720  0.72340  Biso   1.000  H
  C11      1.0000 0.44730  0.46560  0.65690  Biso   1.000  C
  H8       1.0000 0.41720  0.43210  0.62740  Biso   1.000  H
  H9       1.0000 0.44720  0.42820  0.70090  Biso   1.000  H
  C12      1.0000 0.56340  0.46560  0.60760  Biso   1.000  C
  H10      1.0000 0.56530  0.51340  0.56970  Biso   1.000  H
  H11      1.0000 0.59970  0.48400  0.64000  Biso   1.000  H
  C13      1.0000 0.60400  0.35630  0.50150  Biso   1.000  C
  C14      1.0000 0.66680  0.41210  0.43170  Biso   1.000  C
  C15      1.0000 0.62810  0.30110  0.62210  Biso   1.000  C
  H12      1.0000 0.65120  0.24040  0.59350  Biso   1.000  H
  H13      1.0000 0.55740  0.30150  0.65950  Biso   1.000  H
  C16      1.0000 0.99990  0.25740  0.62550  Biso   1.000  C
  C17      1.0000 0.69220  0.40630  0.85430  Biso   1.000  C
  C18      1.0000 0.73370  0.35930  0.77670  Biso   1.000  C
  C19      1.0000 0.66380  0.34900  0.73740  Biso   1.000  C
  H14      1.0000 0.59080  0.36990  0.76150  Biso   1.000  H
  C20      1.0000 0.70240  0.30860  0.66420  Biso   1.000  C
  C21      1.0000 0.81050  0.27710  0.62840  Biso   1.000  C
  H15      1.0000 0.83690  0.24850  0.57930  Biso   1.000  H
  C22      1.0000 0.88130  0.28850  0.66650  Biso   1.000  C
  C23      1.0000 0.84110  0.32960  0.73790  Biso   1.000  C
  H16      1.0000 0.88830  0.33820  0.76200  Biso   1.000  H
  C24      1.0000 0.78960  0.12190  0.86900  Biso   1.000  C
  H17      1.0000 0.81120  0.18070  0.85030  Biso   1.000  H
  H18      1.0000 0.73160  0.13390  0.91740  Biso   1.000  H
  H19      1.0000 0.76690  0.09340  0.83280  Biso   1.000  H
  C25      1.0000 0.97740  0.03170  0.80590  Biso   1.000  C
  H20      1.0000 0.00310  0.08930  0.78800  Biso   1.000  H
  H21      1.0000 0.95430  0.00610  0.76860  Biso   1.000  H
  H22      1.0000 0.03380  0.98640  0.81330  Biso   1.000  H
  C26      1.0000 0.88640  0.05260  0.87990  Biso   1.000  C
  C27      1.0000 0.84520  0.95880  0.90700  Biso   1.000  C
  H23      1.0000 0.78540  0.97490  0.95480  Biso   1.000  H
  H24      1.0000 0.81620  0.94060  0.86980  Biso   1.000  H
  C28      1.0000 0.91370  0.87170  0.91990  Biso   1.000  C
  C29      1.0000 0.83900  0.80190  0.92020  Biso   1.000  C
  C30      1.0000 0.00550  0.80170  0.00720  Biso   1.000  C
  H25      1.0000 0.96970  0.74750  0.01620  Biso   1.000  H
  H26      1.0000 0.07080  0.78550  0.96300  Biso   1.000  H
  C31      1.0000 0.03190  0.82170  0.07500  Biso   1.000  C
  H27      1.0000 0.08210  0.76880  0.08260  Biso   1.000  H
  H28      1.0000 0.96810  0.83200  0.12060  Biso   1.000  H
  C32      1.0000 0.49200  0.79930  0.92480  Biso   1.000  C
  H29      1.0000 0.56170  0.81000  0.91970  Biso   1.000  H
  H30      1.0000 0.44240  0.82160  0.97490  Biso   1.000  H
  H31      1.0000 0.46950  0.83290  0.88650  Biso   1.000  H
  C33      1.0000 0.57390  0.64960  0.83410  Biso   1.000  C
  H32      1.0000 0.64420  0.65870  0.82900  Biso   1.000  H
  H33      1.0000 0.55230  0.68360  0.79560  Biso   1.000  H
  H34      1.0000 0.57440  0.58310  0.82780  Biso   1.000  H
  C34      1.0000 0.49600  0.68670  0.91330  Biso   1.000  C
  C35      1.0000 0.38240  0.67610  0.92260  Biso   1.000  C
  H35      1.0000 0.33700  0.69630  0.97500  Biso   1.000  H
  H36      1.0000 0.35880  0.72050  0.88940  Biso   1.000  H
  C36      1.0000 0.36290  0.58370  0.90700  Biso   1.000  C
  H37      1.0000 0.41750  0.55740  0.85820  Biso   1.000  H
  C37      1.0000 0.25030  0.59480  0.89840  Biso   1.000  C
  H38      1.0000 0.23790  0.53350  0.88790  Biso   1.000  H
  H39      1.0000 0.24870  0.63520  0.85700  Biso   1.000  H
  H40      1.0000 0.19590  0.62250  0.94520  Biso   1.000  H
  C38      1.0000 0.35350  0.41830  0.95540  Biso   1.000  C
  H41      1.0000 0.40600  0.39060  0.90700  Biso   1.000  H
  H42      1.0000 0.28290  0.42050  0.95340  Biso   1.000  H
  C39      1.0000 0.36630  0.35840  0.02210  Biso   1.000  C
  H43      1.0000 0.31070  0.38350  0.07000  Biso   1.000  H
  H44      1.0000 0.36100  0.29310  0.01360  Biso   1.000  H
  C40      1.0000 0.15300  0.49020  0.38860  Biso   1.000  C
  C41      1.0000 0.14030  0.37270  0.40280  Biso   1.000  C
  C42      1.0000 0.13650  0.30650  0.34190  Biso   1.000  C
  H45      1.0000 0.10300  0.34510  0.31040  Biso   1.000  H
  H46      1.0000 0.20970  0.28270  0.30930  Biso   1.000  H
  C43      1.0000 0.08570  0.22760  0.36150  Biso   1.000  C
  C44      1.0000 0.97710  0.25760  0.40740  Biso   1.000  C
  H47      1.0000 0.94330  0.20320  0.42110  Biso   1.000  H
  H48      1.0000 0.94200  0.29910  0.37910  Biso   1.000  H
  H49      1.0000 0.97210  0.29090  0.45310  Biso   1.000  H
  C45      1.0000 0.08300  0.18670  0.28800  Biso   1.000  C
  H50      1.0000 0.04440  0.13500  0.29960  Biso   1.000  H
  H51      1.0000 0.15450  0.16390  0.25370  Biso   1.000  H
  H52      1.0000 0.04810  0.23510  0.26410  Biso   1.000  H
  C46      1.0000 0.10450  0.06380  0.42420  Biso   1.000  C
  H53      1.0000 0.03330  0.07990  0.46240  Biso   1.000  H
  H54      1.0000 0.10040  0.02830  0.38190  Biso   1.000  H
  C47      1.0000 0.17320  0.00720  0.45700  Biso   1.000  C
  H55      1.0000 0.14240  0.95250  0.47890  Biso   1.000  H
  H56      1.0000 0.24120  0.98410  0.41680  Biso   1.000  H
  C48      1.0000 0.23370  0.91980  0.59380  Biso   1.000  C
  C49      1.0000 0.26940  0.00980  0.55240  Biso   1.000  C
  C50      1.0000 0.27390  0.07380  0.61260  Biso   1.000  C
  C51      1.0000 0.32850  0.16010  0.58800  Biso   1.000  C
  C52      1.0000 0.43940  0.13840  0.54800  Biso   1.000  C
  C53      1.0000 0.29390  0.31860  0.53790  Biso   1.000  C
  H57      1.0000 0.36400  0.30580  0.49810  Biso   1.000  H
  H58      1.0000 0.29960  0.35070  0.58130  Biso   1.000  H
  C54      1.0000 0.21740  0.38170  0.50830  Biso   1.000  C
  H59      1.0000 0.24300  0.44030  0.49120  Biso   1.000  H
  H60      1.0000 0.14780  0.39740  0.54840  Biso   1.000  H
  N1       1.0000 0.36860  0.62170  0.62930  Biso   1.000  N
  N2       1.0000 0.62090  0.37660  0.56860  Biso   1.000  N
  O1       1.0000 0.13670  0.94160  0.90150  Biso   1.000  O
  O2       1.0000 0.25630  0.03300  0.88600  Biso   1.000  O
  O3       1.0000 0.62480  0.93070  0.69350  Biso   1.000  O
  O4       1.0000 0.63900  0.83460  0.59930  Biso   1.000  O
  O5       1.0000 0.59570  0.43470  0.88770  Biso   1.000  O
  O6       1.0000 0.76050  0.41120  0.88550  Biso   1.000  O
  O7       1.0000 0.03720  0.22990  0.55850  Biso   1.000  O
  O8       1.0000 0.05330  0.26320  0.66740  Biso   1.000  O
  N3       1.0000 0.93580  0.88440  0.99020  Biso   1.000  N
  H61      1.0000 0.89500  0.90000  0.02500  Biso   1.000  H
  N4       1.0000 0.08040  0.90940  0.05950  Biso   1.000  N
  H62      1.0000 0.15060  0.87940  0.04230  Biso   1.000  H
  N5       1.0000 0.36880  0.51390  0.96890  Biso   1.000  N
  H63      1.0000 0.30600  0.53200  0.00700  Biso   1.000  H
  N6       1.0000 0.47560  0.36280  0.02530  Biso   1.000  N
  H64      1.0000 0.50930  0.32600  0.98200  Biso   1.000  H
  N7       1.0000 0.21020  0.32820  0.44220  Biso   1.000  N
  H65      1.0000 0.27190  0.32400  0.40200  Biso   1.000  H
  N8       1.0000 0.14520  0.15230  0.39610  Biso   1.000  N
  H66      1.0000 0.21420  0.12400  0.37800  Biso   1.000  H
  N9       1.0000 0.19150  0.05810  0.51610  Biso   1.000  N
  H67      1.0000 0.12460  0.06670  0.55040  Biso   1.000  H
  N10      1.0000 0.25910  0.23250  0.56070  Biso   1.000  N
  H68      1.0000 0.19100  0.25500  0.59000  Biso   1.000  H
  C55      1.0000 0.33400  0.19700  0.67780  Biso   1.000  C
  C56      1.0000 0.70300  0.35700  0.50200  Biso   1.000  C
  C57      1.0000 0.88000  0.77100  0.92400  Biso   1.000  C
  C58      1.0000 0.92100  0.76500  0.89200  Biso   1.000  C
  C59      1.0000 0.19100  0.45230  0.34750  Biso   1.000  C
  C60      1.0000 0.31900  0.21900  0.66700  Biso   1.000  C
  C61      1.0000 0.31700  0.04200  0.62500  Biso   1.000  C
  C62      1.0000 0.37400  0.19900  0.63700  Biso   1.000  C
  C63      1.0000 0.37900  0.96090  0.49930  Biso   1.000  C
  Ni2      1.0000 0.79883  0.80640  0.52070  Biso   1.000  Ni
  C64      1.0000 0.69740  0.09850  0.19920  Biso   1.000  C
  C65      1.0000 0.59560  0.08170  0.23720  Biso   1.000  C
  H69      1.0000 0.57440  0.03030  0.22080  Biso   1.000  H
  C66      1.0000 0.52420  0.13900  0.29900  Biso   1.000  C
  C67      1.0000 0.56020  0.21090  0.32550  Biso   1.000  C
  H70      1.0000 0.51320  0.24860  0.36800  Biso   1.000  H
  C68      1.0000 0.66420  0.23010  0.29130  Biso   1.000  C
  C69      1.0000 0.73050  0.17160  0.22760  Biso   1.000  C
  H71      1.0000 0.79980  0.18180  0.20300  Biso   1.000  H
  C70      1.0000 0.77280  0.03430  0.13260  Biso   1.000  C
  C71      1.0000 0.41420  0.12390  0.33900  Biso   1.000  C
  C72      1.0000 0.71260  0.29290  0.33010  Biso   1.000  C
  H72      1.0000 0.77320  0.31340  0.29180  Biso   1.000  H
  H73      1.0000 0.73790  0.25650  0.36670  Biso   1.000  H
  C73      1.0000 0.62720  0.44250  0.31350  Biso   1.000  C
  H74      1.0000 0.69830  0.45540  0.28670  Biso   1.000  H
  H75      1.0000 0.60550  0.41280  0.27660  Biso   1.000  H
  C74      1.0000 0.55270  0.53440  0.34310  Biso   1.000  C
  H76      1.0000 0.58280  0.56790  0.37260  Biso   1.000  H
  H77      1.0000 0.55280  0.57180  0.29910  Biso   1.000  H
  C75      1.0000 0.43660  0.53440  0.39240  Biso   1.000  C
  H78      1.0000 0.43470  0.48660  0.43030  Biso   1.000  H
  H79      1.0000 0.40030  0.51600  0.36000  Biso   1.000  H
  C76      1.0000 0.39600  0.64370  0.49850  Biso   1.000  C
  C77      1.0000 0.33320  0.58790  0.56830  Biso   1.000  C
  C78      1.0000 0.37190  0.69890  0.37790  Biso   1.000  C
  H80      1.0000 0.34880  0.75960  0.40650  Biso   1.000  H
  H81      1.0000 0.44260  0.69850  0.34050  Biso   1.000  H
  C79      1.0000 0.00010  0.74260  0.37450  Biso   1.000  C
  C80      1.0000 0.30780  0.59370  0.14570  Biso   1.000  C
  C81      1.0000 0.26630  0.64070  0.22330  Biso   1.000  C
  C82      1.0000 0.33620  0.65100  0.26260  Biso   1.000  C
  H82      1.0000 0.40920  0.63010  0.23850  Biso   1.000  H
  C83      1.0000 0.29760  0.69140  0.33580  Biso   1.000  C
  C84      1.0000 0.18950  0.72290  0.37160  Biso   1.000  C
  H83      1.0000 0.16310  0.75150  0.42070  Biso   1.000  H
  C85      1.0000 0.11870  0.71150  0.33350  Biso   1.000  C
  C86      1.0000 0.15890  0.67040  0.26210  Biso   1.000  C
  H84      1.0000 0.11170  0.66180  0.23800  Biso   1.000  H
  C87      1.0000 0.21040  0.87810  0.13100  Biso   1.000  C
  H85      1.0000 0.18880  0.81930  0.14970  Biso   1.000  H
  H86      1.0000 0.26840  0.86610  0.08260  Biso   1.000  H
  H87      1.0000 0.23310  0.90660  0.16720  Biso   1.000  H
  C88      1.0000 0.02260  0.96830  0.19410  Biso   1.000  C
  H88      1.0000 0.99690  0.91070  0.21200  Biso   1.000  H
  H89      1.0000 0.04570  0.99390  0.23140  Biso   1.000  H
  H90      1.0000 0.96620  0.01360  0.18670  Biso   1.000  H
  C89      1.0000 0.11360  0.94740  0.12010  Biso   1.000  C
  C90      1.0000 0.15480  0.04120  0.09300  Biso   1.000  C
  H91      1.0000 0.21460  0.02510  0.04520  Biso   1.000  H
  H92      1.0000 0.18380  0.05940  0.13020  Biso   1.000  H
  C91      1.0000 0.08630  0.12830  0.08010  Biso   1.000  C
  C92      1.0000 0.16100  0.19810  0.07980  Biso   1.000  C
  C93      1.0000 0.99450  0.19830  0.99280  Biso   1.000  C
  H93      1.0000 0.03030  0.25250  0.98380  Biso   1.000  H
  H94      1.0000 0.92920  0.21450  0.03700  Biso   1.000  H
  C94      1.0000 0.96810  0.17830  0.92500  Biso   1.000  C
  H95      1.0000 0.91790  0.23120  0.91740  Biso   1.000  H
  H96      1.0000 0.03190  0.16800  0.87940  Biso   1.000  H
  C95      1.0000 0.50800  0.20070  0.07520  Biso   1.000  C
  H97      1.0000 0.43830  0.19000  0.08030  Biso   1.000  H
  H98      1.0000 0.55760  0.17840  0.02510  Biso   1.000  H
  H99      1.0000 0.53050  0.16710  0.11350  Biso   1.000  H
  C96      1.0000 0.42610  0.35040  0.16590  Biso   1.000  C
  H100     1.0000 0.35580  0.34130  0.17100  Biso   1.000  H
  H101     1.0000 0.44770  0.31640  0.20440  Biso   1.000  H
  H102     1.0000 0.42560  0.41690  0.17220  Biso   1.000  H
  C97      1.0000 0.50400  0.31330  0.08670  Biso   1.000  C
  C98      1.0000 0.61760  0.32390  0.07740  Biso   1.000  C
  H103     1.0000 0.66300  0.30370  0.02500  Biso   1.000  H
  H104     1.0000 0.64120  0.27950  0.11060  Biso   1.000  H
  C99      1.0000 0.63710  0.41630  0.09300  Biso   1.000  C
  H105     1.0000 0.58250  0.44260  0.14180  Biso   1.000  H
  C100     1.0000 0.74970  0.40520  0.10160  Biso   1.000  C
  H106     1.0000 0.76210  0.46650  0.11210  Biso   1.000  H
  H107     1.0000 0.75130  0.36480  0.14300  Biso   1.000  H
  H108     1.0000 0.80410  0.37750  0.05480  Biso   1.000  H
  C101     1.0000 0.64650  0.58170  0.04460  Biso   1.000  C
  H109     1.0000 0.59400  0.60940  0.09300  Biso   1.000  H
  H110     1.0000 0.71710  0.57950  0.04660  Biso   1.000  H
  C102     1.0000 0.63370  0.64160  0.97790  Biso   1.000  C
  H111     1.0000 0.68930  0.61650  0.93000  Biso   1.000  H
  H112     1.0000 0.63900  0.70690  0.98640  Biso   1.000  H
  C103     1.0000 0.84700  0.50980  0.61140  Biso   1.000  C
  C104     1.0000 0.85970  0.62730  0.59720  Biso   1.000  C
  C105     1.0000 0.86350  0.69350  0.65810  Biso   1.000  C
  H113     1.0000 0.89700  0.65490  0.68960  Biso   1.000  H
  H114     1.0000 0.79030  0.71730  0.69070  Biso   1.000  H
  C106     1.0000 0.91430  0.77240  0.63850  Biso   1.000  C
  C107     1.0000 0.02290  0.74240  0.59260  Biso   1.000  C
  H115     1.0000 0.05670  0.79680  0.57890  Biso   1.000  H
  H116     1.0000 0.05800  0.70090  0.62090  Biso   1.000  H
  H117     1.0000 0.02790  0.70910  0.54690  Biso   1.000  H
  C108     1.0000 0.91700  0.81330  0.71200  Biso   1.000  C
  H118     1.0000 0.95560  0.86500  0.70040  Biso   1.000  H
  H119     1.0000 0.84550  0.83610  0.74630  Biso   1.000  H
  H120     1.0000 0.95190  0.76490  0.73590  Biso   1.000  H
  C109     1.0000 0.89550  0.93620  0.57580  Biso   1.000  C
  H121     1.0000 0.96670  0.92010  0.53760  Biso   1.000  H
  H122     1.0000 0.89960  0.97170  0.61810  Biso   1.000  H
  C110     1.0000 0.82680  0.99280  0.54300  Biso   1.000  C
  H123     1.0000 0.85760  0.04750  0.52110  Biso   1.000  H
  H124     1.0000 0.75880  0.01590  0.58320  Biso   1.000  H
  C111     1.0000 0.76630  0.08020  0.40620  Biso   1.000  C
  C112     1.0000 0.73060  0.99020  0.44760  Biso   1.000  C
  C113     1.0000 0.72610  0.92620  0.38740  Biso   1.000  C
  C114     1.0000 0.67150  0.83990  0.41200  Biso   1.000  C
  C115     1.0000 0.56060  0.86160  0.45200  Biso   1.000  C
  C116     1.0000 0.70610  0.68140  0.46210  Biso   1.000  C
  H125     1.0000 0.63600  0.69420  0.50190  Biso   1.000  H
  H126     1.0000 0.70040  0.64930  0.41870  Biso   1.000  H
  C117     1.0000 0.78260  0.61830  0.49170  Biso   1.000  C
  H127     1.0000 0.75700  0.55970  0.50880  Biso   1.000  H
  H128     1.0000 0.85220  0.60260  0.45160  Biso   1.000  H
  N11      1.0000 0.63140  0.37830  0.37070  Biso   1.000  N
  N12      1.0000 0.37910  0.62340  0.43140  Biso   1.000  N
  O9       1.0000 0.86330  0.05840  0.09850  Biso   1.000  O
  O10      1.0000 0.74370  0.96700  0.11400  Biso   1.000  O
  O11      1.0000 0.37520  0.06930  0.30650  Biso   1.000  O
  O12      1.0000 0.36100  0.16540  0.40070  Biso   1.000  O
  O13      1.0000 0.40430  0.56530  0.11230  Biso   1.000  O
  O14      1.0000 0.23950  0.58880  0.11450  Biso   1.000  O
  O15      1.0000 0.96280  0.77010  0.44150  Biso   1.000  O
  O16      1.0000 0.94670  0.73680  0.33260  Biso   1.000  O
  N13      1.0000 0.06420  0.11560  0.00980  Biso   1.000  N
  H129     1.0000 0.10500  0.10000  0.97500  Biso   1.000  H
  N14      1.0000 0.91960  0.09060  0.94050  Biso   1.000  N
  H130     1.0000 0.84940  0.12060  0.95770  Biso   1.000  H
  N15      1.0000 0.63120  0.48610  0.03110  Biso   1.000  N
  H131     1.0000 0.69400  0.46800  0.99300  Biso   1.000  H
  N16      1.0000 0.52440  0.63720  0.97470  Biso   1.000  N
  H132     1.0000 0.49070  0.67400  0.01800  Biso   1.000  H
  N17      1.0000 0.78980  0.67180  0.55780  Biso   1.000  N
  H133     1.0000 0.72810  0.67600  0.59800  Biso   1.000  H
  N18      1.0000 0.85480  0.84770  0.60390  Biso   1.000  N
  H134     1.0000 0.78580  0.87600  0.62200  Biso   1.000  H
  N19      1.0000 0.80850  0.94190  0.48390  Biso   1.000  N
  H135     1.0000 0.87540  0.93330  0.44960  Biso   1.000  H
  N20      1.0000 0.74090  0.76750  0.43930  Biso   1.000  N
  H136     1.0000 0.80900  0.74500  0.41000  Biso   1.000  H
  C118     1.0000 0.66600  0.80300  0.32220  Biso   1.000  C
  C119     1.0000 0.29700  0.64300  0.49800  Biso   1.000  C
  C120     1.0000 0.12000  0.22900  0.07600  Biso   1.000  C
  C121     1.0000 0.07900  0.23500  0.10800  Biso   1.000  C
  C122     1.0000 0.80900  0.54770  0.65250  Biso   1.000  C
  C123     1.0000 0.68100  0.78100  0.33300  Biso   1.000  C
  C124     1.0000 0.68300  0.95800  0.37500  Biso   1.000  C
  C125     1.0000 0.62600  0.80100  0.36300  Biso   1.000  C
  C126     1.0000 0.62100  0.03910  0.50070  Biso   1.000  C
  Ni3      1.0000 0.00000  0.00000  0.00000  Biso   1.000  Ni
  Ni4      1.0000 0.50000  0.50000  0.00000  Biso   1.000  Ni
