data_image0
_cell_length_a       11.801
_cell_length_b       12.973
_cell_length_c       15.856
_cell_angle_alpha    98.15
_cell_angle_beta     108.39
_cell_angle_gamma    100.91

_symmetry_space_group_name_H-M    "P 1"
_symmetry_int_tables_number       1

loop_
  _symmetry_equiv_pos_as_xyz
  'x, y, z'

loop_
  _atom_site_label
  _atom_site_occupancy
  _atom_site_fract_x
  _atom_site_fract_y
  _atom_site_fract_z
  _atom_site_thermal_displace_type
  _atom_site_B_iso_or_equiv
  _atom_site_type_symbol
  Bi1      1.0000 0.36085  0.45993  0.30491  Biso   1.000  Bi
  Bi2      1.0000 0.94316  0.68732  0.93084  Biso   1.000  Bi
  K1       1.0000 0.72640  0.35570  0.91600  Biso   1.000  K
  K2       1.0000 0.05860  0.85110  0.18520  Biso   1.000  K
  K3       1.0000 0.81040  0.83720  0.67100  Biso   1.000  K
  K4       1.0000 0.42260  0.70080  0.54980  Biso   1.000  K
  K5       1.0000 0.43340  0.37310  0.03570  Biso   1.000  K
  C1       1.0000 0.28950  0.43630  0.46330  Biso   1.000  C
  C2       1.0000 0.25670  0.40400  0.54170  Biso   1.000  C
  C3       1.0000 0.37290  0.41780  0.62430  Biso   1.000  C
  C4       1.0000 0.33660  0.40010  0.70680  Biso   1.000  C
  C5       1.0000 0.44160  0.41610  0.79630  Biso   1.000  C
  C6       1.0000 0.43870  0.33150  0.60380  Biso   1.000  C
  O1       1.0000 0.35220  0.38630  0.43140  Biso   1.000  O
  O2       1.0000 0.25190  0.51120  0.43130  Biso   1.000  O
  O3       1.0000 0.44580  0.52360  0.64090  Biso   1.000  O
  O4       1.0000 0.55020  0.44530  0.79910  Biso   1.000  O
  O5       1.0000 0.41550  0.39950  0.86310  Biso   1.000  O
  O6       1.0000 0.38360  0.23630  0.58430  Biso   1.000  O
  O7       1.0000 0.55250  0.36220  0.61360  Biso   1.000  O
  C7       1.0000 0.87580  0.58690  0.07190  Biso   1.000  C
  C8       1.0000 0.88160  0.54590  0.15880  Biso   1.000  C
  C9       1.0000 0.96420  0.46620  0.17510  Biso   1.000  C
  C10      1.0000 0.95740  0.41990  0.25580  Biso   1.000  C
  C11      1.0000 0.03010  0.33690  0.27930  Biso   1.000  C
  C12      1.0000 0.09890  0.52860  0.19550  Biso   1.000  C
  O8       1.0000 0.97960  0.63290  0.06770  Biso   1.000  O
  O9       1.0000 0.77650  0.57280  0.01040  Biso   1.000  O
  O10      1.0000 0.92070  0.38390  0.09580  Biso   1.000  O
  O11      1.0000 0.10440  0.32020  0.23930  Biso   1.000  O
  O12      1.0000 0.02140  0.29200  0.34250  Biso   1.000  O
  O13      1.0000 0.14730  0.60790  0.25750  Biso   1.000  O
  O14      1.0000 0.15450  0.49090  0.14560  Biso   1.000  O
  C13      1.0000 0.35790  0.24640  0.20110  Biso   1.000  C
  C14      1.0000 0.37240  0.13850  0.16250  Biso   1.000  C
  C15      1.0000 0.25240  0.06640  0.08960  Biso   1.000  C
  C16      1.0000 0.27870  0.95710  0.05890  Biso   1.000  C
  C17      1.0000 0.16280  0.87240  0.00290  Biso   1.000  C
  C18      1.0000 0.21130  0.11950  0.00440  Biso   1.000  C
  O15      1.0000 0.38820  0.27470  0.28570  Biso   1.000  O
  O16      1.0000 0.31740  0.30620  0.14760  Biso   1.000  O
  O17      1.0000 0.15960  0.05400  0.12760  Biso   1.000  O
  O18      1.0000 0.10040  0.87620  0.92520  Biso   1.000  O
  O19      1.0000 0.13150  0.79590  0.03960  Biso   1.000  O
  O20      1.0000 0.28900  0.14290  0.96790  Biso   1.000  O
  O21      1.0000 0.10440  0.13040  0.98060  Biso   1.000  O
  O22      1.0000 0.04050  0.97140  0.77480  Biso   1.000  O
  O23      1.0000 0.41300  0.75700  0.99300  Biso   1.000  O
  O24      1.0000 0.27900  0.96900  0.34100  Biso   1.000  O
  O25      1.0000 0.33000  0.71200  0.92900  Biso   1.000  O
  H1       1.0000 0.20680  0.44740  0.55730  Biso   1.000  H
  H2       1.0000 0.21230  0.33060  0.52400  Biso   1.000  H
  H3       1.0000 0.28720  0.44780  0.71510  Biso   1.000  H
  H4       1.0000 0.28790  0.32850  0.69320  Biso   1.000  H
  H5       1.0000 0.80070  0.50920  0.15260  Biso   1.000  H
  H6       1.0000 0.91170  0.60540  0.20920  Biso   1.000  H
  H7       1.0000 0.87330  0.38710  0.24410  Biso   1.000  H
  H8       1.0000 0.98540  0.47760  0.30750  Biso   1.000  H
  H9       1.0000 0.43360  0.15050  0.13540  Biso   1.000  H
  H10      1.0000 0.39900  0.10230  0.21040  Biso   1.000  H
  H11      1.0000 0.32990  0.96660  0.02340  Biso   1.000  H
  H12      1.0000 0.32020  0.93330  0.11140  Biso   1.000  H
  Bi3      1.0000 0.63915  0.54007  0.69509  Biso   1.000  Bi
  Bi4      1.0000 0.05684  0.31268  0.06916  Biso   1.000  Bi
  K6       1.0000 0.27360  0.64430  0.08400  Biso   1.000  K
  K7       1.0000 0.94140  0.14890  0.81480  Biso   1.000  K
  K8       1.0000 0.18960  0.16280  0.32900  Biso   1.000  K
  K9       1.0000 0.57740  0.29920  0.45020  Biso   1.000  K
  K10      1.0000 0.56660  0.62690  0.96430  Biso   1.000  K
  C19      1.0000 0.71050  0.56370  0.53670  Biso   1.000  C
  C20      1.0000 0.74330  0.59600  0.45830  Biso   1.000  C
  C21      1.0000 0.62710  0.58220  0.37570  Biso   1.000  C
  C22      1.0000 0.66340  0.59990  0.29320  Biso   1.000  C
  C23      1.0000 0.55840  0.58390  0.20370  Biso   1.000  C
  C24      1.0000 0.56130  0.66850  0.39620  Biso   1.000  C
  O26      1.0000 0.64780  0.61370  0.56860  Biso   1.000  O
  O27      1.0000 0.74810  0.48880  0.56870  Biso   1.000  O
  O28      1.0000 0.55420  0.47640  0.35910  Biso   1.000  O
  O29      1.0000 0.44980  0.55470  0.20090  Biso   1.000  O
  O30      1.0000 0.58450  0.60050  0.13690  Biso   1.000  O
  O31      1.0000 0.61640  0.76370  0.41570  Biso   1.000  O
  O32      1.0000 0.44750  0.63780  0.38640  Biso   1.000  O
  C25      1.0000 0.12420  0.41310  0.92810  Biso   1.000  C
  C26      1.0000 0.11840  0.45410  0.84120  Biso   1.000  C
  C27      1.0000 0.03580  0.53380  0.82490  Biso   1.000  C
  C28      1.0000 0.04260  0.58010  0.74420  Biso   1.000  C
  C29      1.0000 0.96990  0.66310  0.72070  Biso   1.000  C
  C30      1.0000 0.90110  0.47140  0.80450  Biso   1.000  C
  O33      1.0000 0.02040  0.36710  0.93230  Biso   1.000  O
  O34      1.0000 0.22350  0.42720  0.98960  Biso   1.000  O
  O35      1.0000 0.07930  0.61610  0.90420  Biso   1.000  O
  O36      1.0000 0.89560  0.67980  0.76070  Biso   1.000  O
  O37      1.0000 0.97860  0.70800  0.65750  Biso   1.000  O
  O38      1.0000 0.85270  0.39210  0.74250  Biso   1.000  O
  O39      1.0000 0.84550  0.50910  0.85440  Biso   1.000  O
  C31      1.0000 0.64210  0.75360  0.79890  Biso   1.000  C
  C32      1.0000 0.62760  0.86150  0.83750  Biso   1.000  C
  C33      1.0000 0.74760  0.93360  0.91040  Biso   1.000  C
  C34      1.0000 0.72130  0.04290  0.94110  Biso   1.000  C
  C35      1.0000 0.83720  0.12760  0.99710  Biso   1.000  C
  C36      1.0000 0.78870  0.88050  0.99560  Biso   1.000  C
  O40      1.0000 0.61180  0.72530  0.71430  Biso   1.000  O
  O41      1.0000 0.68260  0.69380  0.85240  Biso   1.000  O
  O42      1.0000 0.84040  0.94600  0.87240  Biso   1.000  O
  O43      1.0000 0.89960  0.12380  0.07480  Biso   1.000  O
  O44      1.0000 0.86850  0.20410  0.96040  Biso   1.000  O
  O45      1.0000 0.71100  0.85710  0.03210  Biso   1.000  O
  O46      1.0000 0.89560  0.86960  0.01940  Biso   1.000  O
  O47      1.0000 0.95950  0.02860  0.22520  Biso   1.000  O
  O48      1.0000 0.58700  0.24300  0.00700  Biso   1.000  O
  O49      1.0000 0.72100  0.03100  0.65900  Biso   1.000  O
  O50      1.0000 0.67000  0.28800  0.07100  Biso   1.000  O
  H13      1.0000 0.79320  0.55260  0.44270  Biso   1.000  H
  H14      1.0000 0.78770  0.66940  0.47600  Biso   1.000  H
  H15      1.0000 0.71280  0.55220  0.28490  Biso   1.000  H
  H16      1.0000 0.71210  0.67150  0.30680  Biso   1.000  H
  H17      1.0000 0.19930  0.49080  0.84740  Biso   1.000  H
  H18      1.0000 0.08830  0.39460  0.79080  Biso   1.000  H
  H19      1.0000 0.12670  0.61290  0.75590  Biso   1.000  H
  H20      1.0000 0.01460  0.52240  0.69250  Biso   1.000  H
  H21      1.0000 0.56640  0.84950  0.86460  Biso   1.000  H
  H22      1.0000 0.60100  0.89770  0.78960  Biso   1.000  H
  H23      1.0000 0.67010  0.03340  0.97660  Biso   1.000  H
  H24      1.0000 0.67980  0.06670  0.88860  Biso   1.000  H
