data_image0
_cell_length_a       12.7559
_cell_length_b       12.7559
_cell_length_c       17.741
_cell_angle_alpha    90
_cell_angle_beta     90
_cell_angle_gamma    120

_symmetry_space_group_name_H-M    "P 1"
_symmetry_int_tables_number       1

loop_
  _symmetry_equiv_pos_as_xyz
  'x, y, z'

loop_
  _atom_site_label
  _atom_site_occupancy
  _atom_site_fract_x
  _atom_site_fract_y
  _atom_site_fract_z
  _atom_site_thermal_displace_type
  _atom_site_B_iso_or_equiv
  _atom_site_type_symbol
  O1       1.0000 0.94450  0.35110  0.08520  Biso   1.000  O
  O2       1.0000 0.82020  0.38480  0.15290  Biso   1.000  O
  C1       1.0000 0.87550  0.32900  0.14040  Biso   1.000  C
  C2       1.0000 0.82600  0.20000  0.17600  Biso   1.000  C
  H1       1.0000 0.76120  0.13720  0.14610  Biso   1.000  H
  H2       1.0000 0.88950  0.18010  0.18310  Biso   1.000  H
  C3       1.0000 0.90000  0.27800  0.21000  Biso   1.000  C
  H3       1.0000 0.92430  0.21940  0.19770  Biso   1.000  H
  H4       1.0000 0.96260  0.34190  0.24070  Biso   1.000  H
  O3       1.0000 0.64890  0.59340  0.08520  Biso   1.000  O
  O4       1.0000 0.61520  0.43540  0.15290  Biso   1.000  O
  C4       1.0000 0.67100  0.54650  0.14040  Biso   1.000  C
  C5       1.0000 0.80000  0.62600  0.17600  Biso   1.000  C
  H5       1.0000 0.86280  0.62400  0.14610  Biso   1.000  H
  H6       1.0000 0.81990  0.70940  0.18310  Biso   1.000  H
  C6       1.0000 0.72200  0.62200  0.21000  Biso   1.000  C
  H7       1.0000 0.78060  0.70490  0.19770  Biso   1.000  H
  H8       1.0000 0.65810  0.62070  0.24070  Biso   1.000  H
  O5       1.0000 0.40660  0.05550  0.08520  Biso   1.000  O
  O6       1.0000 0.56460  0.17980  0.15290  Biso   1.000  O
  C7       1.0000 0.45350  0.12450  0.14040  Biso   1.000  C
  C8       1.0000 0.37400  0.17400  0.17600  Biso   1.000  C
  H9       1.0000 0.37600  0.23880  0.14610  Biso   1.000  H
  H10      1.0000 0.29060  0.11050  0.18310  Biso   1.000  H
  C9       1.0000 0.37800  0.10000  0.21000  Biso   1.000  C
  H11      1.0000 0.29510  0.07570  0.19770  Biso   1.000  H
  H12      1.0000 0.37930  0.03740  0.24070  Biso   1.000  H
  O7       1.0000 0.05550  0.64890  0.08520  Biso   1.000  O
  O8       1.0000 0.17980  0.61520  0.15290  Biso   1.000  O
  C10      1.0000 0.12450  0.67100  0.14040  Biso   1.000  C
  C11      1.0000 0.17400  0.80000  0.17600  Biso   1.000  C
  H13      1.0000 0.23880  0.86280  0.14610  Biso   1.000  H
  H14      1.0000 0.11050  0.81990  0.18310  Biso   1.000  H
  C12      1.0000 0.10000  0.72200  0.21000  Biso   1.000  C
  H15      1.0000 0.07570  0.78060  0.19770  Biso   1.000  H
  H16      1.0000 0.03740  0.65810  0.24070  Biso   1.000  H
  O9       1.0000 0.35110  0.40660  0.08520  Biso   1.000  O
  O10      1.0000 0.38480  0.56460  0.15290  Biso   1.000  O
  C13      1.0000 0.32900  0.45350  0.14040  Biso   1.000  C
  C14      1.0000 0.20000  0.37400  0.17600  Biso   1.000  C
  H17      1.0000 0.13720  0.37600  0.14610  Biso   1.000  H
  H18      1.0000 0.18010  0.29060  0.18310  Biso   1.000  H
  C15      1.0000 0.27800  0.37800  0.21000  Biso   1.000  C
  H19      1.0000 0.21940  0.29510  0.19770  Biso   1.000  H
  H20      1.0000 0.34190  0.37930  0.24070  Biso   1.000  H
  O11      1.0000 0.59340  0.94450  0.08520  Biso   1.000  O
  O12      1.0000 0.43540  0.82020  0.15290  Biso   1.000  O
  C16      1.0000 0.54650  0.87550  0.14040  Biso   1.000  C
  C17      1.0000 0.62600  0.82600  0.17600  Biso   1.000  C
  H21      1.0000 0.62400  0.76120  0.14610  Biso   1.000  H
  H22      1.0000 0.70940  0.88950  0.18310  Biso   1.000  H
  C18      1.0000 0.62200  0.90000  0.21000  Biso   1.000  C
  H23      1.0000 0.70490  0.92430  0.19770  Biso   1.000  H
  H24      1.0000 0.62070  0.96260  0.24070  Biso   1.000  H
  O13      1.0000 0.35110  0.94450  0.41480  Biso   1.000  O
  O14      1.0000 0.38480  0.82020  0.34710  Biso   1.000  O
  C19      1.0000 0.32900  0.87550  0.35960  Biso   1.000  C
  C20      1.0000 0.20000  0.82600  0.32400  Biso   1.000  C
  H25      1.0000 0.13720  0.76120  0.35390  Biso   1.000  H
  H26      1.0000 0.18010  0.88950  0.31690  Biso   1.000  H
  C21      1.0000 0.27800  0.90000  0.29000  Biso   1.000  C
  H27      1.0000 0.21940  0.92430  0.30230  Biso   1.000  H
  H28      1.0000 0.34190  0.96260  0.25930  Biso   1.000  H
  O15      1.0000 0.59340  0.64890  0.41480  Biso   1.000  O
  O16      1.0000 0.43540  0.61520  0.34710  Biso   1.000  O
  C22      1.0000 0.54650  0.67100  0.35960  Biso   1.000  C
  C23      1.0000 0.62600  0.80000  0.32400  Biso   1.000  C
  H29      1.0000 0.62400  0.86280  0.35390  Biso   1.000  H
  H30      1.0000 0.70940  0.81990  0.31690  Biso   1.000  H
  C24      1.0000 0.62200  0.72200  0.29000  Biso   1.000  C
  H31      1.0000 0.70490  0.78060  0.30230  Biso   1.000  H
  H32      1.0000 0.62070  0.65810  0.25930  Biso   1.000  H
  O17      1.0000 0.05550  0.40660  0.41480  Biso   1.000  O
  O18      1.0000 0.17980  0.56460  0.34710  Biso   1.000  O
  C25      1.0000 0.12450  0.45350  0.35960  Biso   1.000  C
  C26      1.0000 0.17400  0.37400  0.32400  Biso   1.000  C
  H33      1.0000 0.23880  0.37600  0.35390  Biso   1.000  H
  H34      1.0000 0.11050  0.29060  0.31690  Biso   1.000  H
  C27      1.0000 0.10000  0.37800  0.29000  Biso   1.000  C
  H35      1.0000 0.07570  0.29510  0.30230  Biso   1.000  H
  H36      1.0000 0.03740  0.37930  0.25930  Biso   1.000  H
  O19      1.0000 0.64890  0.05550  0.41480  Biso   1.000  O
  O20      1.0000 0.61520  0.17980  0.34710  Biso   1.000  O
  C28      1.0000 0.67100  0.12450  0.35960  Biso   1.000  C
  C29      1.0000 0.80000  0.17400  0.32400  Biso   1.000  C
  H37      1.0000 0.86280  0.23880  0.35390  Biso   1.000  H
  H38      1.0000 0.81990  0.11050  0.31690  Biso   1.000  H
  C30      1.0000 0.72200  0.10000  0.29000  Biso   1.000  C
  H39      1.0000 0.78060  0.07570  0.30230  Biso   1.000  H
  H40      1.0000 0.65810  0.03740  0.25930  Biso   1.000  H
  O21      1.0000 0.40660  0.35110  0.41480  Biso   1.000  O
  O22      1.0000 0.56460  0.38480  0.34710  Biso   1.000  O
  C31      1.0000 0.45350  0.32900  0.35960  Biso   1.000  C
  C32      1.0000 0.37400  0.20000  0.32400  Biso   1.000  C
  H41      1.0000 0.37600  0.13720  0.35390  Biso   1.000  H
  H42      1.0000 0.29060  0.18010  0.31690  Biso   1.000  H
  C33      1.0000 0.37800  0.27800  0.29000  Biso   1.000  C
  H43      1.0000 0.29510  0.21940  0.30230  Biso   1.000  H
  H44      1.0000 0.37930  0.34190  0.25930  Biso   1.000  H
  O23      1.0000 0.94450  0.59340  0.41480  Biso   1.000  O
  O24      1.0000 0.82020  0.43540  0.34710  Biso   1.000  O
  C34      1.0000 0.87550  0.54650  0.35960  Biso   1.000  C
  C35      1.0000 0.82600  0.62600  0.32400  Biso   1.000  C
  H45      1.0000 0.76120  0.62400  0.35390  Biso   1.000  H
  H46      1.0000 0.88950  0.70940  0.31690  Biso   1.000  H
  C36      1.0000 0.90000  0.62200  0.29000  Biso   1.000  C
  H47      1.0000 0.92430  0.70490  0.30230  Biso   1.000  H
  H48      1.0000 0.96260  0.62070  0.25930  Biso   1.000  H
  O25      1.0000 0.05550  0.64890  0.91480  Biso   1.000  O
  O26      1.0000 0.17980  0.61520  0.84710  Biso   1.000  O
  C37      1.0000 0.12450  0.67100  0.85960  Biso   1.000  C
  C38      1.0000 0.17400  0.80000  0.82400  Biso   1.000  C
  H49      1.0000 0.23880  0.86280  0.85390  Biso   1.000  H
  H50      1.0000 0.11050  0.81990  0.81690  Biso   1.000  H
  C39      1.0000 0.10000  0.72200  0.79000  Biso   1.000  C
  H51      1.0000 0.07570  0.78060  0.80230  Biso   1.000  H
  H52      1.0000 0.03740  0.65810  0.75930  Biso   1.000  H
  O27      1.0000 0.35110  0.40660  0.91480  Biso   1.000  O
  O28      1.0000 0.38480  0.56460  0.84710  Biso   1.000  O
  C40      1.0000 0.32900  0.45350  0.85960  Biso   1.000  C
  C41      1.0000 0.20000  0.37400  0.82400  Biso   1.000  C
  H53      1.0000 0.13720  0.37600  0.85390  Biso   1.000  H
  H54      1.0000 0.18010  0.29060  0.81690  Biso   1.000  H
  C42      1.0000 0.27800  0.37800  0.79000  Biso   1.000  C
  H55      1.0000 0.21940  0.29510  0.80230  Biso   1.000  H
  H56      1.0000 0.34190  0.37930  0.75930  Biso   1.000  H
  O29      1.0000 0.59340  0.94450  0.91480  Biso   1.000  O
  O30      1.0000 0.43540  0.82020  0.84710  Biso   1.000  O
  C43      1.0000 0.54650  0.87550  0.85960  Biso   1.000  C
  C44      1.0000 0.62600  0.82600  0.82400  Biso   1.000  C
  H57      1.0000 0.62400  0.76120  0.85390  Biso   1.000  H
  H58      1.0000 0.70940  0.88950  0.81690  Biso   1.000  H
  C45      1.0000 0.62200  0.90000  0.79000  Biso   1.000  C
  H59      1.0000 0.70490  0.92430  0.80230  Biso   1.000  H
  H60      1.0000 0.62070  0.96260  0.75930  Biso   1.000  H
  O31      1.0000 0.94450  0.35110  0.91480  Biso   1.000  O
  O32      1.0000 0.82020  0.38480  0.84710  Biso   1.000  O
  C46      1.0000 0.87550  0.32900  0.85960  Biso   1.000  C
  C47      1.0000 0.82600  0.20000  0.82400  Biso   1.000  C
  H61      1.0000 0.76120  0.13720  0.85390  Biso   1.000  H
  H62      1.0000 0.88950  0.18010  0.81690  Biso   1.000  H
  C48      1.0000 0.90000  0.27800  0.79000  Biso   1.000  C
  H63      1.0000 0.92430  0.21940  0.80230  Biso   1.000  H
  H64      1.0000 0.96260  0.34190  0.75930  Biso   1.000  H
  O33      1.0000 0.64890  0.59340  0.91480  Biso   1.000  O
  O34      1.0000 0.61520  0.43540  0.84710  Biso   1.000  O
  C49      1.0000 0.67100  0.54650  0.85960  Biso   1.000  C
  C50      1.0000 0.80000  0.62600  0.82400  Biso   1.000  C
  H65      1.0000 0.86280  0.62400  0.85390  Biso   1.000  H
  H66      1.0000 0.81990  0.70940  0.81690  Biso   1.000  H
  C51      1.0000 0.72200  0.62200  0.79000  Biso   1.000  C
  H67      1.0000 0.78060  0.70490  0.80230  Biso   1.000  H
  H68      1.0000 0.65810  0.62070  0.75930  Biso   1.000  H
  O35      1.0000 0.40660  0.05550  0.91480  Biso   1.000  O
  O36      1.0000 0.56460  0.17980  0.84710  Biso   1.000  O
  C52      1.0000 0.45350  0.12450  0.85960  Biso   1.000  C
  C53      1.0000 0.37400  0.17400  0.82400  Biso   1.000  C
  H69      1.0000 0.37600  0.23880  0.85390  Biso   1.000  H
  H70      1.0000 0.29060  0.11050  0.81690  Biso   1.000  H
  C54      1.0000 0.37800  0.10000  0.79000  Biso   1.000  C
  H71      1.0000 0.29510  0.07570  0.80230  Biso   1.000  H
  H72      1.0000 0.37930  0.03740  0.75930  Biso   1.000  H
  O37      1.0000 0.64890  0.05550  0.58520  Biso   1.000  O
  O38      1.0000 0.61520  0.17980  0.65290  Biso   1.000  O
  C55      1.0000 0.67100  0.12450  0.64040  Biso   1.000  C
  C56      1.0000 0.80000  0.17400  0.67600  Biso   1.000  C
  H73      1.0000 0.86280  0.23880  0.64610  Biso   1.000  H
  H74      1.0000 0.81990  0.11050  0.68310  Biso   1.000  H
  C57      1.0000 0.72200  0.10000  0.71000  Biso   1.000  C
  H75      1.0000 0.78060  0.07570  0.69770  Biso   1.000  H
  H76      1.0000 0.65810  0.03740  0.74070  Biso   1.000  H
  O39      1.0000 0.40660  0.35110  0.58520  Biso   1.000  O
  O40      1.0000 0.56460  0.38480  0.65290  Biso   1.000  O
  C58      1.0000 0.45350  0.32900  0.64040  Biso   1.000  C
  C59      1.0000 0.37400  0.20000  0.67600  Biso   1.000  C
  H77      1.0000 0.37600  0.13720  0.64610  Biso   1.000  H
  H78      1.0000 0.29060  0.18010  0.68310  Biso   1.000  H
  C60      1.0000 0.37800  0.27800  0.71000  Biso   1.000  C
  H79      1.0000 0.29510  0.21940  0.69770  Biso   1.000  H
  H80      1.0000 0.37930  0.34190  0.74070  Biso   1.000  H
  O41      1.0000 0.94450  0.59340  0.58520  Biso   1.000  O
  O42      1.0000 0.82020  0.43540  0.65290  Biso   1.000  O
  C61      1.0000 0.87550  0.54650  0.64040  Biso   1.000  C
  C62      1.0000 0.82600  0.62600  0.67600  Biso   1.000  C
  H81      1.0000 0.76120  0.62400  0.64610  Biso   1.000  H
  H82      1.0000 0.88950  0.70940  0.68310  Biso   1.000  H
  C63      1.0000 0.90000  0.62200  0.71000  Biso   1.000  C
  H83      1.0000 0.92430  0.70490  0.69770  Biso   1.000  H
  H84      1.0000 0.96260  0.62070  0.74070  Biso   1.000  H
  O43      1.0000 0.35110  0.94450  0.58520  Biso   1.000  O
  O44      1.0000 0.38480  0.82020  0.65290  Biso   1.000  O
  C64      1.0000 0.32900  0.87550  0.64040  Biso   1.000  C
  C65      1.0000 0.20000  0.82600  0.67600  Biso   1.000  C
  H85      1.0000 0.13720  0.76120  0.64610  Biso   1.000  H
  H86      1.0000 0.18010  0.88950  0.68310  Biso   1.000  H
  C66      1.0000 0.27800  0.90000  0.71000  Biso   1.000  C
  H87      1.0000 0.21940  0.92430  0.69770  Biso   1.000  H
  H88      1.0000 0.34190  0.96260  0.74070  Biso   1.000  H
  O45      1.0000 0.59340  0.64890  0.58520  Biso   1.000  O
  O46      1.0000 0.43540  0.61520  0.65290  Biso   1.000  O
  C67      1.0000 0.54650  0.67100  0.64040  Biso   1.000  C
  C68      1.0000 0.62600  0.80000  0.67600  Biso   1.000  C
  H89      1.0000 0.62400  0.86280  0.64610  Biso   1.000  H
  H90      1.0000 0.70940  0.81990  0.68310  Biso   1.000  H
  C69      1.0000 0.62200  0.72200  0.71000  Biso   1.000  C
  H91      1.0000 0.70490  0.78060  0.69770  Biso   1.000  H
  H92      1.0000 0.62070  0.65810  0.74070  Biso   1.000  H
  O47      1.0000 0.05550  0.40660  0.58520  Biso   1.000  O
  O48      1.0000 0.17980  0.56460  0.65290  Biso   1.000  O
  C70      1.0000 0.12450  0.45350  0.64040  Biso   1.000  C
  C71      1.0000 0.17400  0.37400  0.67600  Biso   1.000  C
  H93      1.0000 0.23880  0.37600  0.64610  Biso   1.000  H
  H94      1.0000 0.11050  0.29060  0.68310  Biso   1.000  H
  C72      1.0000 0.10000  0.37800  0.71000  Biso   1.000  C
  H95      1.0000 0.07570  0.29510  0.69770  Biso   1.000  H
  H96      1.0000 0.03740  0.37930  0.74070  Biso   1.000  H
  Nd1      1.0000 0.66667  0.33333  0.25000  Biso   1.000  Nd
  Nd2      1.0000 0.33333  0.66667  0.25000  Biso   1.000  Nd
  Nd3      1.0000 0.33333  0.66667  0.75000  Biso   1.000  Nd
  Nd4      1.0000 0.66667  0.33333  0.75000  Biso   1.000  Nd
  Cd1      1.0000 0.00000  0.50000  0.00000  Biso   1.000  Cd
  Cd2      1.0000 0.50000  0.50000  0.00000  Biso   1.000  Cd
  Cd3      1.0000 0.50000  0.00000  0.00000  Biso   1.000  Cd
  Cd4      1.0000 0.50000  0.00000  0.50000  Biso   1.000  Cd
  Cd5      1.0000 0.50000  0.50000  0.50000  Biso   1.000  Cd
  Cd6      1.0000 0.00000  0.50000  0.50000  Biso   1.000  Cd
  O49      1.0000 0.78030  0.21970  0.25000  Biso   1.000  O
  O50      1.0000 0.78030  0.56060  0.25000  Biso   1.000  O
  O51      1.0000 0.43940  0.21970  0.25000  Biso   1.000  O
  O52      1.0000 0.21970  0.78030  0.25000  Biso   1.000  O
  O53      1.0000 0.21970  0.43940  0.25000  Biso   1.000  O
  O54      1.0000 0.56060  0.78030  0.25000  Biso   1.000  O
  O55      1.0000 0.21970  0.78030  0.75000  Biso   1.000  O
  O56      1.0000 0.21970  0.43940  0.75000  Biso   1.000  O
  O57      1.0000 0.56060  0.78030  0.75000  Biso   1.000  O
  O58      1.0000 0.78030  0.21970  0.75000  Biso   1.000  O
  O59      1.0000 0.78030  0.56060  0.75000  Biso   1.000  O
  O60      1.0000 0.43940  0.21970  0.75000  Biso   1.000  O
