data_image0
_cell_length_a       12.7035
_cell_length_b       12.7035
_cell_length_c       25.438
_cell_angle_alpha    90
_cell_angle_beta     90
_cell_angle_gamma    90

_symmetry_space_group_name_H-M    "P 1"
_symmetry_int_tables_number       1

loop_
  _symmetry_equiv_pos_as_xyz
  'x, y, z'

loop_
  _atom_site_label
  _atom_site_occupancy
  _atom_site_fract_x
  _atom_site_fract_y
  _atom_site_fract_z
  _atom_site_thermal_displace_type
  _atom_site_B_iso_or_equiv
  _atom_site_type_symbol
  Zn1      1.0000 0.53734  0.43131  0.43804  Biso   1.000  Zn
  N1       1.0000 0.63030  0.47260  0.49900  Biso   1.000  N
  N2       1.0000 0.77430  0.47720  0.54803  Biso   1.000  N
  N3       1.0000 0.60220  0.50340  0.54976  Biso   1.000  N
  C1       1.0000 0.69040  0.50390  0.57700  Biso   1.000  C
  C2       1.0000 0.73090  0.45930  0.50060  Biso   1.000  C
  H1       1.0000 0.77010  0.43900  0.47140  Biso   1.000  H
  O1       1.0000 0.64330  0.45820  0.38340  Biso   1.000  O
  O2       1.0000 0.51130  0.41310  0.33730  Biso   1.000  O
  C3       1.0000 0.60240  0.43950  0.34150  Biso   1.000  C
  N4       1.0000 0.71400  0.53300  0.62870  Biso   1.000  N
  H2       1.0000 0.66350  0.53340  0.65350  Biso   1.000  H
  H3       1.0000 0.78050  0.55070  0.63720  Biso   1.000  H
  C4       1.0000 0.65900  0.43200  0.28840  Biso   1.000  C
  H4       1.0000 0.63400  0.37150  0.26900  Biso   1.000  H
  H5       1.0000 0.64460  0.49480  0.26770  Biso   1.000  H
  C5       1.0000 0.77630  0.42300  0.29780  Biso   1.000  C
  H6       1.0000 0.79310  0.49390  0.30720  Biso   1.000  H
  H7       1.0000 0.79960  0.37610  0.32510  Biso   1.000  H
  N5       1.0000 0.47200  0.18600  0.37070  Biso   1.000  N
  H8       1.0000 0.45220  0.24440  0.35350  Biso   1.000  H
  H9       1.0000 0.47750  0.12440  0.35340  Biso   1.000  H
  C6       1.0000 0.64800  0.40900  0.24900  Biso   1.000  C
  H10      1.0000 0.66350  0.33750  0.25810  Biso   1.000  H
  H11      1.0000 0.57370  0.41620  0.24260  Biso   1.000  H
  C7       1.0000 0.67700  0.46500  0.29860  Biso   1.000  C
  H12      1.0000 0.74780  0.44450  0.30900  Biso   1.000  H
  H13      1.0000 0.67720  0.54040  0.29250  Biso   1.000  H
  Zn2      1.0000 0.96266  0.06869  0.43804  Biso   1.000  Zn
  N6       1.0000 0.86970  0.02740  0.49900  Biso   1.000  N
  N7       1.0000 0.72570  0.02280  0.54803  Biso   1.000  N
  N8       1.0000 0.89780  0.99660  0.54976  Biso   1.000  N
  C8       1.0000 0.80960  0.99610  0.57700  Biso   1.000  C
  C9       1.0000 0.76910  0.04070  0.50060  Biso   1.000  C
  H14      1.0000 0.72990  0.06100  0.47140  Biso   1.000  H
  O3       1.0000 0.85670  0.04180  0.38340  Biso   1.000  O
  O4       1.0000 0.98870  0.08690  0.33730  Biso   1.000  O
  C10      1.0000 0.89760  0.06050  0.34150  Biso   1.000  C
  N9       1.0000 0.78600  0.96700  0.62870  Biso   1.000  N
  H15      1.0000 0.83650  0.96660  0.65350  Biso   1.000  H
  H16      1.0000 0.71950  0.94930  0.63720  Biso   1.000  H
  C11      1.0000 0.84100  0.06800  0.28840  Biso   1.000  C
  H17      1.0000 0.86600  0.12850  0.26900  Biso   1.000  H
  H18      1.0000 0.85540  0.00520  0.26770  Biso   1.000  H
  C12      1.0000 0.72370  0.07700  0.29780  Biso   1.000  C
  H19      1.0000 0.70690  0.00610  0.30720  Biso   1.000  H
  H20      1.0000 0.70040  0.12390  0.32510  Biso   1.000  H
  N10      1.0000 0.02800  0.31400  0.37070  Biso   1.000  N
  H21      1.0000 0.04780  0.25560  0.35350  Biso   1.000  H
  H22      1.0000 0.02250  0.37560  0.35340  Biso   1.000  H
  C13      1.0000 0.85200  0.09100  0.24900  Biso   1.000  C
  H23      1.0000 0.83650  0.16250  0.25810  Biso   1.000  H
  H24      1.0000 0.92630  0.08380  0.24260  Biso   1.000  H
  C14      1.0000 0.82300  0.03500  0.29860  Biso   1.000  C
  H25      1.0000 0.75220  0.05550  0.30900  Biso   1.000  H
  H26      1.0000 0.82280  0.95960  0.29250  Biso   1.000  H
  Zn3      1.0000 0.06869  0.53734  0.43804  Biso   1.000  Zn
  N11      1.0000 0.02740  0.63030  0.49900  Biso   1.000  N
  N12      1.0000 0.02280  0.77430  0.54803  Biso   1.000  N
  N13      1.0000 0.99660  0.60220  0.54976  Biso   1.000  N
  C15      1.0000 0.99610  0.69040  0.57700  Biso   1.000  C
  C16      1.0000 0.04070  0.73090  0.50060  Biso   1.000  C
  H27      1.0000 0.06100  0.77010  0.47140  Biso   1.000  H
  O5       1.0000 0.04180  0.64330  0.38340  Biso   1.000  O
  O6       1.0000 0.08690  0.51130  0.33730  Biso   1.000  O
  C17      1.0000 0.06050  0.60240  0.34150  Biso   1.000  C
  N14      1.0000 0.96700  0.71400  0.62870  Biso   1.000  N
  H28      1.0000 0.96660  0.66350  0.65350  Biso   1.000  H
  H29      1.0000 0.94930  0.78050  0.63720  Biso   1.000  H
  C18      1.0000 0.06800  0.65900  0.28840  Biso   1.000  C
  H30      1.0000 0.12850  0.63400  0.26900  Biso   1.000  H
  H31      1.0000 0.00520  0.64460  0.26770  Biso   1.000  H
  C19      1.0000 0.07700  0.77630  0.29780  Biso   1.000  C
  H32      1.0000 0.00610  0.79310  0.30720  Biso   1.000  H
  H33      1.0000 0.12390  0.79960  0.32510  Biso   1.000  H
  N15      1.0000 0.31400  0.47200  0.37070  Biso   1.000  N
  H34      1.0000 0.25560  0.45220  0.35350  Biso   1.000  H
  H35      1.0000 0.37560  0.47750  0.35340  Biso   1.000  H
  C20      1.0000 0.09100  0.64800  0.24900  Biso   1.000  C
  H36      1.0000 0.16250  0.66350  0.25810  Biso   1.000  H
  H37      1.0000 0.08380  0.57370  0.24260  Biso   1.000  H
  C21      1.0000 0.03500  0.67700  0.29860  Biso   1.000  C
  H38      1.0000 0.05550  0.74780  0.30900  Biso   1.000  H
  H39      1.0000 0.95960  0.67720  0.29250  Biso   1.000  H
  Zn4      1.0000 0.43131  0.96266  0.43804  Biso   1.000  Zn
  N16      1.0000 0.47260  0.86970  0.49900  Biso   1.000  N
  N17      1.0000 0.47720  0.72570  0.54803  Biso   1.000  N
  N18      1.0000 0.50340  0.89780  0.54976  Biso   1.000  N
  C22      1.0000 0.50390  0.80960  0.57700  Biso   1.000  C
  C23      1.0000 0.45930  0.76910  0.50060  Biso   1.000  C
  H40      1.0000 0.43900  0.72990  0.47140  Biso   1.000  H
  O7       1.0000 0.45820  0.85670  0.38340  Biso   1.000  O
  O8       1.0000 0.41310  0.98870  0.33730  Biso   1.000  O
  C24      1.0000 0.43950  0.89760  0.34150  Biso   1.000  C
  N19      1.0000 0.53300  0.78600  0.62870  Biso   1.000  N
  H41      1.0000 0.53340  0.83650  0.65350  Biso   1.000  H
  H42      1.0000 0.55070  0.71950  0.63720  Biso   1.000  H
  C25      1.0000 0.43200  0.84100  0.28840  Biso   1.000  C
  H43      1.0000 0.37150  0.86600  0.26900  Biso   1.000  H
  H44      1.0000 0.49480  0.85540  0.26770  Biso   1.000  H
  C26      1.0000 0.42300  0.72370  0.29780  Biso   1.000  C
  H45      1.0000 0.49390  0.70690  0.30720  Biso   1.000  H
  H46      1.0000 0.37610  0.70040  0.32510  Biso   1.000  H
  N20      1.0000 0.18600  0.02800  0.37070  Biso   1.000  N
  H47      1.0000 0.24440  0.04780  0.35350  Biso   1.000  H
  H48      1.0000 0.12440  0.02250  0.35340  Biso   1.000  H
  C27      1.0000 0.40900  0.85200  0.24900  Biso   1.000  C
  H49      1.0000 0.33750  0.83650  0.25810  Biso   1.000  H
  H50      1.0000 0.41620  0.92630  0.24260  Biso   1.000  H
  C28      1.0000 0.46500  0.82300  0.29860  Biso   1.000  C
  H51      1.0000 0.44450  0.75220  0.30900  Biso   1.000  H
  H52      1.0000 0.54040  0.82280  0.29250  Biso   1.000  H
  Zn5      1.0000 0.96266  0.43131  0.06196  Biso   1.000  Zn
  N21      1.0000 0.86970  0.47260  0.00100  Biso   1.000  N
  N22      1.0000 0.72570  0.47720  0.95197  Biso   1.000  N
  N23      1.0000 0.89780  0.50340  0.95024  Biso   1.000  N
  C29      1.0000 0.80960  0.50390  0.92300  Biso   1.000  C
  C30      1.0000 0.76910  0.45930  0.99940  Biso   1.000  C
  H53      1.0000 0.72990  0.43900  0.02860  Biso   1.000  H
  O9       1.0000 0.85670  0.45820  0.11660  Biso   1.000  O
  O10      1.0000 0.98870  0.41310  0.16270  Biso   1.000  O
  C31      1.0000 0.89760  0.43950  0.15850  Biso   1.000  C
  N24      1.0000 0.78600  0.53300  0.87130  Biso   1.000  N
  H54      1.0000 0.83650  0.53340  0.84650  Biso   1.000  H
  H55      1.0000 0.71950  0.55070  0.86280  Biso   1.000  H
  C32      1.0000 0.84100  0.43200  0.21160  Biso   1.000  C
  H56      1.0000 0.86600  0.37150  0.23100  Biso   1.000  H
  H57      1.0000 0.85540  0.49480  0.23230  Biso   1.000  H
  C33      1.0000 0.72370  0.42300  0.20220  Biso   1.000  C
  H58      1.0000 0.70690  0.49390  0.19280  Biso   1.000  H
  H59      1.0000 0.70040  0.37610  0.17490  Biso   1.000  H
  N25      1.0000 0.02800  0.18600  0.12930  Biso   1.000  N
  H60      1.0000 0.04780  0.24440  0.14650  Biso   1.000  H
  H61      1.0000 0.02250  0.12440  0.14660  Biso   1.000  H
  C34      1.0000 0.85200  0.40900  0.25100  Biso   1.000  C
  H62      1.0000 0.83650  0.33750  0.24190  Biso   1.000  H
  H63      1.0000 0.92630  0.41620  0.25740  Biso   1.000  H
  C35      1.0000 0.82300  0.46500  0.20140  Biso   1.000  C
  H64      1.0000 0.75220  0.44450  0.19100  Biso   1.000  H
  H65      1.0000 0.82280  0.54040  0.20750  Biso   1.000  H
  Zn6      1.0000 0.53734  0.06869  0.06196  Biso   1.000  Zn
  N26      1.0000 0.63030  0.02740  0.00100  Biso   1.000  N
  N27      1.0000 0.77430  0.02280  0.95197  Biso   1.000  N
  N28      1.0000 0.60220  0.99660  0.95024  Biso   1.000  N
  C36      1.0000 0.69040  0.99610  0.92300  Biso   1.000  C
  C37      1.0000 0.73090  0.04070  0.99940  Biso   1.000  C
  H66      1.0000 0.77010  0.06100  0.02860  Biso   1.000  H
  O11      1.0000 0.64330  0.04180  0.11660  Biso   1.000  O
  O12      1.0000 0.51130  0.08690  0.16270  Biso   1.000  O
  C38      1.0000 0.60240  0.06050  0.15850  Biso   1.000  C
  N29      1.0000 0.71400  0.96700  0.87130  Biso   1.000  N
  H67      1.0000 0.66350  0.96660  0.84650  Biso   1.000  H
  H68      1.0000 0.78050  0.94930  0.86280  Biso   1.000  H
  C39      1.0000 0.65900  0.06800  0.21160  Biso   1.000  C
  H69      1.0000 0.63400  0.12850  0.23100  Biso   1.000  H
  H70      1.0000 0.64460  0.00520  0.23230  Biso   1.000  H
  C40      1.0000 0.77630  0.07700  0.20220  Biso   1.000  C
  H71      1.0000 0.79310  0.00610  0.19280  Biso   1.000  H
  H72      1.0000 0.79960  0.12390  0.17490  Biso   1.000  H
  N30      1.0000 0.47200  0.31400  0.12930  Biso   1.000  N
  H73      1.0000 0.45220  0.25560  0.14650  Biso   1.000  H
  H74      1.0000 0.47750  0.37560  0.14660  Biso   1.000  H
  C41      1.0000 0.64800  0.09100  0.25100  Biso   1.000  C
  H75      1.0000 0.66350  0.16250  0.24190  Biso   1.000  H
  H76      1.0000 0.57370  0.08380  0.25740  Biso   1.000  H
  C42      1.0000 0.67700  0.03500  0.20140  Biso   1.000  C
  H77      1.0000 0.74780  0.05550  0.19100  Biso   1.000  H
  H78      1.0000 0.67720  0.95960  0.20750  Biso   1.000  H
  Zn7      1.0000 0.43131  0.53734  0.06196  Biso   1.000  Zn
  N31      1.0000 0.47260  0.63030  0.00100  Biso   1.000  N
  N32      1.0000 0.47720  0.77430  0.95197  Biso   1.000  N
  N33      1.0000 0.50340  0.60220  0.95024  Biso   1.000  N
  C43      1.0000 0.50390  0.69040  0.92300  Biso   1.000  C
  C44      1.0000 0.45930  0.73090  0.99940  Biso   1.000  C
  H79      1.0000 0.43900  0.77010  0.02860  Biso   1.000  H
  O13      1.0000 0.45820  0.64330  0.11660  Biso   1.000  O
  O14      1.0000 0.41310  0.51130  0.16270  Biso   1.000  O
  C45      1.0000 0.43950  0.60240  0.15850  Biso   1.000  C
  N34      1.0000 0.53300  0.71400  0.87130  Biso   1.000  N
  H80      1.0000 0.53340  0.66350  0.84650  Biso   1.000  H
  H81      1.0000 0.55070  0.78050  0.86280  Biso   1.000  H
  C46      1.0000 0.43200  0.65900  0.21160  Biso   1.000  C
  H82      1.0000 0.37150  0.63400  0.23100  Biso   1.000  H
  H83      1.0000 0.49480  0.64460  0.23230  Biso   1.000  H
  C47      1.0000 0.42300  0.77630  0.20220  Biso   1.000  C
  H84      1.0000 0.49390  0.79310  0.19280  Biso   1.000  H
  H85      1.0000 0.37610  0.79960  0.17490  Biso   1.000  H
  N35      1.0000 0.18600  0.47200  0.12930  Biso   1.000  N
  H86      1.0000 0.24440  0.45220  0.14650  Biso   1.000  H
  H87      1.0000 0.12440  0.47750  0.14660  Biso   1.000  H
  C48      1.0000 0.40900  0.64800  0.25100  Biso   1.000  C
  H88      1.0000 0.33750  0.66350  0.24190  Biso   1.000  H
  H89      1.0000 0.41620  0.57370  0.25740  Biso   1.000  H
  C49      1.0000 0.46500  0.67700  0.20140  Biso   1.000  C
  H90      1.0000 0.44450  0.74780  0.19100  Biso   1.000  H
  H91      1.0000 0.54040  0.67720  0.20750  Biso   1.000  H
  Zn8      1.0000 0.06869  0.96266  0.06196  Biso   1.000  Zn
  N36      1.0000 0.02740  0.86970  0.00100  Biso   1.000  N
  N37      1.0000 0.02280  0.72570  0.95197  Biso   1.000  N
  N38      1.0000 0.99660  0.89780  0.95024  Biso   1.000  N
  C50      1.0000 0.99610  0.80960  0.92300  Biso   1.000  C
  C51      1.0000 0.04070  0.76910  0.99940  Biso   1.000  C
  H92      1.0000 0.06100  0.72990  0.02860  Biso   1.000  H
  O15      1.0000 0.04180  0.85670  0.11660  Biso   1.000  O
  O16      1.0000 0.08690  0.98870  0.16270  Biso   1.000  O
  C52      1.0000 0.06050  0.89760  0.15850  Biso   1.000  C
  N39      1.0000 0.96700  0.78600  0.87130  Biso   1.000  N
  H93      1.0000 0.96660  0.83650  0.84650  Biso   1.000  H
  H94      1.0000 0.94930  0.71950  0.86280  Biso   1.000  H
  C53      1.0000 0.06800  0.84100  0.21160  Biso   1.000  C
  H95      1.0000 0.12850  0.86600  0.23100  Biso   1.000  H
  H96      1.0000 0.00520  0.85540  0.23230  Biso   1.000  H
  C54      1.0000 0.07700  0.72370  0.20220  Biso   1.000  C
  H97      1.0000 0.00610  0.70690  0.19280  Biso   1.000  H
  H98      1.0000 0.12390  0.70040  0.17490  Biso   1.000  H
  N40      1.0000 0.31400  0.02800  0.12930  Biso   1.000  N
  H99      1.0000 0.25560  0.04780  0.14650  Biso   1.000  H
  H100     1.0000 0.37560  0.02250  0.14660  Biso   1.000  H
  C55      1.0000 0.09100  0.85200  0.25100  Biso   1.000  C
  H101     1.0000 0.16250  0.83650  0.24190  Biso   1.000  H
  H102     1.0000 0.08380  0.92630  0.25740  Biso   1.000  H
  C56      1.0000 0.03500  0.82300  0.20140  Biso   1.000  C
  H103     1.0000 0.05550  0.75220  0.19100  Biso   1.000  H
  H104     1.0000 0.95960  0.82280  0.20750  Biso   1.000  H
  Zn9      1.0000 0.46266  0.56869  0.56196  Biso   1.000  Zn
  N41      1.0000 0.36970  0.52740  0.50100  Biso   1.000  N
  N42      1.0000 0.22570  0.52280  0.45197  Biso   1.000  N
  N43      1.0000 0.39780  0.49660  0.45024  Biso   1.000  N
  C57      1.0000 0.30960  0.49610  0.42300  Biso   1.000  C
  C58      1.0000 0.26910  0.54070  0.49940  Biso   1.000  C
  H105     1.0000 0.22990  0.56100  0.52860  Biso   1.000  H
  O17      1.0000 0.35670  0.54180  0.61660  Biso   1.000  O
  O18      1.0000 0.48870  0.58690  0.66270  Biso   1.000  O
  C59      1.0000 0.39760  0.56050  0.65850  Biso   1.000  C
  N44      1.0000 0.28600  0.46700  0.37130  Biso   1.000  N
  H106     1.0000 0.33650  0.46660  0.34650  Biso   1.000  H
  H107     1.0000 0.21950  0.44930  0.36280  Biso   1.000  H
  C60      1.0000 0.34100  0.56800  0.71160  Biso   1.000  C
  H108     1.0000 0.36600  0.62850  0.73100  Biso   1.000  H
  H109     1.0000 0.35540  0.50520  0.73230  Biso   1.000  H
  C61      1.0000 0.22370  0.57700  0.70220  Biso   1.000  C
  H110     1.0000 0.20690  0.50610  0.69280  Biso   1.000  H
  H111     1.0000 0.20040  0.62390  0.67490  Biso   1.000  H
  N45      1.0000 0.52800  0.81400  0.62930  Biso   1.000  N
  H112     1.0000 0.54780  0.75560  0.64650  Biso   1.000  H
  H113     1.0000 0.52250  0.87560  0.64660  Biso   1.000  H
  C62      1.0000 0.35200  0.59100  0.75100  Biso   1.000  C
  H114     1.0000 0.33650  0.66250  0.74190  Biso   1.000  H
  H115     1.0000 0.42630  0.58380  0.75740  Biso   1.000  H
  C63      1.0000 0.32300  0.53500  0.70140  Biso   1.000  C
  H116     1.0000 0.25220  0.55550  0.69100  Biso   1.000  H
  H117     1.0000 0.32280  0.45960  0.70750  Biso   1.000  H
  Zn10     1.0000 0.03734  0.93131  0.56196  Biso   1.000  Zn
  N46      1.0000 0.13030  0.97260  0.50100  Biso   1.000  N
  N47      1.0000 0.27430  0.97720  0.45197  Biso   1.000  N
  N48      1.0000 0.10220  0.00340  0.45024  Biso   1.000  N
  C64      1.0000 0.19040  0.00390  0.42300  Biso   1.000  C
  C65      1.0000 0.23090  0.95930  0.49940  Biso   1.000  C
  H118     1.0000 0.27010  0.93900  0.52860  Biso   1.000  H
  O19      1.0000 0.14330  0.95820  0.61660  Biso   1.000  O
  O20      1.0000 0.01130  0.91310  0.66270  Biso   1.000  O
  C66      1.0000 0.10240  0.93950  0.65850  Biso   1.000  C
  N49      1.0000 0.21400  0.03300  0.37130  Biso   1.000  N
  H119     1.0000 0.16350  0.03340  0.34650  Biso   1.000  H
  H120     1.0000 0.28050  0.05070  0.36280  Biso   1.000  H
  C67      1.0000 0.15900  0.93200  0.71160  Biso   1.000  C
  H121     1.0000 0.13400  0.87150  0.73100  Biso   1.000  H
  H122     1.0000 0.14460  0.99480  0.73230  Biso   1.000  H
  C68      1.0000 0.27630  0.92300  0.70220  Biso   1.000  C
  H123     1.0000 0.29310  0.99390  0.69280  Biso   1.000  H
  H124     1.0000 0.29960  0.87610  0.67490  Biso   1.000  H
  N50      1.0000 0.97200  0.68600  0.62930  Biso   1.000  N
  H125     1.0000 0.95220  0.74440  0.64650  Biso   1.000  H
  H126     1.0000 0.97750  0.62440  0.64660  Biso   1.000  H
  C69      1.0000 0.14800  0.90900  0.75100  Biso   1.000  C
  H127     1.0000 0.16350  0.83750  0.74190  Biso   1.000  H
  H128     1.0000 0.07370  0.91620  0.75740  Biso   1.000  H
  C70      1.0000 0.17700  0.96500  0.70140  Biso   1.000  C
  H129     1.0000 0.24780  0.94450  0.69100  Biso   1.000  H
  H130     1.0000 0.17720  0.04040  0.70750  Biso   1.000  H
  Zn11     1.0000 0.93131  0.46266  0.56196  Biso   1.000  Zn
  N51      1.0000 0.97260  0.36970  0.50100  Biso   1.000  N
  N52      1.0000 0.97720  0.22570  0.45197  Biso   1.000  N
  N53      1.0000 0.00340  0.39780  0.45024  Biso   1.000  N
  C71      1.0000 0.00390  0.30960  0.42300  Biso   1.000  C
  C72      1.0000 0.95930  0.26910  0.49940  Biso   1.000  C
  H131     1.0000 0.93900  0.22990  0.52860  Biso   1.000  H
  O21      1.0000 0.95820  0.35670  0.61660  Biso   1.000  O
  O22      1.0000 0.91310  0.48870  0.66270  Biso   1.000  O
  C73      1.0000 0.93950  0.39760  0.65850  Biso   1.000  C
  N54      1.0000 0.03300  0.28600  0.37130  Biso   1.000  N
  H132     1.0000 0.03340  0.33650  0.34650  Biso   1.000  H
  H133     1.0000 0.05070  0.21950  0.36280  Biso   1.000  H
  C74      1.0000 0.93200  0.34100  0.71160  Biso   1.000  C
  H134     1.0000 0.87150  0.36600  0.73100  Biso   1.000  H
  H135     1.0000 0.99480  0.35540  0.73230  Biso   1.000  H
  C75      1.0000 0.92300  0.22370  0.70220  Biso   1.000  C
  H136     1.0000 0.99390  0.20690  0.69280  Biso   1.000  H
  H137     1.0000 0.87610  0.20040  0.67490  Biso   1.000  H
  N55      1.0000 0.68600  0.52800  0.62930  Biso   1.000  N
  H138     1.0000 0.74440  0.54780  0.64650  Biso   1.000  H
  H139     1.0000 0.62440  0.52250  0.64660  Biso   1.000  H
  C76      1.0000 0.90900  0.35200  0.75100  Biso   1.000  C
  H140     1.0000 0.83750  0.33650  0.74190  Biso   1.000  H
  H141     1.0000 0.91620  0.42630  0.75740  Biso   1.000  H
  C77      1.0000 0.96500  0.32300  0.70140  Biso   1.000  C
  H142     1.0000 0.94450  0.25220  0.69100  Biso   1.000  H
  H143     1.0000 0.04040  0.32280  0.70750  Biso   1.000  H
  Zn12     1.0000 0.56869  0.03734  0.56196  Biso   1.000  Zn
  N56      1.0000 0.52740  0.13030  0.50100  Biso   1.000  N
  N57      1.0000 0.52280  0.27430  0.45197  Biso   1.000  N
  N58      1.0000 0.49660  0.10220  0.45024  Biso   1.000  N
  C78      1.0000 0.49610  0.19040  0.42300  Biso   1.000  C
  C79      1.0000 0.54070  0.23090  0.49940  Biso   1.000  C
  H144     1.0000 0.56100  0.27010  0.52860  Biso   1.000  H
  O23      1.0000 0.54180  0.14330  0.61660  Biso   1.000  O
  O24      1.0000 0.58690  0.01130  0.66270  Biso   1.000  O
  C80      1.0000 0.56050  0.10240  0.65850  Biso   1.000  C
  N59      1.0000 0.46700  0.21400  0.37130  Biso   1.000  N
  H145     1.0000 0.46660  0.16350  0.34650  Biso   1.000  H
  H146     1.0000 0.44930  0.28050  0.36280  Biso   1.000  H
  C81      1.0000 0.56800  0.15900  0.71160  Biso   1.000  C
  H147     1.0000 0.62850  0.13400  0.73100  Biso   1.000  H
  H148     1.0000 0.50520  0.14460  0.73230  Biso   1.000  H
  C82      1.0000 0.57700  0.27630  0.70220  Biso   1.000  C
  H149     1.0000 0.50610  0.29310  0.69280  Biso   1.000  H
  H150     1.0000 0.62390  0.29960  0.67490  Biso   1.000  H
  N60      1.0000 0.81400  0.97200  0.62930  Biso   1.000  N
  H151     1.0000 0.75560  0.95220  0.64650  Biso   1.000  H
  H152     1.0000 0.87560  0.97750  0.64660  Biso   1.000  H
  C83      1.0000 0.59100  0.14800  0.75100  Biso   1.000  C
  H153     1.0000 0.66250  0.16350  0.74190  Biso   1.000  H
  H154     1.0000 0.58380  0.07370  0.75740  Biso   1.000  H
  C84      1.0000 0.53500  0.17700  0.70140  Biso   1.000  C
  H155     1.0000 0.55550  0.24780  0.69100  Biso   1.000  H
  H156     1.0000 0.45960  0.17720  0.70750  Biso   1.000  H
  Zn13     1.0000 0.03734  0.56869  0.93804  Biso   1.000  Zn
  N61      1.0000 0.13030  0.52740  0.99900  Biso   1.000  N
  N62      1.0000 0.27430  0.52280  0.04803  Biso   1.000  N
  N63      1.0000 0.10220  0.49660  0.04976  Biso   1.000  N
  C85      1.0000 0.19040  0.49610  0.07700  Biso   1.000  C
  C86      1.0000 0.23090  0.54070  0.00060  Biso   1.000  C
  H157     1.0000 0.27010  0.56100  0.97140  Biso   1.000  H
  O25      1.0000 0.14330  0.54180  0.88340  Biso   1.000  O
  O26      1.0000 0.01130  0.58690  0.83730  Biso   1.000  O
  C87      1.0000 0.10240  0.56050  0.84150  Biso   1.000  C
  N64      1.0000 0.21400  0.46700  0.12870  Biso   1.000  N
  H158     1.0000 0.16350  0.46660  0.15350  Biso   1.000  H
  H159     1.0000 0.28050  0.44930  0.13720  Biso   1.000  H
  C88      1.0000 0.15900  0.56800  0.78840  Biso   1.000  C
  H160     1.0000 0.13400  0.62850  0.76900  Biso   1.000  H
  H161     1.0000 0.14460  0.50520  0.76770  Biso   1.000  H
  C89      1.0000 0.27630  0.57700  0.79780  Biso   1.000  C
  H162     1.0000 0.29310  0.50610  0.80720  Biso   1.000  H
  H163     1.0000 0.29960  0.62390  0.82510  Biso   1.000  H
  N65      1.0000 0.97200  0.81400  0.87070  Biso   1.000  N
  H164     1.0000 0.95220  0.75560  0.85350  Biso   1.000  H
  H165     1.0000 0.97750  0.87560  0.85340  Biso   1.000  H
  C90      1.0000 0.14800  0.59100  0.74900  Biso   1.000  C
  H166     1.0000 0.16350  0.66250  0.75810  Biso   1.000  H
  H167     1.0000 0.07370  0.58380  0.74260  Biso   1.000  H
  C91      1.0000 0.17700  0.53500  0.79860  Biso   1.000  C
  H168     1.0000 0.24780  0.55550  0.80900  Biso   1.000  H
  H169     1.0000 0.17720  0.45960  0.79250  Biso   1.000  H
  Zn14     1.0000 0.46266  0.93131  0.93804  Biso   1.000  Zn
  N66      1.0000 0.36970  0.97260  0.99900  Biso   1.000  N
  N67      1.0000 0.22570  0.97720  0.04803  Biso   1.000  N
  N68      1.0000 0.39780  0.00340  0.04976  Biso   1.000  N
  C92      1.0000 0.30960  0.00390  0.07700  Biso   1.000  C
  C93      1.0000 0.26910  0.95930  0.00060  Biso   1.000  C
  H170     1.0000 0.22990  0.93900  0.97140  Biso   1.000  H
  O27      1.0000 0.35670  0.95820  0.88340  Biso   1.000  O
  O28      1.0000 0.48870  0.91310  0.83730  Biso   1.000  O
  C94      1.0000 0.39760  0.93950  0.84150  Biso   1.000  C
  N69      1.0000 0.28600  0.03300  0.12870  Biso   1.000  N
  H171     1.0000 0.33650  0.03340  0.15350  Biso   1.000  H
  H172     1.0000 0.21950  0.05070  0.13720  Biso   1.000  H
  C95      1.0000 0.34100  0.93200  0.78840  Biso   1.000  C
  H173     1.0000 0.36600  0.87150  0.76900  Biso   1.000  H
  H174     1.0000 0.35540  0.99480  0.76770  Biso   1.000  H
  C96      1.0000 0.22370  0.92300  0.79780  Biso   1.000  C
  H175     1.0000 0.20690  0.99390  0.80720  Biso   1.000  H
  H176     1.0000 0.20040  0.87610  0.82510  Biso   1.000  H
  N70      1.0000 0.52800  0.68600  0.87070  Biso   1.000  N
  H177     1.0000 0.54780  0.74440  0.85350  Biso   1.000  H
  H178     1.0000 0.52250  0.62440  0.85340  Biso   1.000  H
  C97      1.0000 0.35200  0.90900  0.74900  Biso   1.000  C
  H179     1.0000 0.33650  0.83750  0.75810  Biso   1.000  H
  H180     1.0000 0.42630  0.91620  0.74260  Biso   1.000  H
  C98      1.0000 0.32300  0.96500  0.79860  Biso   1.000  C
  H181     1.0000 0.25220  0.94450  0.80900  Biso   1.000  H
  H182     1.0000 0.32280  0.04040  0.79250  Biso   1.000  H
  Zn15     1.0000 0.56869  0.46266  0.93804  Biso   1.000  Zn
  N71      1.0000 0.52740  0.36970  0.99900  Biso   1.000  N
  N72      1.0000 0.52280  0.22570  0.04803  Biso   1.000  N
  N73      1.0000 0.49660  0.39780  0.04976  Biso   1.000  N
  C99      1.0000 0.49610  0.30960  0.07700  Biso   1.000  C
  C100     1.0000 0.54070  0.26910  0.00060  Biso   1.000  C
  H183     1.0000 0.56100  0.22990  0.97140  Biso   1.000  H
  O29      1.0000 0.54180  0.35670  0.88340  Biso   1.000  O
  O30      1.0000 0.58690  0.48870  0.83730  Biso   1.000  O
  C101     1.0000 0.56050  0.39760  0.84150  Biso   1.000  C
  N74      1.0000 0.46700  0.28600  0.12870  Biso   1.000  N
  H184     1.0000 0.46660  0.33650  0.15350  Biso   1.000  H
  H185     1.0000 0.44930  0.21950  0.13720  Biso   1.000  H
  C102     1.0000 0.56800  0.34100  0.78840  Biso   1.000  C
  H186     1.0000 0.62850  0.36600  0.76900  Biso   1.000  H
  H187     1.0000 0.50520  0.35540  0.76770  Biso   1.000  H
  C103     1.0000 0.57700  0.22370  0.79780  Biso   1.000  C
  H188     1.0000 0.50610  0.20690  0.80720  Biso   1.000  H
  H189     1.0000 0.62390  0.20040  0.82510  Biso   1.000  H
  N75      1.0000 0.81400  0.52800  0.87070  Biso   1.000  N
  H190     1.0000 0.75560  0.54780  0.85350  Biso   1.000  H
  H191     1.0000 0.87560  0.52250  0.85340  Biso   1.000  H
  C104     1.0000 0.59100  0.35200  0.74900  Biso   1.000  C
  H192     1.0000 0.66250  0.33650  0.75810  Biso   1.000  H
  H193     1.0000 0.58380  0.42630  0.74260  Biso   1.000  H
  C105     1.0000 0.53500  0.32300  0.79860  Biso   1.000  C
  H194     1.0000 0.55550  0.25220  0.80900  Biso   1.000  H
  H195     1.0000 0.45960  0.32280  0.79250  Biso   1.000  H
  Zn16     1.0000 0.93131  0.03734  0.93804  Biso   1.000  Zn
  N76      1.0000 0.97260  0.13030  0.99900  Biso   1.000  N
  N77      1.0000 0.97720  0.27430  0.04803  Biso   1.000  N
  N78      1.0000 0.00340  0.10220  0.04976  Biso   1.000  N
  C106     1.0000 0.00390  0.19040  0.07700  Biso   1.000  C
  C107     1.0000 0.95930  0.23090  0.00060  Biso   1.000  C
  H196     1.0000 0.93900  0.27010  0.97140  Biso   1.000  H
  O31      1.0000 0.95820  0.14330  0.88340  Biso   1.000  O
  O32      1.0000 0.91310  0.01130  0.83730  Biso   1.000  O
  C108     1.0000 0.93950  0.10240  0.84150  Biso   1.000  C
  N79      1.0000 0.03300  0.21400  0.12870  Biso   1.000  N
  H197     1.0000 0.03340  0.16350  0.15350  Biso   1.000  H
  H198     1.0000 0.05070  0.28050  0.13720  Biso   1.000  H
  C109     1.0000 0.93200  0.15900  0.78840  Biso   1.000  C
  H199     1.0000 0.87150  0.13400  0.76900  Biso   1.000  H
  H200     1.0000 0.99480  0.14460  0.76770  Biso   1.000  H
  C110     1.0000 0.92300  0.27630  0.79780  Biso   1.000  C
  H201     1.0000 0.99390  0.29310  0.80720  Biso   1.000  H
  H202     1.0000 0.87610  0.29960  0.82510  Biso   1.000  H
  N80      1.0000 0.68600  0.97200  0.87070  Biso   1.000  N
  H203     1.0000 0.74440  0.95220  0.85350  Biso   1.000  H
  H204     1.0000 0.62440  0.97750  0.85340  Biso   1.000  H
  C111     1.0000 0.90900  0.14800  0.74900  Biso   1.000  C
  H205     1.0000 0.83750  0.16350  0.75810  Biso   1.000  H
  H206     1.0000 0.91620  0.07370  0.74260  Biso   1.000  H
  C112     1.0000 0.96500  0.17700  0.79860  Biso   1.000  C
  H207     1.0000 0.94450  0.24780  0.80900  Biso   1.000  H
  H208     1.0000 0.04040  0.17720  0.79250  Biso   1.000  H
