data_image0
_cell_length_a       12.8326
_cell_length_b       12.8326
_cell_length_c       17.756
_cell_angle_alpha    90
_cell_angle_beta     90
_cell_angle_gamma    120

_symmetry_space_group_name_H-M    "P 1"
_symmetry_int_tables_number       1

loop_
  _symmetry_equiv_pos_as_xyz
  'x, y, z'

loop_
  _atom_site_label
  _atom_site_occupancy
  _atom_site_fract_x
  _atom_site_fract_y
  _atom_site_fract_z
  _atom_site_thermal_displace_type
  _atom_site_B_iso_or_equiv
  _atom_site_type_symbol
  O1       1.0000 0.81990  0.38690  0.15420  Biso   1.000  O
  C1       1.0000 0.87320  0.32860  0.13980  Biso   1.000  C
  C2       1.0000 0.82300  0.20000  0.17930  Biso   1.000  C
  O2       1.0000 0.94120  0.34900  0.08450  Biso   1.000  O
  H1       1.0000 0.75820  0.13640  0.15040  Biso   1.000  H
  H2       1.0000 0.88630  0.18040  0.18670  Biso   1.000  H
  C3       1.0000 0.89900  0.27900  0.20740  Biso   1.000  C
  H3       1.0000 0.96200  0.34290  0.23730  Biso   1.000  H
  H4       1.0000 0.92310  0.22130  0.19410  Biso   1.000  H
  O3       1.0000 0.61310  0.43300  0.15420  Biso   1.000  O
  C4       1.0000 0.67140  0.54460  0.13980  Biso   1.000  C
  C5       1.0000 0.80000  0.62300  0.17930  Biso   1.000  C
  O4       1.0000 0.65100  0.59220  0.08450  Biso   1.000  O
  H5       1.0000 0.86360  0.62180  0.15040  Biso   1.000  H
  H6       1.0000 0.81960  0.70590  0.18670  Biso   1.000  H
  C6       1.0000 0.72100  0.62000  0.20740  Biso   1.000  C
  H7       1.0000 0.65710  0.61910  0.23730  Biso   1.000  H
  H8       1.0000 0.77870  0.70180  0.19410  Biso   1.000  H
  O5       1.0000 0.56700  0.18010  0.15420  Biso   1.000  O
  C7       1.0000 0.45540  0.12680  0.13980  Biso   1.000  C
  C8       1.0000 0.37700  0.17700  0.17930  Biso   1.000  C
  O6       1.0000 0.40780  0.05880  0.08450  Biso   1.000  O
  H9       1.0000 0.37820  0.24180  0.15040  Biso   1.000  H
  H10      1.0000 0.29410  0.11370  0.18670  Biso   1.000  H
  C9       1.0000 0.38000  0.10100  0.20740  Biso   1.000  C
  H11      1.0000 0.38090  0.03800  0.23730  Biso   1.000  H
  H12      1.0000 0.29820  0.07690  0.19410  Biso   1.000  H
  O7       1.0000 0.18010  0.61310  0.15420  Biso   1.000  O
  C10      1.0000 0.12680  0.67140  0.13980  Biso   1.000  C
  C11      1.0000 0.17700  0.80000  0.17930  Biso   1.000  C
  O8       1.0000 0.05880  0.65100  0.08450  Biso   1.000  O
  H13      1.0000 0.24180  0.86360  0.15040  Biso   1.000  H
  H14      1.0000 0.11370  0.81960  0.18670  Biso   1.000  H
  C12      1.0000 0.10100  0.72100  0.20740  Biso   1.000  C
  H15      1.0000 0.03800  0.65710  0.23730  Biso   1.000  H
  H16      1.0000 0.07690  0.77870  0.19410  Biso   1.000  H
  O9       1.0000 0.38690  0.56700  0.15420  Biso   1.000  O
  C13      1.0000 0.32860  0.45540  0.13980  Biso   1.000  C
  C14      1.0000 0.20000  0.37700  0.17930  Biso   1.000  C
  O10      1.0000 0.34900  0.40780  0.08450  Biso   1.000  O
  H17      1.0000 0.13640  0.37820  0.15040  Biso   1.000  H
  H18      1.0000 0.18040  0.29410  0.18670  Biso   1.000  H
  C15      1.0000 0.27900  0.38000  0.20740  Biso   1.000  C
  H19      1.0000 0.34290  0.38090  0.23730  Biso   1.000  H
  H20      1.0000 0.22130  0.29820  0.19410  Biso   1.000  H
  O11      1.0000 0.43300  0.81990  0.15420  Biso   1.000  O
  C16      1.0000 0.54460  0.87320  0.13980  Biso   1.000  C
  C17      1.0000 0.62300  0.82300  0.17930  Biso   1.000  C
  O12      1.0000 0.59220  0.94120  0.08450  Biso   1.000  O
  H21      1.0000 0.62180  0.75820  0.15040  Biso   1.000  H
  H22      1.0000 0.70590  0.88630  0.18670  Biso   1.000  H
  C18      1.0000 0.62000  0.89900  0.20740  Biso   1.000  C
  H23      1.0000 0.61910  0.96200  0.23730  Biso   1.000  H
  H24      1.0000 0.70180  0.92310  0.19410  Biso   1.000  H
  O13      1.0000 0.38690  0.81990  0.34580  Biso   1.000  O
  C19      1.0000 0.32860  0.87320  0.36020  Biso   1.000  C
  C20      1.0000 0.20000  0.82300  0.32070  Biso   1.000  C
  O14      1.0000 0.34900  0.94120  0.41550  Biso   1.000  O
  H25      1.0000 0.13640  0.75820  0.34960  Biso   1.000  H
  H26      1.0000 0.18040  0.88630  0.31330  Biso   1.000  H
  C21      1.0000 0.27900  0.89900  0.29260  Biso   1.000  C
  H27      1.0000 0.34290  0.96200  0.26270  Biso   1.000  H
  H28      1.0000 0.22130  0.92310  0.30590  Biso   1.000  H
  O15      1.0000 0.43300  0.61310  0.34580  Biso   1.000  O
  C22      1.0000 0.54460  0.67140  0.36020  Biso   1.000  C
  C23      1.0000 0.62300  0.80000  0.32070  Biso   1.000  C
  O16      1.0000 0.59220  0.65100  0.41550  Biso   1.000  O
  H29      1.0000 0.62180  0.86360  0.34960  Biso   1.000  H
  H30      1.0000 0.70590  0.81960  0.31330  Biso   1.000  H
  C24      1.0000 0.62000  0.72100  0.29260  Biso   1.000  C
  H31      1.0000 0.61910  0.65710  0.26270  Biso   1.000  H
  H32      1.0000 0.70180  0.77870  0.30590  Biso   1.000  H
  O17      1.0000 0.18010  0.56700  0.34580  Biso   1.000  O
  C25      1.0000 0.12680  0.45540  0.36020  Biso   1.000  C
  C26      1.0000 0.17700  0.37700  0.32070  Biso   1.000  C
  O18      1.0000 0.05880  0.40780  0.41550  Biso   1.000  O
  H33      1.0000 0.24180  0.37820  0.34960  Biso   1.000  H
  H34      1.0000 0.11370  0.29410  0.31330  Biso   1.000  H
  C27      1.0000 0.10100  0.38000  0.29260  Biso   1.000  C
  H35      1.0000 0.03800  0.38090  0.26270  Biso   1.000  H
  H36      1.0000 0.07690  0.29820  0.30590  Biso   1.000  H
  O19      1.0000 0.61310  0.18010  0.34580  Biso   1.000  O
  C28      1.0000 0.67140  0.12680  0.36020  Biso   1.000  C
  C29      1.0000 0.80000  0.17700  0.32070  Biso   1.000  C
  O20      1.0000 0.65100  0.05880  0.41550  Biso   1.000  O
  H37      1.0000 0.86360  0.24180  0.34960  Biso   1.000  H
  H38      1.0000 0.81960  0.11370  0.31330  Biso   1.000  H
  C30      1.0000 0.72100  0.10100  0.29260  Biso   1.000  C
  H39      1.0000 0.65710  0.03800  0.26270  Biso   1.000  H
  H40      1.0000 0.77870  0.07690  0.30590  Biso   1.000  H
  O21      1.0000 0.56700  0.38690  0.34580  Biso   1.000  O
  C31      1.0000 0.45540  0.32860  0.36020  Biso   1.000  C
  C32      1.0000 0.37700  0.20000  0.32070  Biso   1.000  C
  O22      1.0000 0.40780  0.34900  0.41550  Biso   1.000  O
  H41      1.0000 0.37820  0.13640  0.34960  Biso   1.000  H
  H42      1.0000 0.29410  0.18040  0.31330  Biso   1.000  H
  C33      1.0000 0.38000  0.27900  0.29260  Biso   1.000  C
  H43      1.0000 0.38090  0.34290  0.26270  Biso   1.000  H
  H44      1.0000 0.29820  0.22130  0.30590  Biso   1.000  H
  O23      1.0000 0.81990  0.43300  0.34580  Biso   1.000  O
  C34      1.0000 0.87320  0.54460  0.36020  Biso   1.000  C
  C35      1.0000 0.82300  0.62300  0.32070  Biso   1.000  C
  O24      1.0000 0.94120  0.59220  0.41550  Biso   1.000  O
  H45      1.0000 0.75820  0.62180  0.34960  Biso   1.000  H
  H46      1.0000 0.88630  0.70590  0.31330  Biso   1.000  H
  C36      1.0000 0.89900  0.62000  0.29260  Biso   1.000  C
  H47      1.0000 0.96200  0.61910  0.26270  Biso   1.000  H
  H48      1.0000 0.92310  0.70180  0.30590  Biso   1.000  H
  O25      1.0000 0.18010  0.61310  0.84580  Biso   1.000  O
  C37      1.0000 0.12680  0.67140  0.86020  Biso   1.000  C
  C38      1.0000 0.17700  0.80000  0.82070  Biso   1.000  C
  O26      1.0000 0.05880  0.65100  0.91550  Biso   1.000  O
  H49      1.0000 0.24180  0.86360  0.84960  Biso   1.000  H
  H50      1.0000 0.11370  0.81960  0.81330  Biso   1.000  H
  C39      1.0000 0.10100  0.72100  0.79260  Biso   1.000  C
  H51      1.0000 0.03800  0.65710  0.76270  Biso   1.000  H
  H52      1.0000 0.07690  0.77870  0.80590  Biso   1.000  H
  O27      1.0000 0.38690  0.56700  0.84580  Biso   1.000  O
  C40      1.0000 0.32860  0.45540  0.86020  Biso   1.000  C
  C41      1.0000 0.20000  0.37700  0.82070  Biso   1.000  C
  O28      1.0000 0.34900  0.40780  0.91550  Biso   1.000  O
  H53      1.0000 0.13640  0.37820  0.84960  Biso   1.000  H
  H54      1.0000 0.18040  0.29410  0.81330  Biso   1.000  H
  C42      1.0000 0.27900  0.38000  0.79260  Biso   1.000  C
  H55      1.0000 0.34290  0.38090  0.76270  Biso   1.000  H
  H56      1.0000 0.22130  0.29820  0.80590  Biso   1.000  H
  O29      1.0000 0.43300  0.81990  0.84580  Biso   1.000  O
  C43      1.0000 0.54460  0.87320  0.86020  Biso   1.000  C
  C44      1.0000 0.62300  0.82300  0.82070  Biso   1.000  C
  O30      1.0000 0.59220  0.94120  0.91550  Biso   1.000  O
  H57      1.0000 0.62180  0.75820  0.84960  Biso   1.000  H
  H58      1.0000 0.70590  0.88630  0.81330  Biso   1.000  H
  C45      1.0000 0.62000  0.89900  0.79260  Biso   1.000  C
  H59      1.0000 0.61910  0.96200  0.76270  Biso   1.000  H
  H60      1.0000 0.70180  0.92310  0.80590  Biso   1.000  H
  O31      1.0000 0.81990  0.38690  0.84580  Biso   1.000  O
  C46      1.0000 0.87320  0.32860  0.86020  Biso   1.000  C
  C47      1.0000 0.82300  0.20000  0.82070  Biso   1.000  C
  O32      1.0000 0.94120  0.34900  0.91550  Biso   1.000  O
  H61      1.0000 0.75820  0.13640  0.84960  Biso   1.000  H
  H62      1.0000 0.88630  0.18040  0.81330  Biso   1.000  H
  C48      1.0000 0.89900  0.27900  0.79260  Biso   1.000  C
  H63      1.0000 0.96200  0.34290  0.76270  Biso   1.000  H
  H64      1.0000 0.92310  0.22130  0.80590  Biso   1.000  H
  O33      1.0000 0.61310  0.43300  0.84580  Biso   1.000  O
  C49      1.0000 0.67140  0.54460  0.86020  Biso   1.000  C
  C50      1.0000 0.80000  0.62300  0.82070  Biso   1.000  C
  O34      1.0000 0.65100  0.59220  0.91550  Biso   1.000  O
  H65      1.0000 0.86360  0.62180  0.84960  Biso   1.000  H
  H66      1.0000 0.81960  0.70590  0.81330  Biso   1.000  H
  C51      1.0000 0.72100  0.62000  0.79260  Biso   1.000  C
  H67      1.0000 0.65710  0.61910  0.76270  Biso   1.000  H
  H68      1.0000 0.77870  0.70180  0.80590  Biso   1.000  H
  O35      1.0000 0.56700  0.18010  0.84580  Biso   1.000  O
  C52      1.0000 0.45540  0.12680  0.86020  Biso   1.000  C
  C53      1.0000 0.37700  0.17700  0.82070  Biso   1.000  C
  O36      1.0000 0.40780  0.05880  0.91550  Biso   1.000  O
  H69      1.0000 0.37820  0.24180  0.84960  Biso   1.000  H
  H70      1.0000 0.29410  0.11370  0.81330  Biso   1.000  H
  C54      1.0000 0.38000  0.10100  0.79260  Biso   1.000  C
  H71      1.0000 0.38090  0.03800  0.76270  Biso   1.000  H
  H72      1.0000 0.29820  0.07690  0.80590  Biso   1.000  H
  O37      1.0000 0.61310  0.18010  0.65420  Biso   1.000  O
  C55      1.0000 0.67140  0.12680  0.63980  Biso   1.000  C
  C56      1.0000 0.80000  0.17700  0.67930  Biso   1.000  C
  O38      1.0000 0.65100  0.05880  0.58450  Biso   1.000  O
  H73      1.0000 0.86360  0.24180  0.65040  Biso   1.000  H
  H74      1.0000 0.81960  0.11370  0.68670  Biso   1.000  H
  C57      1.0000 0.72100  0.10100  0.70740  Biso   1.000  C
  H75      1.0000 0.65710  0.03800  0.73730  Biso   1.000  H
  H76      1.0000 0.77870  0.07690  0.69410  Biso   1.000  H
  O39      1.0000 0.56700  0.38690  0.65420  Biso   1.000  O
  C58      1.0000 0.45540  0.32860  0.63980  Biso   1.000  C
  C59      1.0000 0.37700  0.20000  0.67930  Biso   1.000  C
  O40      1.0000 0.40780  0.34900  0.58450  Biso   1.000  O
  H77      1.0000 0.37820  0.13640  0.65040  Biso   1.000  H
  H78      1.0000 0.29410  0.18040  0.68670  Biso   1.000  H
  C60      1.0000 0.38000  0.27900  0.70740  Biso   1.000  C
  H79      1.0000 0.38090  0.34290  0.73730  Biso   1.000  H
  H80      1.0000 0.29820  0.22130  0.69410  Biso   1.000  H
  O41      1.0000 0.81990  0.43300  0.65420  Biso   1.000  O
  C61      1.0000 0.87320  0.54460  0.63980  Biso   1.000  C
  C62      1.0000 0.82300  0.62300  0.67930  Biso   1.000  C
  O42      1.0000 0.94120  0.59220  0.58450  Biso   1.000  O
  H81      1.0000 0.75820  0.62180  0.65040  Biso   1.000  H
  H82      1.0000 0.88630  0.70590  0.68670  Biso   1.000  H
  C63      1.0000 0.89900  0.62000  0.70740  Biso   1.000  C
  H83      1.0000 0.96200  0.61910  0.73730  Biso   1.000  H
  H84      1.0000 0.92310  0.70180  0.69410  Biso   1.000  H
  O43      1.0000 0.38690  0.81990  0.65420  Biso   1.000  O
  C64      1.0000 0.32860  0.87320  0.63980  Biso   1.000  C
  C65      1.0000 0.20000  0.82300  0.67930  Biso   1.000  C
  O44      1.0000 0.34900  0.94120  0.58450  Biso   1.000  O
  H85      1.0000 0.13640  0.75820  0.65040  Biso   1.000  H
  H86      1.0000 0.18040  0.88630  0.68670  Biso   1.000  H
  C66      1.0000 0.27900  0.89900  0.70740  Biso   1.000  C
  H87      1.0000 0.34290  0.96200  0.73730  Biso   1.000  H
  H88      1.0000 0.22130  0.92310  0.69410  Biso   1.000  H
  O45      1.0000 0.43300  0.61310  0.65420  Biso   1.000  O
  C67      1.0000 0.54460  0.67140  0.63980  Biso   1.000  C
  C68      1.0000 0.62300  0.80000  0.67930  Biso   1.000  C
  O46      1.0000 0.59220  0.65100  0.58450  Biso   1.000  O
  H89      1.0000 0.62180  0.86360  0.65040  Biso   1.000  H
  H90      1.0000 0.70590  0.81960  0.68670  Biso   1.000  H
  C69      1.0000 0.62000  0.72100  0.70740  Biso   1.000  C
  H91      1.0000 0.61910  0.65710  0.73730  Biso   1.000  H
  H92      1.0000 0.70180  0.77870  0.69410  Biso   1.000  H
  O47      1.0000 0.18010  0.56700  0.65420  Biso   1.000  O
  C70      1.0000 0.12680  0.45540  0.63980  Biso   1.000  C
  C71      1.0000 0.17700  0.37700  0.67930  Biso   1.000  C
  O48      1.0000 0.05880  0.40780  0.58450  Biso   1.000  O
  H93      1.0000 0.24180  0.37820  0.65040  Biso   1.000  H
  H94      1.0000 0.11370  0.29410  0.68670  Biso   1.000  H
  C72      1.0000 0.10100  0.38000  0.70740  Biso   1.000  C
  H95      1.0000 0.03800  0.38090  0.73730  Biso   1.000  H
  H96      1.0000 0.07690  0.29820  0.69410  Biso   1.000  H
  Sm1      1.0000 0.66667  0.33333  0.25000  Biso   1.000  Sm
  Sm2      1.0000 0.33333  0.66667  0.25000  Biso   1.000  Sm
  Sm3      1.0000 0.33333  0.66667  0.75000  Biso   1.000  Sm
  Sm4      1.0000 0.66667  0.33333  0.75000  Biso   1.000  Sm
  O49      1.0000 0.78040  0.21960  0.25000  Biso   1.000  O
  O50      1.0000 0.78040  0.56080  0.25000  Biso   1.000  O
  O51      1.0000 0.43920  0.21960  0.25000  Biso   1.000  O
  O52      1.0000 0.21960  0.78040  0.25000  Biso   1.000  O
  O53      1.0000 0.21960  0.43920  0.25000  Biso   1.000  O
  O54      1.0000 0.56080  0.78040  0.25000  Biso   1.000  O
  O55      1.0000 0.21960  0.78040  0.75000  Biso   1.000  O
  O56      1.0000 0.21960  0.43920  0.75000  Biso   1.000  O
  O57      1.0000 0.56080  0.78040  0.75000  Biso   1.000  O
  O58      1.0000 0.78040  0.21960  0.75000  Biso   1.000  O
  O59      1.0000 0.78040  0.56080  0.75000  Biso   1.000  O
  O60      1.0000 0.43920  0.21960  0.75000  Biso   1.000  O
  Cd1      1.0000 0.00000  0.50000  0.00000  Biso   1.000  Cd
  Cd2      1.0000 0.50000  0.50000  0.00000  Biso   1.000  Cd
  Cd3      1.0000 0.50000  0.00000  0.00000  Biso   1.000  Cd
  Cd4      1.0000 0.50000  0.00000  0.50000  Biso   1.000  Cd
  Cd5      1.0000 0.50000  0.50000  0.50000  Biso   1.000  Cd
  Cd6      1.0000 0.00000  0.50000  0.50000  Biso   1.000  Cd
