data_image0
_cell_length_a       12.9706
_cell_length_b       12.9706
_cell_length_c       17.615
_cell_angle_alpha    90
_cell_angle_beta     90
_cell_angle_gamma    120

_symmetry_space_group_name_H-M    "P 1"
_symmetry_int_tables_number       1

loop_
  _symmetry_equiv_pos_as_xyz
  'x, y, z'

loop_
  _atom_site_label
  _atom_site_occupancy
  _atom_site_fract_x
  _atom_site_fract_y
  _atom_site_fract_z
  _atom_site_thermal_displace_type
  _atom_site_B_iso_or_equiv
  _atom_site_type_symbol
  C1       1.0000 0.87730  0.33090  0.13920  Biso   1.000  C
  C2       1.0000 0.90100  0.28400  0.21200  Biso   1.000  C
  H1       1.0000 0.95800  0.34930  0.24340  Biso   1.000  H
  H2       1.0000 0.93070  0.23070  0.20150  Biso   1.000  H
  O1       1.0000 0.94630  0.35230  0.08490  Biso   1.000  O
  O2       1.0000 0.82240  0.38440  0.15300  Biso   1.000  O
  C3       1.0000 0.81900  0.19000  0.17200  Biso   1.000  C
  H3       1.0000 0.75180  0.13280  0.14220  Biso   1.000  H
  H4       1.0000 0.87750  0.16540  0.17760  Biso   1.000  H
  C4       1.0000 0.66910  0.54640  0.13920  Biso   1.000  C
  C5       1.0000 0.71600  0.61700  0.21200  Biso   1.000  C
  H5       1.0000 0.65070  0.60870  0.24340  Biso   1.000  H
  H6       1.0000 0.76930  0.70000  0.20150  Biso   1.000  H
  O3       1.0000 0.64770  0.59400  0.08490  Biso   1.000  O
  O4       1.0000 0.61560  0.43800  0.15300  Biso   1.000  O
  C6       1.0000 0.81000  0.62900  0.17200  Biso   1.000  C
  H7       1.0000 0.86720  0.61900  0.14220  Biso   1.000  H
  H8       1.0000 0.83460  0.71210  0.17760  Biso   1.000  H
  C7       1.0000 0.45360  0.12270  0.13920  Biso   1.000  C
  C8       1.0000 0.38300  0.09900  0.21200  Biso   1.000  C
  H9       1.0000 0.39130  0.04200  0.24340  Biso   1.000  H
  H10      1.0000 0.30000  0.06930  0.20150  Biso   1.000  H
  O5       1.0000 0.40600  0.05370  0.08490  Biso   1.000  O
  O6       1.0000 0.56200  0.17760  0.15300  Biso   1.000  O
  C9       1.0000 0.37100  0.18100  0.17200  Biso   1.000  C
  H11      1.0000 0.38100  0.24820  0.14220  Biso   1.000  H
  H12      1.0000 0.28790  0.12250  0.17760  Biso   1.000  H
  C10      1.0000 0.12270  0.66910  0.13920  Biso   1.000  C
  C11      1.0000 0.09900  0.71600  0.21200  Biso   1.000  C
  H13      1.0000 0.04200  0.65070  0.24340  Biso   1.000  H
  H14      1.0000 0.06930  0.76930  0.20150  Biso   1.000  H
  O7       1.0000 0.05370  0.64770  0.08490  Biso   1.000  O
  O8       1.0000 0.17760  0.61560  0.15300  Biso   1.000  O
  C12      1.0000 0.18100  0.81000  0.17200  Biso   1.000  C
  H15      1.0000 0.24820  0.86720  0.14220  Biso   1.000  H
  H16      1.0000 0.12250  0.83460  0.17760  Biso   1.000  H
  C13      1.0000 0.33090  0.45360  0.13920  Biso   1.000  C
  C14      1.0000 0.28400  0.38300  0.21200  Biso   1.000  C
  H17      1.0000 0.34930  0.39130  0.24340  Biso   1.000  H
  H18      1.0000 0.23070  0.30000  0.20150  Biso   1.000  H
  O9       1.0000 0.35230  0.40600  0.08490  Biso   1.000  O
  O10      1.0000 0.38440  0.56200  0.15300  Biso   1.000  O
  C15      1.0000 0.19000  0.37100  0.17200  Biso   1.000  C
  H19      1.0000 0.13280  0.38100  0.14220  Biso   1.000  H
  H20      1.0000 0.16540  0.28790  0.17760  Biso   1.000  H
  C16      1.0000 0.54640  0.87730  0.13920  Biso   1.000  C
  C17      1.0000 0.61700  0.90100  0.21200  Biso   1.000  C
  H21      1.0000 0.60870  0.95800  0.24340  Biso   1.000  H
  H22      1.0000 0.70000  0.93070  0.20150  Biso   1.000  H
  O11      1.0000 0.59400  0.94630  0.08490  Biso   1.000  O
  O12      1.0000 0.43800  0.82240  0.15300  Biso   1.000  O
  C18      1.0000 0.62900  0.81900  0.17200  Biso   1.000  C
  H23      1.0000 0.61900  0.75180  0.14220  Biso   1.000  H
  H24      1.0000 0.71210  0.87750  0.17760  Biso   1.000  H
  C19      1.0000 0.33090  0.87730  0.36080  Biso   1.000  C
  C20      1.0000 0.28400  0.90100  0.28800  Biso   1.000  C
  H25      1.0000 0.34930  0.95800  0.25660  Biso   1.000  H
  H26      1.0000 0.23070  0.93070  0.29850  Biso   1.000  H
  O13      1.0000 0.35230  0.94630  0.41510  Biso   1.000  O
  O14      1.0000 0.38440  0.82240  0.34700  Biso   1.000  O
  C21      1.0000 0.19000  0.81900  0.32800  Biso   1.000  C
  H27      1.0000 0.13280  0.75180  0.35780  Biso   1.000  H
  H28      1.0000 0.16540  0.87750  0.32240  Biso   1.000  H
  C22      1.0000 0.54640  0.66910  0.36080  Biso   1.000  C
  C23      1.0000 0.61700  0.71600  0.28800  Biso   1.000  C
  H29      1.0000 0.60870  0.65070  0.25660  Biso   1.000  H
  H30      1.0000 0.70000  0.76930  0.29850  Biso   1.000  H
  O15      1.0000 0.59400  0.64770  0.41510  Biso   1.000  O
  O16      1.0000 0.43800  0.61560  0.34700  Biso   1.000  O
  C24      1.0000 0.62900  0.81000  0.32800  Biso   1.000  C
  H31      1.0000 0.61900  0.86720  0.35780  Biso   1.000  H
  H32      1.0000 0.71210  0.83460  0.32240  Biso   1.000  H
  C25      1.0000 0.12270  0.45360  0.36080  Biso   1.000  C
  C26      1.0000 0.09900  0.38300  0.28800  Biso   1.000  C
  H33      1.0000 0.04200  0.39130  0.25660  Biso   1.000  H
  H34      1.0000 0.06930  0.30000  0.29850  Biso   1.000  H
  O17      1.0000 0.05370  0.40600  0.41510  Biso   1.000  O
  O18      1.0000 0.17760  0.56200  0.34700  Biso   1.000  O
  C27      1.0000 0.18100  0.37100  0.32800  Biso   1.000  C
  H35      1.0000 0.24820  0.38100  0.35780  Biso   1.000  H
  H36      1.0000 0.12250  0.28790  0.32240  Biso   1.000  H
  C28      1.0000 0.66910  0.12270  0.36080  Biso   1.000  C
  C29      1.0000 0.71600  0.09900  0.28800  Biso   1.000  C
  H37      1.0000 0.65070  0.04200  0.25660  Biso   1.000  H
  H38      1.0000 0.76930  0.06930  0.29850  Biso   1.000  H
  O19      1.0000 0.64770  0.05370  0.41510  Biso   1.000  O
  O20      1.0000 0.61560  0.17760  0.34700  Biso   1.000  O
  C30      1.0000 0.81000  0.18100  0.32800  Biso   1.000  C
  H39      1.0000 0.86720  0.24820  0.35780  Biso   1.000  H
  H40      1.0000 0.83460  0.12250  0.32240  Biso   1.000  H
  C31      1.0000 0.45360  0.33090  0.36080  Biso   1.000  C
  C32      1.0000 0.38300  0.28400  0.28800  Biso   1.000  C
  H41      1.0000 0.39130  0.34930  0.25660  Biso   1.000  H
  H42      1.0000 0.30000  0.23070  0.29850  Biso   1.000  H
  O21      1.0000 0.40600  0.35230  0.41510  Biso   1.000  O
  O22      1.0000 0.56200  0.38440  0.34700  Biso   1.000  O
  C33      1.0000 0.37100  0.19000  0.32800  Biso   1.000  C
  H43      1.0000 0.38100  0.13280  0.35780  Biso   1.000  H
  H44      1.0000 0.28790  0.16540  0.32240  Biso   1.000  H
  C34      1.0000 0.87730  0.54640  0.36080  Biso   1.000  C
  C35      1.0000 0.90100  0.61700  0.28800  Biso   1.000  C
  H45      1.0000 0.95800  0.60870  0.25660  Biso   1.000  H
  H46      1.0000 0.93070  0.70000  0.29850  Biso   1.000  H
  O23      1.0000 0.94630  0.59400  0.41510  Biso   1.000  O
  O24      1.0000 0.82240  0.43800  0.34700  Biso   1.000  O
  C36      1.0000 0.81900  0.62900  0.32800  Biso   1.000  C
  H47      1.0000 0.75180  0.61900  0.35780  Biso   1.000  H
  H48      1.0000 0.87750  0.71210  0.32240  Biso   1.000  H
  C37      1.0000 0.12270  0.66910  0.86080  Biso   1.000  C
  C38      1.0000 0.09900  0.71600  0.78800  Biso   1.000  C
  H49      1.0000 0.04200  0.65070  0.75660  Biso   1.000  H
  H50      1.0000 0.06930  0.76930  0.79850  Biso   1.000  H
  O25      1.0000 0.05370  0.64770  0.91510  Biso   1.000  O
  O26      1.0000 0.17760  0.61560  0.84700  Biso   1.000  O
  C39      1.0000 0.18100  0.81000  0.82800  Biso   1.000  C
  H51      1.0000 0.24820  0.86720  0.85780  Biso   1.000  H
  H52      1.0000 0.12250  0.83460  0.82240  Biso   1.000  H
  C40      1.0000 0.33090  0.45360  0.86080  Biso   1.000  C
  C41      1.0000 0.28400  0.38300  0.78800  Biso   1.000  C
  H53      1.0000 0.34930  0.39130  0.75660  Biso   1.000  H
  H54      1.0000 0.23070  0.30000  0.79850  Biso   1.000  H
  O27      1.0000 0.35230  0.40600  0.91510  Biso   1.000  O
  O28      1.0000 0.38440  0.56200  0.84700  Biso   1.000  O
  C42      1.0000 0.19000  0.37100  0.82800  Biso   1.000  C
  H55      1.0000 0.13280  0.38100  0.85780  Biso   1.000  H
  H56      1.0000 0.16540  0.28790  0.82240  Biso   1.000  H
  C43      1.0000 0.54640  0.87730  0.86080  Biso   1.000  C
  C44      1.0000 0.61700  0.90100  0.78800  Biso   1.000  C
  H57      1.0000 0.60870  0.95800  0.75660  Biso   1.000  H
  H58      1.0000 0.70000  0.93070  0.79850  Biso   1.000  H
  O29      1.0000 0.59400  0.94630  0.91510  Biso   1.000  O
  O30      1.0000 0.43800  0.82240  0.84700  Biso   1.000  O
  C45      1.0000 0.62900  0.81900  0.82800  Biso   1.000  C
  H59      1.0000 0.61900  0.75180  0.85780  Biso   1.000  H
  H60      1.0000 0.71210  0.87750  0.82240  Biso   1.000  H
  C46      1.0000 0.87730  0.33090  0.86080  Biso   1.000  C
  C47      1.0000 0.90100  0.28400  0.78800  Biso   1.000  C
  H61      1.0000 0.95800  0.34930  0.75660  Biso   1.000  H
  H62      1.0000 0.93070  0.23070  0.79850  Biso   1.000  H
  O31      1.0000 0.94630  0.35230  0.91510  Biso   1.000  O
  O32      1.0000 0.82240  0.38440  0.84700  Biso   1.000  O
  C48      1.0000 0.81900  0.19000  0.82800  Biso   1.000  C
  H63      1.0000 0.75180  0.13280  0.85780  Biso   1.000  H
  H64      1.0000 0.87750  0.16540  0.82240  Biso   1.000  H
  C49      1.0000 0.66910  0.54640  0.86080  Biso   1.000  C
  C50      1.0000 0.71600  0.61700  0.78800  Biso   1.000  C
  H65      1.0000 0.65070  0.60870  0.75660  Biso   1.000  H
  H66      1.0000 0.76930  0.70000  0.79850  Biso   1.000  H
  O33      1.0000 0.64770  0.59400  0.91510  Biso   1.000  O
  O34      1.0000 0.61560  0.43800  0.84700  Biso   1.000  O
  C51      1.0000 0.81000  0.62900  0.82800  Biso   1.000  C
  H67      1.0000 0.86720  0.61900  0.85780  Biso   1.000  H
  H68      1.0000 0.83460  0.71210  0.82240  Biso   1.000  H
  C52      1.0000 0.45360  0.12270  0.86080  Biso   1.000  C
  C53      1.0000 0.38300  0.09900  0.78800  Biso   1.000  C
  H69      1.0000 0.39130  0.04200  0.75660  Biso   1.000  H
  H70      1.0000 0.30000  0.06930  0.79850  Biso   1.000  H
  O35      1.0000 0.40600  0.05370  0.91510  Biso   1.000  O
  O36      1.0000 0.56200  0.17760  0.84700  Biso   1.000  O
  C54      1.0000 0.37100  0.18100  0.82800  Biso   1.000  C
  H71      1.0000 0.38100  0.24820  0.85780  Biso   1.000  H
  H72      1.0000 0.28790  0.12250  0.82240  Biso   1.000  H
  C55      1.0000 0.66910  0.12270  0.63920  Biso   1.000  C
  C56      1.0000 0.71600  0.09900  0.71200  Biso   1.000  C
  H73      1.0000 0.65070  0.04200  0.74340  Biso   1.000  H
  H74      1.0000 0.76930  0.06930  0.70150  Biso   1.000  H
  O37      1.0000 0.64770  0.05370  0.58490  Biso   1.000  O
  O38      1.0000 0.61560  0.17760  0.65300  Biso   1.000  O
  C57      1.0000 0.81000  0.18100  0.67200  Biso   1.000  C
  H75      1.0000 0.86720  0.24820  0.64220  Biso   1.000  H
  H76      1.0000 0.83460  0.12250  0.67760  Biso   1.000  H
  C58      1.0000 0.45360  0.33090  0.63920  Biso   1.000  C
  C59      1.0000 0.38300  0.28400  0.71200  Biso   1.000  C
  H77      1.0000 0.39130  0.34930  0.74340  Biso   1.000  H
  H78      1.0000 0.30000  0.23070  0.70150  Biso   1.000  H
  O39      1.0000 0.40600  0.35230  0.58490  Biso   1.000  O
  O40      1.0000 0.56200  0.38440  0.65300  Biso   1.000  O
  C60      1.0000 0.37100  0.19000  0.67200  Biso   1.000  C
  H79      1.0000 0.38100  0.13280  0.64220  Biso   1.000  H
  H80      1.0000 0.28790  0.16540  0.67760  Biso   1.000  H
  C61      1.0000 0.87730  0.54640  0.63920  Biso   1.000  C
  C62      1.0000 0.90100  0.61700  0.71200  Biso   1.000  C
  H81      1.0000 0.95800  0.60870  0.74340  Biso   1.000  H
  H82      1.0000 0.93070  0.70000  0.70150  Biso   1.000  H
  O41      1.0000 0.94630  0.59400  0.58490  Biso   1.000  O
  O42      1.0000 0.82240  0.43800  0.65300  Biso   1.000  O
  C63      1.0000 0.81900  0.62900  0.67200  Biso   1.000  C
  H83      1.0000 0.75180  0.61900  0.64220  Biso   1.000  H
  H84      1.0000 0.87750  0.71210  0.67760  Biso   1.000  H
  C64      1.0000 0.33090  0.87730  0.63920  Biso   1.000  C
  C65      1.0000 0.28400  0.90100  0.71200  Biso   1.000  C
  H85      1.0000 0.34930  0.95800  0.74340  Biso   1.000  H
  H86      1.0000 0.23070  0.93070  0.70150  Biso   1.000  H
  O43      1.0000 0.35230  0.94630  0.58490  Biso   1.000  O
  O44      1.0000 0.38440  0.82240  0.65300  Biso   1.000  O
  C66      1.0000 0.19000  0.81900  0.67200  Biso   1.000  C
  H87      1.0000 0.13280  0.75180  0.64220  Biso   1.000  H
  H88      1.0000 0.16540  0.87750  0.67760  Biso   1.000  H
  C67      1.0000 0.54640  0.66910  0.63920  Biso   1.000  C
  C68      1.0000 0.61700  0.71600  0.71200  Biso   1.000  C
  H89      1.0000 0.60870  0.65070  0.74340  Biso   1.000  H
  H90      1.0000 0.70000  0.76930  0.70150  Biso   1.000  H
  O45      1.0000 0.59400  0.64770  0.58490  Biso   1.000  O
  O46      1.0000 0.43800  0.61560  0.65300  Biso   1.000  O
  C69      1.0000 0.62900  0.81000  0.67200  Biso   1.000  C
  H91      1.0000 0.61900  0.86720  0.64220  Biso   1.000  H
  H92      1.0000 0.71210  0.83460  0.67760  Biso   1.000  H
  C70      1.0000 0.12270  0.45360  0.63920  Biso   1.000  C
  C71      1.0000 0.09900  0.38300  0.71200  Biso   1.000  C
  H93      1.0000 0.04200  0.39130  0.74340  Biso   1.000  H
  H94      1.0000 0.06930  0.30000  0.70150  Biso   1.000  H
  O47      1.0000 0.05370  0.40600  0.58490  Biso   1.000  O
  O48      1.0000 0.17760  0.56200  0.65300  Biso   1.000  O
  C72      1.0000 0.18100  0.37100  0.67200  Biso   1.000  C
  H95      1.0000 0.24820  0.38100  0.64220  Biso   1.000  H
  H96      1.0000 0.12250  0.28790  0.67760  Biso   1.000  H
  Pr1      1.0000 0.66667  0.33333  0.25000  Biso   1.000  Pr
  Pr2      1.0000 0.33333  0.66667  0.25000  Biso   1.000  Pr
  Pr3      1.0000 0.33333  0.66667  0.75000  Biso   1.000  Pr
  Pr4      1.0000 0.66667  0.33333  0.75000  Biso   1.000  Pr
  O49      1.0000 0.78030  0.21970  0.25000  Biso   1.000  O
  O50      1.0000 0.78030  0.56060  0.25000  Biso   1.000  O
  O51      1.0000 0.43940  0.21970  0.25000  Biso   1.000  O
  O52      1.0000 0.21970  0.78030  0.25000  Biso   1.000  O
  O53      1.0000 0.21970  0.43940  0.25000  Biso   1.000  O
  O54      1.0000 0.56060  0.78030  0.25000  Biso   1.000  O
  O55      1.0000 0.21970  0.78030  0.75000  Biso   1.000  O
  O56      1.0000 0.21970  0.43940  0.75000  Biso   1.000  O
  O57      1.0000 0.56060  0.78030  0.75000  Biso   1.000  O
  O58      1.0000 0.78030  0.21970  0.75000  Biso   1.000  O
  O59      1.0000 0.78030  0.56060  0.75000  Biso   1.000  O
  O60      1.0000 0.43940  0.21970  0.75000  Biso   1.000  O
  Cd1      1.0000 0.00000  0.50000  0.00000  Biso   1.000  Cd
  Cd2      1.0000 0.50000  0.50000  0.00000  Biso   1.000  Cd
  Cd3      1.0000 0.50000  0.00000  0.00000  Biso   1.000  Cd
  Cd4      1.0000 0.50000  0.00000  0.50000  Biso   1.000  Cd
  Cd5      1.0000 0.50000  0.50000  0.50000  Biso   1.000  Cd
  Cd6      1.0000 0.00000  0.50000  0.50000  Biso   1.000  Cd
