data_image0
_cell_length_a       12.628
_cell_length_b       12.628
_cell_length_c       17.852
_cell_angle_alpha    90
_cell_angle_beta     90
_cell_angle_gamma    120

_symmetry_space_group_name_H-M    "P 1"
_symmetry_int_tables_number       1

loop_
  _symmetry_equiv_pos_as_xyz
  'x, y, z'

loop_
  _atom_site_label
  _atom_site_occupancy
  _atom_site_fract_x
  _atom_site_fract_y
  _atom_site_fract_z
  _atom_site_thermal_displace_type
  _atom_site_B_iso_or_equiv
  _atom_site_type_symbol
  C1       1.0000 0.46050  0.13130  0.14000  Biso   1.000  C
  C2       1.0000 0.38200  0.18100  0.18000  Biso   1.000  C
  H1       1.0000 0.38220  0.24680  0.15230  Biso   1.000  H
  H2       1.0000 0.29780  0.11600  0.18790  Biso   1.000  H
  O1       1.0000 0.56730  0.17990  0.15610  Biso   1.000  O
  O2       1.0000 0.41120  0.06170  0.08400  Biso   1.000  O
  C3       1.0000 0.38400  0.10500  0.20720  Biso   1.000  C
  H3       1.0000 0.38310  0.03930  0.23610  Biso   1.000  H
  H4       1.0000 0.30130  0.08250  0.19410  Biso   1.000  H
  C4       1.0000 0.86870  0.32920  0.14000  Biso   1.000  C
  C5       1.0000 0.81900  0.20100  0.18000  Biso   1.000  C
  H5       1.0000 0.75320  0.13540  0.15230  Biso   1.000  H
  H6       1.0000 0.88400  0.18180  0.18790  Biso   1.000  H
  O3       1.0000 0.82010  0.38740  0.15610  Biso   1.000  O
  O4       1.0000 0.93830  0.34950  0.08400  Biso   1.000  O
  C6       1.0000 0.89500  0.27900  0.20720  Biso   1.000  C
  H7       1.0000 0.96070  0.34380  0.23610  Biso   1.000  H
  H8       1.0000 0.91750  0.21880  0.19410  Biso   1.000  H
  C7       1.0000 0.67080  0.53950  0.14000  Biso   1.000  C
  C8       1.0000 0.79900  0.61800  0.18000  Biso   1.000  C
  H9       1.0000 0.86460  0.61780  0.15230  Biso   1.000  H
  H10      1.0000 0.81820  0.70220  0.18790  Biso   1.000  H
  O5       1.0000 0.61260  0.43270  0.15610  Biso   1.000  O
  O6       1.0000 0.65050  0.58880  0.08400  Biso   1.000  O
  C9       1.0000 0.72100  0.61600  0.20720  Biso   1.000  C
  H11      1.0000 0.65620  0.61690  0.23610  Biso   1.000  H
  H12      1.0000 0.78120  0.69870  0.19410  Biso   1.000  H
  C10      1.0000 0.53950  0.86870  0.14000  Biso   1.000  C
  C11      1.0000 0.61800  0.81900  0.18000  Biso   1.000  C
  H13      1.0000 0.61780  0.75320  0.15230  Biso   1.000  H
  H14      1.0000 0.70220  0.88400  0.18790  Biso   1.000  H
  O7       1.0000 0.43270  0.82010  0.15610  Biso   1.000  O
  O8       1.0000 0.58880  0.93830  0.08400  Biso   1.000  O
  C12      1.0000 0.61600  0.89500  0.20720  Biso   1.000  C
  H15      1.0000 0.61690  0.96070  0.23610  Biso   1.000  H
  H16      1.0000 0.69870  0.91750  0.19410  Biso   1.000  H
  C13      1.0000 0.13130  0.67080  0.14000  Biso   1.000  C
  C14      1.0000 0.18100  0.79900  0.18000  Biso   1.000  C
  H17      1.0000 0.24680  0.86460  0.15230  Biso   1.000  H
  H18      1.0000 0.11600  0.81820  0.18790  Biso   1.000  H
  O9       1.0000 0.17990  0.61260  0.15610  Biso   1.000  O
  O10      1.0000 0.06170  0.65050  0.08400  Biso   1.000  O
  C15      1.0000 0.10500  0.72100  0.20720  Biso   1.000  C
  H19      1.0000 0.03930  0.65620  0.23610  Biso   1.000  H
  H20      1.0000 0.08250  0.78120  0.19410  Biso   1.000  H
  C16      1.0000 0.32920  0.46050  0.14000  Biso   1.000  C
  C17      1.0000 0.20100  0.38200  0.18000  Biso   1.000  C
  H21      1.0000 0.13540  0.38220  0.15230  Biso   1.000  H
  H22      1.0000 0.18180  0.29780  0.18790  Biso   1.000  H
  O11      1.0000 0.38740  0.56730  0.15610  Biso   1.000  O
  O12      1.0000 0.34950  0.41120  0.08400  Biso   1.000  O
  C18      1.0000 0.27900  0.38400  0.20720  Biso   1.000  C
  H23      1.0000 0.34380  0.38310  0.23610  Biso   1.000  H
  H24      1.0000 0.21880  0.30130  0.19410  Biso   1.000  H
  C19      1.0000 0.13130  0.46050  0.36000  Biso   1.000  C
  C20      1.0000 0.18100  0.38200  0.32000  Biso   1.000  C
  H25      1.0000 0.24680  0.38220  0.34770  Biso   1.000  H
  H26      1.0000 0.11600  0.29780  0.31210  Biso   1.000  H
  O13      1.0000 0.17990  0.56730  0.34390  Biso   1.000  O
  O14      1.0000 0.06170  0.41120  0.41600  Biso   1.000  O
  C21      1.0000 0.10500  0.38400  0.29280  Biso   1.000  C
  H27      1.0000 0.03930  0.38310  0.26390  Biso   1.000  H
  H28      1.0000 0.08250  0.30130  0.30590  Biso   1.000  H
  C22      1.0000 0.32920  0.86870  0.36000  Biso   1.000  C
  C23      1.0000 0.20100  0.81900  0.32000  Biso   1.000  C
  H29      1.0000 0.13540  0.75320  0.34770  Biso   1.000  H
  H30      1.0000 0.18180  0.88400  0.31210  Biso   1.000  H
  O15      1.0000 0.38740  0.82010  0.34390  Biso   1.000  O
  O16      1.0000 0.34950  0.93830  0.41600  Biso   1.000  O
  C24      1.0000 0.27900  0.89500  0.29280  Biso   1.000  C
  H31      1.0000 0.34380  0.96070  0.26390  Biso   1.000  H
  H32      1.0000 0.21880  0.91750  0.30590  Biso   1.000  H
  C25      1.0000 0.53950  0.67080  0.36000  Biso   1.000  C
  C26      1.0000 0.61800  0.79900  0.32000  Biso   1.000  C
  H33      1.0000 0.61780  0.86460  0.34770  Biso   1.000  H
  H34      1.0000 0.70220  0.81820  0.31210  Biso   1.000  H
  O17      1.0000 0.43270  0.61260  0.34390  Biso   1.000  O
  O18      1.0000 0.58880  0.65050  0.41600  Biso   1.000  O
  C27      1.0000 0.61600  0.72100  0.29280  Biso   1.000  C
  H35      1.0000 0.61690  0.65620  0.26390  Biso   1.000  H
  H36      1.0000 0.69870  0.78120  0.30590  Biso   1.000  H
  C28      1.0000 0.86870  0.53950  0.36000  Biso   1.000  C
  C29      1.0000 0.81900  0.61800  0.32000  Biso   1.000  C
  H37      1.0000 0.75320  0.61780  0.34770  Biso   1.000  H
  H38      1.0000 0.88400  0.70220  0.31210  Biso   1.000  H
  O19      1.0000 0.82010  0.43270  0.34390  Biso   1.000  O
  O20      1.0000 0.93830  0.58880  0.41600  Biso   1.000  O
  C30      1.0000 0.89500  0.61600  0.29280  Biso   1.000  C
  H39      1.0000 0.96070  0.61690  0.26390  Biso   1.000  H
  H40      1.0000 0.91750  0.69870  0.30590  Biso   1.000  H
  C31      1.0000 0.67080  0.13130  0.36000  Biso   1.000  C
  C32      1.0000 0.79900  0.18100  0.32000  Biso   1.000  C
  H41      1.0000 0.86460  0.24680  0.34770  Biso   1.000  H
  H42      1.0000 0.81820  0.11600  0.31210  Biso   1.000  H
  O21      1.0000 0.61260  0.17990  0.34390  Biso   1.000  O
  O22      1.0000 0.65050  0.06170  0.41600  Biso   1.000  O
  C33      1.0000 0.72100  0.10500  0.29280  Biso   1.000  C
  H43      1.0000 0.65620  0.03930  0.26390  Biso   1.000  H
  H44      1.0000 0.78120  0.08250  0.30590  Biso   1.000  H
  C34      1.0000 0.46050  0.32920  0.36000  Biso   1.000  C
  C35      1.0000 0.38200  0.20100  0.32000  Biso   1.000  C
  H45      1.0000 0.38220  0.13540  0.34770  Biso   1.000  H
  H46      1.0000 0.29780  0.18180  0.31210  Biso   1.000  H
  O23      1.0000 0.56730  0.38740  0.34390  Biso   1.000  O
  O24      1.0000 0.41120  0.34950  0.41600  Biso   1.000  O
  C36      1.0000 0.38400  0.27900  0.29280  Biso   1.000  C
  H47      1.0000 0.38310  0.34380  0.26390  Biso   1.000  H
  H48      1.0000 0.30130  0.21880  0.30590  Biso   1.000  H
  C37      1.0000 0.53950  0.86870  0.86000  Biso   1.000  C
  C38      1.0000 0.61800  0.81900  0.82000  Biso   1.000  C
  H49      1.0000 0.61780  0.75320  0.84770  Biso   1.000  H
  H50      1.0000 0.70220  0.88400  0.81210  Biso   1.000  H
  O25      1.0000 0.43270  0.82010  0.84390  Biso   1.000  O
  O26      1.0000 0.58880  0.93830  0.91600  Biso   1.000  O
  C39      1.0000 0.61600  0.89500  0.79280  Biso   1.000  C
  H51      1.0000 0.61690  0.96070  0.76390  Biso   1.000  H
  H52      1.0000 0.69870  0.91750  0.80590  Biso   1.000  H
  C40      1.0000 0.13130  0.67080  0.86000  Biso   1.000  C
  C41      1.0000 0.18100  0.79900  0.82000  Biso   1.000  C
  H53      1.0000 0.24680  0.86460  0.84770  Biso   1.000  H
  H54      1.0000 0.11600  0.81820  0.81210  Biso   1.000  H
  O27      1.0000 0.17990  0.61260  0.84390  Biso   1.000  O
  O28      1.0000 0.06170  0.65050  0.91600  Biso   1.000  O
  C42      1.0000 0.10500  0.72100  0.79280  Biso   1.000  C
  H55      1.0000 0.03930  0.65620  0.76390  Biso   1.000  H
  H56      1.0000 0.08250  0.78120  0.80590  Biso   1.000  H
  C43      1.0000 0.32920  0.46050  0.86000  Biso   1.000  C
  C44      1.0000 0.20100  0.38200  0.82000  Biso   1.000  C
  H57      1.0000 0.13540  0.38220  0.84770  Biso   1.000  H
  H58      1.0000 0.18180  0.29780  0.81210  Biso   1.000  H
  O29      1.0000 0.38740  0.56730  0.84390  Biso   1.000  O
  O30      1.0000 0.34950  0.41120  0.91600  Biso   1.000  O
  C45      1.0000 0.27900  0.38400  0.79280  Biso   1.000  C
  H59      1.0000 0.34380  0.38310  0.76390  Biso   1.000  H
  H60      1.0000 0.21880  0.30130  0.80590  Biso   1.000  H
  C46      1.0000 0.46050  0.13130  0.86000  Biso   1.000  C
  C47      1.0000 0.38200  0.18100  0.82000  Biso   1.000  C
  H61      1.0000 0.38220  0.24680  0.84770  Biso   1.000  H
  H62      1.0000 0.29780  0.11600  0.81210  Biso   1.000  H
  O31      1.0000 0.56730  0.17990  0.84390  Biso   1.000  O
  O32      1.0000 0.41120  0.06170  0.91600  Biso   1.000  O
  C48      1.0000 0.38400  0.10500  0.79280  Biso   1.000  C
  H63      1.0000 0.38310  0.03930  0.76390  Biso   1.000  H
  H64      1.0000 0.30130  0.08250  0.80590  Biso   1.000  H
  C49      1.0000 0.86870  0.32920  0.86000  Biso   1.000  C
  C50      1.0000 0.81900  0.20100  0.82000  Biso   1.000  C
  H65      1.0000 0.75320  0.13540  0.84770  Biso   1.000  H
  H66      1.0000 0.88400  0.18180  0.81210  Biso   1.000  H
  O33      1.0000 0.82010  0.38740  0.84390  Biso   1.000  O
  O34      1.0000 0.93830  0.34950  0.91600  Biso   1.000  O
  C51      1.0000 0.89500  0.27900  0.79280  Biso   1.000  C
  H67      1.0000 0.96070  0.34380  0.76390  Biso   1.000  H
  H68      1.0000 0.91750  0.21880  0.80590  Biso   1.000  H
  C52      1.0000 0.67080  0.53950  0.86000  Biso   1.000  C
  C53      1.0000 0.79900  0.61800  0.82000  Biso   1.000  C
  H69      1.0000 0.86460  0.61780  0.84770  Biso   1.000  H
  H70      1.0000 0.81820  0.70220  0.81210  Biso   1.000  H
  O35      1.0000 0.61260  0.43270  0.84390  Biso   1.000  O
  O36      1.0000 0.65050  0.58880  0.91600  Biso   1.000  O
  C54      1.0000 0.72100  0.61600  0.79280  Biso   1.000  C
  H71      1.0000 0.65620  0.61690  0.76390  Biso   1.000  H
  H72      1.0000 0.78120  0.69870  0.80590  Biso   1.000  H
  C55      1.0000 0.86870  0.53950  0.64000  Biso   1.000  C
  C56      1.0000 0.81900  0.61800  0.68000  Biso   1.000  C
  H73      1.0000 0.75320  0.61780  0.65230  Biso   1.000  H
  H74      1.0000 0.88400  0.70220  0.68790  Biso   1.000  H
  O37      1.0000 0.82010  0.43270  0.65610  Biso   1.000  O
  O38      1.0000 0.93830  0.58880  0.58400  Biso   1.000  O
  C57      1.0000 0.89500  0.61600  0.70720  Biso   1.000  C
  H75      1.0000 0.96070  0.61690  0.73610  Biso   1.000  H
  H76      1.0000 0.91750  0.69870  0.69410  Biso   1.000  H
  C58      1.0000 0.67080  0.13130  0.64000  Biso   1.000  C
  C59      1.0000 0.79900  0.18100  0.68000  Biso   1.000  C
  H77      1.0000 0.86460  0.24680  0.65230  Biso   1.000  H
  H78      1.0000 0.81820  0.11600  0.68790  Biso   1.000  H
  O39      1.0000 0.61260  0.17990  0.65610  Biso   1.000  O
  O40      1.0000 0.65050  0.06170  0.58400  Biso   1.000  O
  C60      1.0000 0.72100  0.10500  0.70720  Biso   1.000  C
  H79      1.0000 0.65620  0.03930  0.73610  Biso   1.000  H
  H80      1.0000 0.78120  0.08250  0.69410  Biso   1.000  H
  C61      1.0000 0.46050  0.32920  0.64000  Biso   1.000  C
  C62      1.0000 0.38200  0.20100  0.68000  Biso   1.000  C
  H81      1.0000 0.38220  0.13540  0.65230  Biso   1.000  H
  H82      1.0000 0.29780  0.18180  0.68790  Biso   1.000  H
  O41      1.0000 0.56730  0.38740  0.65610  Biso   1.000  O
  O42      1.0000 0.41120  0.34950  0.58400  Biso   1.000  O
  C63      1.0000 0.38400  0.27900  0.70720  Biso   1.000  C
  H83      1.0000 0.38310  0.34380  0.73610  Biso   1.000  H
  H84      1.0000 0.30130  0.21880  0.69410  Biso   1.000  H
  C64      1.0000 0.13130  0.46050  0.64000  Biso   1.000  C
  C65      1.0000 0.18100  0.38200  0.68000  Biso   1.000  C
  H85      1.0000 0.24680  0.38220  0.65230  Biso   1.000  H
  H86      1.0000 0.11600  0.29780  0.68790  Biso   1.000  H
  O43      1.0000 0.17990  0.56730  0.65610  Biso   1.000  O
  O44      1.0000 0.06170  0.41120  0.58400  Biso   1.000  O
  C66      1.0000 0.10500  0.38400  0.70720  Biso   1.000  C
  H87      1.0000 0.03930  0.38310  0.73610  Biso   1.000  H
  H88      1.0000 0.08250  0.30130  0.69410  Biso   1.000  H
  C67      1.0000 0.32920  0.86870  0.64000  Biso   1.000  C
  C68      1.0000 0.20100  0.81900  0.68000  Biso   1.000  C
  H89      1.0000 0.13540  0.75320  0.65230  Biso   1.000  H
  H90      1.0000 0.18180  0.88400  0.68790  Biso   1.000  H
  O45      1.0000 0.38740  0.82010  0.65610  Biso   1.000  O
  O46      1.0000 0.34950  0.93830  0.58400  Biso   1.000  O
  C69      1.0000 0.27900  0.89500  0.70720  Biso   1.000  C
  H91      1.0000 0.34380  0.96070  0.73610  Biso   1.000  H
  H92      1.0000 0.21880  0.91750  0.69410  Biso   1.000  H
  C70      1.0000 0.53950  0.67080  0.64000  Biso   1.000  C
  C71      1.0000 0.61800  0.79900  0.68000  Biso   1.000  C
  H93      1.0000 0.61780  0.86460  0.65230  Biso   1.000  H
  H94      1.0000 0.70220  0.81820  0.68790  Biso   1.000  H
  O47      1.0000 0.43270  0.61260  0.65610  Biso   1.000  O
  O48      1.0000 0.58880  0.65050  0.58400  Biso   1.000  O
  C72      1.0000 0.61600  0.72100  0.70720  Biso   1.000  C
  H95      1.0000 0.61690  0.65620  0.73610  Biso   1.000  H
  H96      1.0000 0.69870  0.78120  0.69410  Biso   1.000  H
  Dy1      1.0000 0.66667  0.33333  0.25000  Biso   1.000  Dy
  Dy2      1.0000 0.33333  0.66667  0.25000  Biso   1.000  Dy
  Dy3      1.0000 0.33333  0.66667  0.75000  Biso   1.000  Dy
  Dy4      1.0000 0.66667  0.33333  0.75000  Biso   1.000  Dy
  Cd1      1.0000 0.50000  0.00000  0.00000  Biso   1.000  Cd
  Cd2      1.0000 0.00000  0.50000  0.00000  Biso   1.000  Cd
  Cd3      1.0000 0.50000  0.50000  0.00000  Biso   1.000  Cd
  Cd4      1.0000 0.00000  0.50000  0.50000  Biso   1.000  Cd
  Cd5      1.0000 0.50000  0.00000  0.50000  Biso   1.000  Cd
  Cd6      1.0000 0.50000  0.50000  0.50000  Biso   1.000  Cd
  O49      1.0000 0.44550  0.22275  0.25000  Biso   1.000  O
  O50      1.0000 0.77725  0.22275  0.25000  Biso   1.000  O
  O51      1.0000 0.77725  0.55450  0.25000  Biso   1.000  O
  O52      1.0000 0.55450  0.77725  0.25000  Biso   1.000  O
  O53      1.0000 0.22275  0.77725  0.25000  Biso   1.000  O
  O54      1.0000 0.22275  0.44550  0.25000  Biso   1.000  O
  O55      1.0000 0.55450  0.77725  0.75000  Biso   1.000  O
  O56      1.0000 0.22275  0.77725  0.75000  Biso   1.000  O
  O57      1.0000 0.22275  0.44550  0.75000  Biso   1.000  O
  O58      1.0000 0.44550  0.22275  0.75000  Biso   1.000  O
  O59      1.0000 0.77725  0.22275  0.75000  Biso   1.000  O
  O60      1.0000 0.77725  0.55450  0.75000  Biso   1.000  O
