data_image0
_cell_length_a       13.2544
_cell_length_b       13.2544
_cell_length_c       15.6722
_cell_angle_alpha    90
_cell_angle_beta     90
_cell_angle_gamma    120

_symmetry_space_group_name_H-M    "P 1"
_symmetry_int_tables_number       1

loop_
  _symmetry_equiv_pos_as_xyz
  'x, y, z'

loop_
  _atom_site_label
  _atom_site_occupancy
  _atom_site_fract_x
  _atom_site_fract_y
  _atom_site_fract_z
  _atom_site_thermal_displace_type
  _atom_site_B_iso_or_equiv
  _atom_site_type_symbol
  Al1      1.0000 0.59749  0.54365  0.55814  Biso   1.000  Al
  P1       1.0000 0.47091  0.28372  0.50486  Biso   1.000  P
  F1       1.0000 0.43859  0.49316  0.55746  Biso   1.000  F
  O1       1.0000 0.60550  0.56980  0.67190  Biso   1.000  O
  O2       1.0000 0.41580  0.16460  0.54346  Biso   1.000  O
  O3       1.0000 0.37820  0.30920  0.47080  Biso   1.000  O
  O4       1.0000 0.55220  0.37800  0.57102  Biso   1.000  O
  O5       1.0000 0.34260  0.26000  0.62820  Biso   1.000  O
  P2       1.0000 0.42340  0.27930  0.55170  Biso   1.000  P
  Al2      1.0000 0.45635  0.05384  0.55814  Biso   1.000  Al
  P3       1.0000 0.71628  0.18719  0.50486  Biso   1.000  P
  F2       1.0000 0.50684  0.94543  0.55746  Biso   1.000  F
  O6       1.0000 0.43020  0.03570  0.67190  Biso   1.000  O
  O7       1.0000 0.83540  0.25120  0.54346  Biso   1.000  O
  O8       1.0000 0.69080  0.06900  0.47080  Biso   1.000  O
  O9       1.0000 0.62200  0.17420  0.57102  Biso   1.000  O
  O10      1.0000 0.74000  0.08260  0.62820  Biso   1.000  O
  P4       1.0000 0.72070  0.14410  0.55170  Biso   1.000  P
  Al3      1.0000 0.94616  0.40251  0.55814  Biso   1.000  Al
  P5       1.0000 0.81281  0.52909  0.50486  Biso   1.000  P
  F3       1.0000 0.05457  0.56141  0.55746  Biso   1.000  F
  O11      1.0000 0.96430  0.39450  0.67190  Biso   1.000  O
  O12      1.0000 0.74880  0.58420  0.54346  Biso   1.000  O
  O13      1.0000 0.93100  0.62180  0.47080  Biso   1.000  O
  O14      1.0000 0.82580  0.44780  0.57102  Biso   1.000  O
  O15      1.0000 0.91740  0.65740  0.62820  Biso   1.000  O
  P6       1.0000 0.85590  0.57660  0.55170  Biso   1.000  P
  Al4      1.0000 0.40251  0.45635  0.05814  Biso   1.000  Al
  P7       1.0000 0.52909  0.71628  0.00486  Biso   1.000  P
  F4       1.0000 0.56141  0.50684  0.05746  Biso   1.000  F
  O16      1.0000 0.39450  0.43020  0.17190  Biso   1.000  O
  O17      1.0000 0.58420  0.83540  0.04346  Biso   1.000  O
  O18      1.0000 0.62180  0.69080  0.97080  Biso   1.000  O
  O19      1.0000 0.44780  0.62200  0.07102  Biso   1.000  O
  O20      1.0000 0.65740  0.74000  0.12820  Biso   1.000  O
  P8       1.0000 0.57660  0.72070  0.05170  Biso   1.000  P
  Al5      1.0000 0.54365  0.94616  0.05814  Biso   1.000  Al
  P9       1.0000 0.28372  0.81281  0.00486  Biso   1.000  P
  F5       1.0000 0.49316  0.05457  0.05746  Biso   1.000  F
  O21      1.0000 0.56980  0.96430  0.17190  Biso   1.000  O
  O22      1.0000 0.16460  0.74880  0.04346  Biso   1.000  O
  O23      1.0000 0.30920  0.93100  0.97080  Biso   1.000  O
  O24      1.0000 0.37800  0.82580  0.07102  Biso   1.000  O
  O25      1.0000 0.26000  0.91740  0.12820  Biso   1.000  O
  P10      1.0000 0.27930  0.85590  0.05170  Biso   1.000  P
  Al6      1.0000 0.05384  0.59749  0.05814  Biso   1.000  Al
  P11      1.0000 0.18719  0.47091  0.00486  Biso   1.000  P
  F6       1.0000 0.94543  0.43859  0.05746  Biso   1.000  F
  O26      1.0000 0.03570  0.60550  0.17190  Biso   1.000  O
  O27      1.0000 0.25120  0.41580  0.04346  Biso   1.000  O
  O28      1.0000 0.06900  0.37820  0.97080  Biso   1.000  O
  O29      1.0000 0.17420  0.55220  0.07102  Biso   1.000  O
  O30      1.0000 0.08260  0.34260  0.12820  Biso   1.000  O
  P12      1.0000 0.14410  0.42340  0.05170  Biso   1.000  P
  Al7      1.0000 0.40251  0.45635  0.44186  Biso   1.000  Al
  P13      1.0000 0.52909  0.71628  0.49514  Biso   1.000  P
  F7       1.0000 0.56141  0.50684  0.44254  Biso   1.000  F
  O31      1.0000 0.39450  0.43020  0.32810  Biso   1.000  O
  O32      1.0000 0.58420  0.83540  0.45654  Biso   1.000  O
  O33      1.0000 0.62180  0.69080  0.52920  Biso   1.000  O
  O34      1.0000 0.44780  0.62200  0.42898  Biso   1.000  O
  O35      1.0000 0.65740  0.74000  0.37180  Biso   1.000  O
  P14      1.0000 0.57660  0.72070  0.44830  Biso   1.000  P
  Al8      1.0000 0.54365  0.94616  0.44186  Biso   1.000  Al
  P15      1.0000 0.28372  0.81281  0.49514  Biso   1.000  P
  F8       1.0000 0.49316  0.05457  0.44254  Biso   1.000  F
  O36      1.0000 0.56980  0.96430  0.32810  Biso   1.000  O
  O37      1.0000 0.16460  0.74880  0.45654  Biso   1.000  O
  O38      1.0000 0.30920  0.93100  0.52920  Biso   1.000  O
  O39      1.0000 0.37800  0.82580  0.42898  Biso   1.000  O
  O40      1.0000 0.26000  0.91740  0.37180  Biso   1.000  O
  P16      1.0000 0.27930  0.85590  0.44830  Biso   1.000  P
  Al9      1.0000 0.05384  0.59749  0.44186  Biso   1.000  Al
  P17      1.0000 0.18719  0.47091  0.49514  Biso   1.000  P
  F9       1.0000 0.94543  0.43859  0.44254  Biso   1.000  F
  O41      1.0000 0.03570  0.60550  0.32810  Biso   1.000  O
  O42      1.0000 0.25120  0.41580  0.45654  Biso   1.000  O
  O43      1.0000 0.06900  0.37820  0.52920  Biso   1.000  O
  O44      1.0000 0.17420  0.55220  0.42898  Biso   1.000  O
  O45      1.0000 0.08260  0.34260  0.37180  Biso   1.000  O
  P18      1.0000 0.14410  0.42340  0.44830  Biso   1.000  P
  Al10     1.0000 0.59749  0.54365  0.94186  Biso   1.000  Al
  P19      1.0000 0.47091  0.28372  0.99514  Biso   1.000  P
  F10      1.0000 0.43859  0.49316  0.94254  Biso   1.000  F
  O46      1.0000 0.60550  0.56980  0.82810  Biso   1.000  O
  O47      1.0000 0.41580  0.16460  0.95654  Biso   1.000  O
  O48      1.0000 0.37820  0.30920  0.02920  Biso   1.000  O
  O49      1.0000 0.55220  0.37800  0.92898  Biso   1.000  O
  O50      1.0000 0.34260  0.26000  0.87180  Biso   1.000  O
  P20      1.0000 0.42340  0.27930  0.94830  Biso   1.000  P
  Al11     1.0000 0.45635  0.05384  0.94186  Biso   1.000  Al
  P21      1.0000 0.71628  0.18719  0.99514  Biso   1.000  P
  F11      1.0000 0.50684  0.94543  0.94254  Biso   1.000  F
  O51      1.0000 0.43020  0.03570  0.82810  Biso   1.000  O
  O52      1.0000 0.83540  0.25120  0.95654  Biso   1.000  O
  O53      1.0000 0.69080  0.06900  0.02920  Biso   1.000  O
  O54      1.0000 0.62200  0.17420  0.92898  Biso   1.000  O
  O55      1.0000 0.74000  0.08260  0.87180  Biso   1.000  O
  P22      1.0000 0.72070  0.14410  0.94830  Biso   1.000  P
  Al12     1.0000 0.94616  0.40251  0.94186  Biso   1.000  Al
  P23      1.0000 0.81281  0.52909  0.99514  Biso   1.000  P
  F12      1.0000 0.05457  0.56141  0.94254  Biso   1.000  F
  O56      1.0000 0.96430  0.39450  0.82810  Biso   1.000  O
  O57      1.0000 0.74880  0.58420  0.95654  Biso   1.000  O
  O58      1.0000 0.93100  0.62180  0.02920  Biso   1.000  O
  O59      1.0000 0.82580  0.44780  0.92898  Biso   1.000  O
  O60      1.0000 0.91740  0.65740  0.87180  Biso   1.000  O
  P24      1.0000 0.85590  0.57660  0.94830  Biso   1.000  P
  Mn1      1.0000 0.66667  0.33333  0.65227  Biso   1.000  Mn
  Mn2      1.0000 0.33333  0.66667  0.15227  Biso   1.000  Mn
  Mn3      1.0000 0.33333  0.66667  0.34773  Biso   1.000  Mn
  Mn4      1.0000 0.66667  0.33333  0.84773  Biso   1.000  Mn
  P25      1.0000 0.66910  0.56560  0.75000  Biso   1.000  P
  O61      1.0000 0.69130  0.46460  0.75000  Biso   1.000  O
  O62      1.0000 0.78810  0.67740  0.75000  Biso   1.000  O
  P26      1.0000 0.59680  0.50380  0.75000  Biso   1.000  P
  P27      1.0000 0.43440  0.10350  0.75000  Biso   1.000  P
  O63      1.0000 0.53540  0.22670  0.75000  Biso   1.000  O
  O64      1.0000 0.32260  0.11070  0.75000  Biso   1.000  O
  P28      1.0000 0.49620  0.09300  0.75000  Biso   1.000  P
  P29      1.0000 0.89650  0.33090  0.75000  Biso   1.000  P
  O65      1.0000 0.77330  0.30870  0.75000  Biso   1.000  O
  O66      1.0000 0.88930  0.21190  0.75000  Biso   1.000  O
  P30      1.0000 0.90700  0.40320  0.75000  Biso   1.000  P
  P31      1.0000 0.33090  0.43440  0.25000  Biso   1.000  P
  O67      1.0000 0.30870  0.53540  0.25000  Biso   1.000  O
  O68      1.0000 0.21190  0.32260  0.25000  Biso   1.000  O
  P32      1.0000 0.40320  0.49620  0.25000  Biso   1.000  P
  P33      1.0000 0.56560  0.89650  0.25000  Biso   1.000  P
  O69      1.0000 0.46460  0.77330  0.25000  Biso   1.000  O
  O70      1.0000 0.67740  0.88930  0.25000  Biso   1.000  O
  P34      1.0000 0.50380  0.90700  0.25000  Biso   1.000  P
  P35      1.0000 0.10350  0.66910  0.25000  Biso   1.000  P
  O71      1.0000 0.22670  0.69130  0.25000  Biso   1.000  O
  O72      1.0000 0.11070  0.78810  0.25000  Biso   1.000  O
  P36      1.0000 0.09300  0.59680  0.25000  Biso   1.000  P
