data_image0
_cell_length_a       21.441
_cell_length_b       21.441
_cell_length_c       9.655
_cell_angle_alpha    90
_cell_angle_beta     90
_cell_angle_gamma    90

_symmetry_space_group_name_H-M    "P 1"
_symmetry_int_tables_number       1

loop_
  _symmetry_equiv_pos_as_xyz
  'x, y, z'

loop_
  _atom_site_label
  _atom_site_occupancy
  _atom_site_fract_x
  _atom_site_fract_y
  _atom_site_fract_z
  _atom_site_thermal_displace_type
  _atom_site_B_iso_or_equiv
  _atom_site_type_symbol
  O1       1.0000 0.06310  0.43100  0.08940  Biso   1.000  O
  C1       1.0000 0.07280  0.40480  0.20390  Biso   1.000  C
  C2       1.0000 0.15750  0.25260  0.10390  Biso   1.000  C
  C3       1.0000 0.11180  0.30170  0.10110  Biso   1.000  C
  C4       1.0000 0.11630  0.34940  0.20500  Biso   1.000  C
  C5       1.0000 0.16160  0.34680  0.30530  Biso   1.000  C
  H1       1.0000 0.16390  0.37740  0.37340  Biso   1.000  H
  C6       1.0000 0.20460  0.29720  0.30410  Biso   1.000  C
  H2       1.0000 0.23440  0.29500  0.37380  Biso   1.000  H
  C7       1.0000 0.06400  0.29870  0.00440  Biso   1.000  C
  H3       1.0000 0.03350  0.32960  0.00270  Biso   1.000  H
  C8       1.0000 0.20400  0.25330  0.20630  Biso   1.000  C
  H4       1.0000 0.23490  0.22280  0.20590  Biso   1.000  H
  C9       1.0000 0.15530  0.20450  0.00310  Biso   1.000  C
  C10      1.0000 0.06140  0.24970  0.90980  Biso   1.000  C
  H5       1.0000 0.02840  0.24800  0.84750  Biso   1.000  H
  O2       1.0000 0.10030  0.15960  0.81120  Biso   1.000  O
  H6       1.0000 0.12880  0.13440  0.81980  Biso   1.000  H
  C11      1.0000 0.10600  0.20390  0.90580  Biso   1.000  C
  O3       1.0000 0.05168  0.42231  0.31800  Biso   1.000  O
  C12      1.0000 0.06400  0.48670  0.78060  Biso   1.000  C
  H7       1.0000 0.07790  0.44590  0.81090  Biso   1.000  H
  H8       1.0000 0.09340  0.51750  0.81470  Biso   1.000  H
  C13      1.0000 0.06210  0.48890  0.62160  Biso   1.000  C
  H9       1.0000 0.08980  0.52170  0.58950  Biso   1.000  H
  H10      1.0000 0.07760  0.44960  0.58550  Biso   1.000  H
  C14      1.0000 0.03610  0.44640  0.62390  Biso   1.000  C
  H11      1.0000 0.07860  0.44820  0.58970  Biso   1.000  H
  H12      1.0000 0.01760  0.40770  0.59230  Biso   1.000  H
  C15      1.0000 0.03660  0.44770  0.78370  Biso   1.000  C
  H13      1.0000 0.01970  0.40890  0.81860  Biso   1.000  H
  H14      1.0000 0.07930  0.45120  0.81600  Biso   1.000  H
  O4       1.0000 0.93690  0.56900  0.08940  Biso   1.000  O
  C16      1.0000 0.92720  0.59520  0.20390  Biso   1.000  C
  C17      1.0000 0.84250  0.74740  0.10390  Biso   1.000  C
  C18      1.0000 0.88820  0.69830  0.10110  Biso   1.000  C
  C19      1.0000 0.88370  0.65060  0.20500  Biso   1.000  C
  C20      1.0000 0.83840  0.65320  0.30530  Biso   1.000  C
  H15      1.0000 0.83610  0.62260  0.37340  Biso   1.000  H
  C21      1.0000 0.79540  0.70280  0.30410  Biso   1.000  C
  H16      1.0000 0.76560  0.70500  0.37380  Biso   1.000  H
  C22      1.0000 0.93600  0.70130  0.00440  Biso   1.000  C
  H17      1.0000 0.96650  0.67040  0.00270  Biso   1.000  H
  C23      1.0000 0.79600  0.74670  0.20630  Biso   1.000  C
  H18      1.0000 0.76510  0.77720  0.20590  Biso   1.000  H
  C24      1.0000 0.84470  0.79550  0.00310  Biso   1.000  C
  C25      1.0000 0.93860  0.75030  0.90980  Biso   1.000  C
  H19      1.0000 0.97160  0.75200  0.84750  Biso   1.000  H
  O5       1.0000 0.89970  0.84040  0.81120  Biso   1.000  O
  H20      1.0000 0.87120  0.86560  0.81980  Biso   1.000  H
  C26      1.0000 0.89400  0.79610  0.90580  Biso   1.000  C
  O6       1.0000 0.94832  0.57769  0.31800  Biso   1.000  O
  C27      1.0000 0.93600  0.51330  0.78060  Biso   1.000  C
  H21      1.0000 0.92210  0.55410  0.81090  Biso   1.000  H
  H22      1.0000 0.90660  0.48250  0.81470  Biso   1.000  H
  C28      1.0000 0.93790  0.51110  0.62160  Biso   1.000  C
  H23      1.0000 0.91020  0.47830  0.58950  Biso   1.000  H
  H24      1.0000 0.92240  0.55040  0.58550  Biso   1.000  H
  C29      1.0000 0.96390  0.55360  0.62390  Biso   1.000  C
  H25      1.0000 0.92140  0.55180  0.58970  Biso   1.000  H
  H26      1.0000 0.98240  0.59230  0.59230  Biso   1.000  H
  C30      1.0000 0.96340  0.55230  0.78370  Biso   1.000  C
  H27      1.0000 0.98030  0.59110  0.81860  Biso   1.000  H
  H28      1.0000 0.92070  0.54880  0.81600  Biso   1.000  H
  O7       1.0000 0.06900  0.56310  0.08940  Biso   1.000  O
  C31      1.0000 0.09520  0.57280  0.20390  Biso   1.000  C
  C32      1.0000 0.24740  0.65750  0.10390  Biso   1.000  C
  C33      1.0000 0.19830  0.61180  0.10110  Biso   1.000  C
  C34      1.0000 0.15060  0.61630  0.20500  Biso   1.000  C
  C35      1.0000 0.15320  0.66160  0.30530  Biso   1.000  C
  H29      1.0000 0.12260  0.66390  0.37340  Biso   1.000  H
  C36      1.0000 0.20280  0.70460  0.30410  Biso   1.000  C
  H30      1.0000 0.20500  0.73440  0.37380  Biso   1.000  H
  C37      1.0000 0.20130  0.56400  0.00440  Biso   1.000  C
  H31      1.0000 0.17040  0.53350  0.00270  Biso   1.000  H
  C38      1.0000 0.24670  0.70400  0.20630  Biso   1.000  C
  H32      1.0000 0.27720  0.73490  0.20590  Biso   1.000  H
  C39      1.0000 0.29550  0.65530  0.00310  Biso   1.000  C
  C40      1.0000 0.25030  0.56140  0.90980  Biso   1.000  C
  H33      1.0000 0.25200  0.52840  0.84750  Biso   1.000  H
  O8       1.0000 0.34040  0.60030  0.81120  Biso   1.000  O
  H34      1.0000 0.36560  0.62880  0.81980  Biso   1.000  H
  C41      1.0000 0.29610  0.60600  0.90580  Biso   1.000  C
  O9       1.0000 0.07769  0.55168  0.31800  Biso   1.000  O
  C42      1.0000 0.01330  0.56400  0.78060  Biso   1.000  C
  H35      1.0000 0.05410  0.57790  0.81090  Biso   1.000  H
  H36      1.0000 0.98250  0.59340  0.81470  Biso   1.000  H
  C43      1.0000 0.01110  0.56210  0.62160  Biso   1.000  C
  H37      1.0000 0.97830  0.58980  0.58950  Biso   1.000  H
  H38      1.0000 0.05040  0.57760  0.58550  Biso   1.000  H
  C44      1.0000 0.05360  0.53610  0.62390  Biso   1.000  C
  H39      1.0000 0.05180  0.57860  0.58970  Biso   1.000  H
  H40      1.0000 0.09230  0.51760  0.59230  Biso   1.000  H
  C45      1.0000 0.05230  0.53660  0.78370  Biso   1.000  C
  H41      1.0000 0.09110  0.51970  0.81860  Biso   1.000  H
  H42      1.0000 0.04880  0.57930  0.81600  Biso   1.000  H
  O10      1.0000 0.93100  0.43690  0.08940  Biso   1.000  O
  C46      1.0000 0.90480  0.42720  0.20390  Biso   1.000  C
  C47      1.0000 0.75260  0.34250  0.10390  Biso   1.000  C
  C48      1.0000 0.80170  0.38820  0.10110  Biso   1.000  C
  C49      1.0000 0.84940  0.38370  0.20500  Biso   1.000  C
  C50      1.0000 0.84680  0.33840  0.30530  Biso   1.000  C
  H43      1.0000 0.87740  0.33610  0.37340  Biso   1.000  H
  C51      1.0000 0.79720  0.29540  0.30410  Biso   1.000  C
  H44      1.0000 0.79500  0.26560  0.37380  Biso   1.000  H
  C52      1.0000 0.79870  0.43600  0.00440  Biso   1.000  C
  H45      1.0000 0.82960  0.46650  0.00270  Biso   1.000  H
  C53      1.0000 0.75330  0.29600  0.20630  Biso   1.000  C
  H46      1.0000 0.72280  0.26510  0.20590  Biso   1.000  H
  C54      1.0000 0.70450  0.34470  0.00310  Biso   1.000  C
  C55      1.0000 0.74970  0.43860  0.90980  Biso   1.000  C
  H47      1.0000 0.74800  0.47160  0.84750  Biso   1.000  H
  O11      1.0000 0.65960  0.39970  0.81120  Biso   1.000  O
  H48      1.0000 0.63440  0.37120  0.81980  Biso   1.000  H
  C56      1.0000 0.70390  0.39400  0.90580  Biso   1.000  C
  O12      1.0000 0.92231  0.44832  0.31800  Biso   1.000  O
  C57      1.0000 0.98670  0.43600  0.78060  Biso   1.000  C
  H49      1.0000 0.94590  0.42210  0.81090  Biso   1.000  H
  H50      1.0000 0.01750  0.40660  0.81470  Biso   1.000  H
  C58      1.0000 0.98890  0.43790  0.62160  Biso   1.000  C
  H51      1.0000 0.02170  0.41020  0.58950  Biso   1.000  H
  H52      1.0000 0.94960  0.42240  0.58550  Biso   1.000  H
  C59      1.0000 0.94640  0.46390  0.62390  Biso   1.000  C
  H53      1.0000 0.94820  0.42140  0.58970  Biso   1.000  H
  H54      1.0000 0.90770  0.48240  0.59230  Biso   1.000  H
  C60      1.0000 0.94770  0.46340  0.78370  Biso   1.000  C
  H55      1.0000 0.90890  0.48030  0.81860  Biso   1.000  H
  H56      1.0000 0.95120  0.42070  0.81600  Biso   1.000  H
  O13      1.0000 0.43690  0.93100  0.91060  Biso   1.000  O
  C61      1.0000 0.42720  0.90480  0.79610  Biso   1.000  C
  C62      1.0000 0.34250  0.75260  0.89610  Biso   1.000  C
  C63      1.0000 0.38820  0.80170  0.89890  Biso   1.000  C
  C64      1.0000 0.38370  0.84940  0.79500  Biso   1.000  C
  C65      1.0000 0.33840  0.84680  0.69470  Biso   1.000  C
  H57      1.0000 0.33610  0.87740  0.62660  Biso   1.000  H
  C66      1.0000 0.29540  0.79720  0.69590  Biso   1.000  C
  H58      1.0000 0.26560  0.79500  0.62620  Biso   1.000  H
  C67      1.0000 0.43600  0.79870  0.99560  Biso   1.000  C
  H59      1.0000 0.46650  0.82960  0.99730  Biso   1.000  H
  C68      1.0000 0.29600  0.75330  0.79370  Biso   1.000  C
  H60      1.0000 0.26510  0.72280  0.79410  Biso   1.000  H
  C69      1.0000 0.34470  0.70450  0.99690  Biso   1.000  C
  C70      1.0000 0.43860  0.74970  0.09020  Biso   1.000  C
  H61      1.0000 0.47160  0.74800  0.15250  Biso   1.000  H
  O14      1.0000 0.39970  0.65960  0.18880  Biso   1.000  O
  H62      1.0000 0.37120  0.63440  0.18020  Biso   1.000  H
  C71      1.0000 0.39400  0.70390  0.09420  Biso   1.000  C
  O15      1.0000 0.44832  0.92231  0.68200  Biso   1.000  O
  C72      1.0000 0.43600  0.98670  0.21940  Biso   1.000  C
  H63      1.0000 0.42210  0.94590  0.18910  Biso   1.000  H
  H64      1.0000 0.40660  0.01750  0.18530  Biso   1.000  H
  C73      1.0000 0.43790  0.98890  0.37840  Biso   1.000  C
  H65      1.0000 0.41020  0.02170  0.41050  Biso   1.000  H
  H66      1.0000 0.42240  0.94960  0.41450  Biso   1.000  H
  C74      1.0000 0.46390  0.94640  0.37610  Biso   1.000  C
  H67      1.0000 0.42140  0.94820  0.41030  Biso   1.000  H
  H68      1.0000 0.48240  0.90770  0.40770  Biso   1.000  H
  C75      1.0000 0.46340  0.94770  0.21630  Biso   1.000  C
  H69      1.0000 0.48030  0.90890  0.18140  Biso   1.000  H
  H70      1.0000 0.42070  0.95120  0.18400  Biso   1.000  H
  O16      1.0000 0.56310  0.06900  0.91060  Biso   1.000  O
  C76      1.0000 0.57280  0.09520  0.79610  Biso   1.000  C
  C77      1.0000 0.65750  0.24740  0.89610  Biso   1.000  C
  C78      1.0000 0.61180  0.19830  0.89890  Biso   1.000  C
  C79      1.0000 0.61630  0.15060  0.79500  Biso   1.000  C
  C80      1.0000 0.66160  0.15320  0.69470  Biso   1.000  C
  H71      1.0000 0.66390  0.12260  0.62660  Biso   1.000  H
  C81      1.0000 0.70460  0.20280  0.69590  Biso   1.000  C
  H72      1.0000 0.73440  0.20500  0.62620  Biso   1.000  H
  C82      1.0000 0.56400  0.20130  0.99560  Biso   1.000  C
  H73      1.0000 0.53350  0.17040  0.99730  Biso   1.000  H
  C83      1.0000 0.70400  0.24670  0.79370  Biso   1.000  C
  H74      1.0000 0.73490  0.27720  0.79410  Biso   1.000  H
  C84      1.0000 0.65530  0.29550  0.99690  Biso   1.000  C
  C85      1.0000 0.56140  0.25030  0.09020  Biso   1.000  C
  H75      1.0000 0.52840  0.25200  0.15250  Biso   1.000  H
  O17      1.0000 0.60030  0.34040  0.18880  Biso   1.000  O
  H76      1.0000 0.62880  0.36560  0.18020  Biso   1.000  H
  C86      1.0000 0.60600  0.29610  0.09420  Biso   1.000  C
  O18      1.0000 0.55168  0.07769  0.68200  Biso   1.000  O
  C87      1.0000 0.56400  0.01330  0.21940  Biso   1.000  C
  H77      1.0000 0.57790  0.05410  0.18910  Biso   1.000  H
  H78      1.0000 0.59340  0.98250  0.18530  Biso   1.000  H
  C88      1.0000 0.56210  0.01110  0.37840  Biso   1.000  C
  H79      1.0000 0.58980  0.97830  0.41050  Biso   1.000  H
  H80      1.0000 0.57760  0.05040  0.41450  Biso   1.000  H
  C89      1.0000 0.53610  0.05360  0.37610  Biso   1.000  C
  H81      1.0000 0.57860  0.05180  0.41030  Biso   1.000  H
  H82      1.0000 0.51760  0.09230  0.40770  Biso   1.000  H
  C90      1.0000 0.53660  0.05230  0.21630  Biso   1.000  C
  H83      1.0000 0.51970  0.09110  0.18140  Biso   1.000  H
  H84      1.0000 0.57930  0.04880  0.18400  Biso   1.000  H
  O19      1.0000 0.43100  0.06310  0.91060  Biso   1.000  O
  C91      1.0000 0.40480  0.07280  0.79610  Biso   1.000  C
  C92      1.0000 0.25260  0.15750  0.89610  Biso   1.000  C
  C93      1.0000 0.30170  0.11180  0.89890  Biso   1.000  C
  C94      1.0000 0.34940  0.11630  0.79500  Biso   1.000  C
  C95      1.0000 0.34680  0.16160  0.69470  Biso   1.000  C
  H85      1.0000 0.37740  0.16390  0.62660  Biso   1.000  H
  C96      1.0000 0.29720  0.20460  0.69590  Biso   1.000  C
  H86      1.0000 0.29500  0.23440  0.62620  Biso   1.000  H
  C97      1.0000 0.29870  0.06400  0.99560  Biso   1.000  C
  H87      1.0000 0.32960  0.03350  0.99730  Biso   1.000  H
  C98      1.0000 0.25330  0.20400  0.79370  Biso   1.000  C
  H88      1.0000 0.22280  0.23490  0.79410  Biso   1.000  H
  C99      1.0000 0.20450  0.15530  0.99690  Biso   1.000  C
  C100     1.0000 0.24970  0.06140  0.09020  Biso   1.000  C
  H89      1.0000 0.24800  0.02840  0.15250  Biso   1.000  H
  O20      1.0000 0.15960  0.10030  0.18880  Biso   1.000  O
  H90      1.0000 0.13440  0.12880  0.18020  Biso   1.000  H
  C101     1.0000 0.20390  0.10600  0.09420  Biso   1.000  C
  O21      1.0000 0.42231  0.05168  0.68200  Biso   1.000  O
  C102     1.0000 0.48670  0.06400  0.21940  Biso   1.000  C
  H91      1.0000 0.44590  0.07790  0.18910  Biso   1.000  H
  H92      1.0000 0.51750  0.09340  0.18530  Biso   1.000  H
  C103     1.0000 0.48890  0.06210  0.37840  Biso   1.000  C
  H93      1.0000 0.52170  0.08980  0.41050  Biso   1.000  H
  H94      1.0000 0.44960  0.07760  0.41450  Biso   1.000  H
  C104     1.0000 0.44640  0.03610  0.37610  Biso   1.000  C
  H95      1.0000 0.44820  0.07860  0.41030  Biso   1.000  H
  H96      1.0000 0.40770  0.01760  0.40770  Biso   1.000  H
  C105     1.0000 0.44770  0.03660  0.21630  Biso   1.000  C
  H97      1.0000 0.40890  0.01970  0.18140  Biso   1.000  H
  H98      1.0000 0.45120  0.07930  0.18400  Biso   1.000  H
  O22      1.0000 0.56900  0.93690  0.91060  Biso   1.000  O
  C106     1.0000 0.59520  0.92720  0.79610  Biso   1.000  C
  C107     1.0000 0.74740  0.84250  0.89610  Biso   1.000  C
  C108     1.0000 0.69830  0.88820  0.89890  Biso   1.000  C
  C109     1.0000 0.65060  0.88370  0.79500  Biso   1.000  C
  C110     1.0000 0.65320  0.83840  0.69470  Biso   1.000  C
  H99      1.0000 0.62260  0.83610  0.62660  Biso   1.000  H
  C111     1.0000 0.70280  0.79540  0.69590  Biso   1.000  C
  H100     1.0000 0.70500  0.76560  0.62620  Biso   1.000  H
  C112     1.0000 0.70130  0.93600  0.99560  Biso   1.000  C
  H101     1.0000 0.67040  0.96650  0.99730  Biso   1.000  H
  C113     1.0000 0.74670  0.79600  0.79370  Biso   1.000  C
  H102     1.0000 0.77720  0.76510  0.79410  Biso   1.000  H
  C114     1.0000 0.79550  0.84470  0.99690  Biso   1.000  C
  C115     1.0000 0.75030  0.93860  0.09020  Biso   1.000  C
  H103     1.0000 0.75200  0.97160  0.15250  Biso   1.000  H
  O23      1.0000 0.84040  0.89970  0.18880  Biso   1.000  O
  H104     1.0000 0.86560  0.87120  0.18020  Biso   1.000  H
  C116     1.0000 0.79610  0.89400  0.09420  Biso   1.000  C
  O24      1.0000 0.57769  0.94832  0.68200  Biso   1.000  O
  C117     1.0000 0.51330  0.93600  0.21940  Biso   1.000  C
  H105     1.0000 0.55410  0.92210  0.18910  Biso   1.000  H
  H106     1.0000 0.48250  0.90660  0.18530  Biso   1.000  H
  C118     1.0000 0.51110  0.93790  0.37840  Biso   1.000  C
  H107     1.0000 0.47830  0.91020  0.41050  Biso   1.000  H
  H108     1.0000 0.55040  0.92240  0.41450  Biso   1.000  H
  C119     1.0000 0.55360  0.96390  0.37610  Biso   1.000  C
  H109     1.0000 0.55180  0.92140  0.41030  Biso   1.000  H
  H110     1.0000 0.59230  0.98240  0.40770  Biso   1.000  H
  C120     1.0000 0.55230  0.96340  0.21630  Biso   1.000  C
  H111     1.0000 0.59110  0.98030  0.18140  Biso   1.000  H
  H112     1.0000 0.54880  0.92070  0.18400  Biso   1.000  H
  Zn1      1.0000 0.00000  0.50000  0.35545  Biso   1.000  Zn
  Zn2      1.0000 0.00000  0.50000  0.05132  Biso   1.000  Zn
  N1       1.0000 0.00000  0.50000  0.56680  Biso   1.000  N
  N2       1.0000 0.00000  0.50000  0.83870  Biso   1.000  N
  Zn3      1.0000 0.50000  0.00000  0.64455  Biso   1.000  Zn
  Zn4      1.0000 0.50000  0.00000  0.94868  Biso   1.000  Zn
  N3       1.0000 0.50000  0.00000  0.43320  Biso   1.000  N
  N4       1.0000 0.50000  0.00000  0.16130  Biso   1.000  N
