data_image0
_cell_length_a       13.812
_cell_length_b       21.618
_cell_length_c       9.061
_cell_angle_alpha    90
_cell_angle_beta     90
_cell_angle_gamma    90

_symmetry_space_group_name_H-M    "P 1"
_symmetry_int_tables_number       1

loop_
  _symmetry_equiv_pos_as_xyz
  'x, y, z'

loop_
  _atom_site_label
  _atom_site_occupancy
  _atom_site_fract_x
  _atom_site_fract_y
  _atom_site_fract_z
  _atom_site_thermal_displace_type
  _atom_site_B_iso_or_equiv
  _atom_site_type_symbol
  O1       1.0000 0.61560  0.18640  0.83130  Biso   1.000  O
  O2       1.0000 0.00520  0.29700  0.55410  Biso   1.000  O
  N1       1.0000 0.69680  0.32630  0.17300  Biso   1.000  N
  N2       1.0000 0.91410  0.49300  0.40870  Biso   1.000  N
  C1       1.0000 0.77620  0.35480  0.12590  Biso   1.000  C
  H1       1.0000 0.80730  0.33940  0.04000  Biso   1.000  H
  C2       1.0000 0.81680  0.40710  0.19730  Biso   1.000  C
  H2       1.0000 0.87420  0.42560  0.16000  Biso   1.000  H
  C3       1.0000 0.77290  0.43070  0.31960  Biso   1.000  C
  C4       1.0000 0.68960  0.40130  0.37210  Biso   1.000  C
  H3       1.0000 0.65770  0.41590  0.45830  Biso   1.000  H
  C5       1.0000 0.65440  0.35020  0.29570  Biso   1.000  C
  H4       1.0000 0.59730  0.33080  0.33140  Biso   1.000  H
  C6       1.0000 0.80940  0.48670  0.40050  Biso   1.000  C
  H5       1.0000 0.78290  0.52400  0.35170  Biso   1.000  H
  H6       1.0000 0.78340  0.48570  0.50230  Biso   1.000  H
  C7       1.0000 0.95610  0.44240  0.49870  Biso   1.000  C
  H7       1.0000 0.94090  0.40220  0.45180  Biso   1.000  H
  H8       1.0000 0.92600  0.44270  0.59780  Biso   1.000  H
  C8       1.0000 0.93720  0.55150  0.48570  Biso   1.000  C
  H9       1.0000 0.90660  0.55170  0.58450  Biso   1.000  H
  H10      1.0000 0.91140  0.58690  0.42880  Biso   1.000  H
  C9       1.0000 0.67300  0.21900  0.77500  Biso   1.000  C
  C10      1.0000 0.70400  0.21810  0.63800  Biso   1.000  C
  H11      1.0000 0.66650  0.23870  0.53920  Biso   1.000  H
  C11      1.0000 0.85800  0.22880  0.46600  Biso   1.000  C
  H12      1.0000 0.84080  0.19270  0.40440  Biso   1.000  H
  H13      1.0000 0.82330  0.26490  0.42440  Biso   1.000  H
  C12      1.0000 0.95900  0.27100  0.46700  Biso   1.000  C
  C13      1.0000 0.81200  0.21600  0.63100  Biso   1.000  C
  H14      1.0000 0.83390  0.17520  0.66610  Biso   1.000  H
  H15      1.0000 0.83780  0.24770  0.70010  Biso   1.000  H
  O3       1.0000 0.28480  0.37700  0.74800  Biso   1.000  O
  H16      1.0000 0.23590  0.35290  0.72970  Biso   1.000  H
  H17      1.0000 0.32070  0.36070  0.81660  Biso   1.000  H
  C14      1.0000 0.69100  0.22400  0.81400  Biso   1.000  C
  H18      1.0000 0.67760  0.25430  0.58470  Biso   1.000  H
  H19      1.0000 0.71240  0.29560  0.63040  Biso   1.000  H
  C15      1.0000 0.80500  0.22400  0.60200  Biso   1.000  C
  H20      1.0000 0.80030  0.17890  0.59160  Biso   1.000  H
  H21      1.0000 0.84550  0.23370  0.68890  Biso   1.000  H
  C16      1.0000 0.96300  0.24000  0.44700  Biso   1.000  C
  H22      1.0000 0.80950  0.21360  0.44360  Biso   1.000  H
  H23      1.0000 0.84050  0.21910  0.39230  Biso   1.000  H
  H24      1.0000 0.67490  0.17970  0.59840  Biso   1.000  H
  O4       1.0000 0.88440  0.81360  0.33130  Biso   1.000  O
  O5       1.0000 0.49480  0.70300  0.05410  Biso   1.000  O
  N3       1.0000 0.80320  0.67370  0.67300  Biso   1.000  N
  N4       1.0000 0.58590  0.50700  0.90870  Biso   1.000  N
  C17      1.0000 0.72380  0.64520  0.62590  Biso   1.000  C
  H25      1.0000 0.69270  0.66060  0.54000  Biso   1.000  H
  C18      1.0000 0.68320  0.59290  0.69730  Biso   1.000  C
  H26      1.0000 0.62580  0.57440  0.66000  Biso   1.000  H
  C19      1.0000 0.72710  0.56930  0.81960  Biso   1.000  C
  C20      1.0000 0.81040  0.59870  0.87210  Biso   1.000  C
  H27      1.0000 0.84230  0.58410  0.95830  Biso   1.000  H
  C21      1.0000 0.84560  0.64980  0.79570  Biso   1.000  C
  H28      1.0000 0.90270  0.66920  0.83140  Biso   1.000  H
  C22      1.0000 0.69060  0.51330  0.90050  Biso   1.000  C
  H29      1.0000 0.71710  0.47600  0.85170  Biso   1.000  H
  H30      1.0000 0.71660  0.51430  0.00230  Biso   1.000  H
  C23      1.0000 0.54390  0.55760  0.99870  Biso   1.000  C
  H31      1.0000 0.55910  0.59780  0.95180  Biso   1.000  H
  H32      1.0000 0.57400  0.55730  0.09780  Biso   1.000  H
  C24      1.0000 0.56280  0.44850  0.98570  Biso   1.000  C
  H33      1.0000 0.59340  0.44830  0.08450  Biso   1.000  H
  H34      1.0000 0.58860  0.41310  0.92880  Biso   1.000  H
  C25      1.0000 0.82700  0.78100  0.27500  Biso   1.000  C
  C26      1.0000 0.79600  0.78190  0.13800  Biso   1.000  C
  H35      1.0000 0.83350  0.76130  0.03920  Biso   1.000  H
  C27      1.0000 0.64200  0.77120  0.96600  Biso   1.000  C
  H36      1.0000 0.65920  0.80730  0.90440  Biso   1.000  H
  H37      1.0000 0.67670  0.73510  0.92440  Biso   1.000  H
  C28      1.0000 0.54100  0.72900  0.96700  Biso   1.000  C
  C29      1.0000 0.68800  0.78400  0.13100  Biso   1.000  C
  H38      1.0000 0.66610  0.82480  0.16610  Biso   1.000  H
  H39      1.0000 0.66220  0.75230  0.20010  Biso   1.000  H
  O6       1.0000 0.21520  0.62300  0.24800  Biso   1.000  O
  H40      1.0000 0.26410  0.64710  0.22970  Biso   1.000  H
  H41      1.0000 0.17930  0.63930  0.31660  Biso   1.000  H
  C30      1.0000 0.80900  0.77600  0.31400  Biso   1.000  C
  H42      1.0000 0.82240  0.74570  0.08470  Biso   1.000  H
  H43      1.0000 0.78760  0.70440  0.13040  Biso   1.000  H
  C31      1.0000 0.69500  0.77600  0.10200  Biso   1.000  C
  H44      1.0000 0.69970  0.82110  0.09160  Biso   1.000  H
  H45      1.0000 0.65450  0.76630  0.18890  Biso   1.000  H
  C32      1.0000 0.53700  0.76000  0.94700  Biso   1.000  C
  H46      1.0000 0.69050  0.78640  0.94360  Biso   1.000  H
  H47      1.0000 0.65950  0.78090  0.89230  Biso   1.000  H
  H48      1.0000 0.82510  0.82030  0.09840  Biso   1.000  H
  O7       1.0000 0.38440  0.68640  0.16870  Biso   1.000  O
  O8       1.0000 0.99480  0.79700  0.44590  Biso   1.000  O
  N5       1.0000 0.30320  0.82630  0.82700  Biso   1.000  N
  N6       1.0000 0.08590  0.99300  0.59130  Biso   1.000  N
  C33      1.0000 0.22380  0.85480  0.87410  Biso   1.000  C
  H49      1.0000 0.19270  0.83940  0.96000  Biso   1.000  H
  C34      1.0000 0.18320  0.90710  0.80270  Biso   1.000  C
  H50      1.0000 0.12580  0.92560  0.84000  Biso   1.000  H
  C35      1.0000 0.22710  0.93070  0.68040  Biso   1.000  C
  C36      1.0000 0.31040  0.90130  0.62790  Biso   1.000  C
  H51      1.0000 0.34230  0.91590  0.54170  Biso   1.000  H
  C37      1.0000 0.34560  0.85020  0.70430  Biso   1.000  C
  H52      1.0000 0.40270  0.83080  0.66860  Biso   1.000  H
  C38      1.0000 0.19060  0.98670  0.59950  Biso   1.000  C
  H53      1.0000 0.21710  0.02400  0.64830  Biso   1.000  H
  H54      1.0000 0.21660  0.98570  0.49770  Biso   1.000  H
  C39      1.0000 0.04390  0.94240  0.50130  Biso   1.000  C
  H55      1.0000 0.05910  0.90220  0.54820  Biso   1.000  H
  H56      1.0000 0.07400  0.94270  0.40220  Biso   1.000  H
  C40      1.0000 0.06280  0.05150  0.51430  Biso   1.000  C
  H57      1.0000 0.09340  0.05170  0.41550  Biso   1.000  H
  H58      1.0000 0.08860  0.08690  0.57120  Biso   1.000  H
  C41      1.0000 0.32700  0.71900  0.22500  Biso   1.000  C
  C42      1.0000 0.29600  0.71810  0.36200  Biso   1.000  C
  H59      1.0000 0.33350  0.73870  0.46080  Biso   1.000  H
  C43      1.0000 0.14200  0.72880  0.53400  Biso   1.000  C
  H60      1.0000 0.15920  0.69270  0.59560  Biso   1.000  H
  H61      1.0000 0.17670  0.76490  0.57560  Biso   1.000  H
  C44      1.0000 0.04100  0.77100  0.53300  Biso   1.000  C
  C45      1.0000 0.18800  0.71600  0.36900  Biso   1.000  C
  H62      1.0000 0.16610  0.67520  0.33390  Biso   1.000  H
  H63      1.0000 0.16220  0.74770  0.29990  Biso   1.000  H
  O9       1.0000 0.71520  0.87700  0.25200  Biso   1.000  O
  H64      1.0000 0.76410  0.85290  0.27030  Biso   1.000  H
  H65      1.0000 0.67930  0.86070  0.18340  Biso   1.000  H
  C46      1.0000 0.30900  0.72400  0.18600  Biso   1.000  C
  H66      1.0000 0.32240  0.75430  0.41530  Biso   1.000  H
  H67      1.0000 0.28760  0.79560  0.36960  Biso   1.000  H
  C47      1.0000 0.19500  0.72400  0.39800  Biso   1.000  C
  H68      1.0000 0.19970  0.67890  0.40840  Biso   1.000  H
  H69      1.0000 0.15450  0.73370  0.31110  Biso   1.000  H
  C48      1.0000 0.03700  0.74000  0.55300  Biso   1.000  C
  H70      1.0000 0.19050  0.71360  0.55640  Biso   1.000  H
  H71      1.0000 0.15950  0.71910  0.60770  Biso   1.000  H
  H72      1.0000 0.32510  0.67970  0.40160  Biso   1.000  H
  O10      1.0000 0.11560  0.31360  0.66870  Biso   1.000  O
  O11      1.0000 0.50520  0.20300  0.94590  Biso   1.000  O
  N7       1.0000 0.19680  0.17370  0.32700  Biso   1.000  N
  N8       1.0000 0.41410  0.00700  0.09130  Biso   1.000  N
  C49      1.0000 0.27620  0.14520  0.37410  Biso   1.000  C
  H73      1.0000 0.30730  0.16060  0.46000  Biso   1.000  H
  C50      1.0000 0.31680  0.09290  0.30270  Biso   1.000  C
  H74      1.0000 0.37420  0.07440  0.34000  Biso   1.000  H
  C51      1.0000 0.27290  0.06930  0.18040  Biso   1.000  C
  C52      1.0000 0.18960  0.09870  0.12790  Biso   1.000  C
  H75      1.0000 0.15770  0.08410  0.04170  Biso   1.000  H
  C53      1.0000 0.15440  0.14980  0.20430  Biso   1.000  C
  H76      1.0000 0.09730  0.16920  0.16860  Biso   1.000  H
  C54      1.0000 0.30940  0.01330  0.09950  Biso   1.000  C
  H77      1.0000 0.28290  0.97600  0.14830  Biso   1.000  H
  H78      1.0000 0.28340  0.01430  0.99770  Biso   1.000  H
  C55      1.0000 0.45610  0.05760  0.00130  Biso   1.000  C
  H79      1.0000 0.44090  0.09780  0.04820  Biso   1.000  H
  H80      1.0000 0.42600  0.05730  0.90220  Biso   1.000  H
  C56      1.0000 0.43720  0.94850  0.01430  Biso   1.000  C
  H81      1.0000 0.40660  0.94830  0.91550  Biso   1.000  H
  H82      1.0000 0.41140  0.91310  0.07120  Biso   1.000  H
  C57      1.0000 0.17300  0.28100  0.72500  Biso   1.000  C
  C58      1.0000 0.20400  0.28190  0.86200  Biso   1.000  C
  H83      1.0000 0.16650  0.26130  0.96080  Biso   1.000  H
  C59      1.0000 0.35800  0.27120  0.03400  Biso   1.000  C
  H84      1.0000 0.34080  0.30730  0.09560  Biso   1.000  H
  H85      1.0000 0.32330  0.23510  0.07560  Biso   1.000  H
  C60      1.0000 0.45900  0.22900  0.03300  Biso   1.000  C
  C61      1.0000 0.31200  0.28400  0.86900  Biso   1.000  C
  H86      1.0000 0.33390  0.32480  0.83390  Biso   1.000  H
  H87      1.0000 0.33780  0.25230  0.79990  Biso   1.000  H
  O12      1.0000 0.78480  0.12300  0.75200  Biso   1.000  O
  H88      1.0000 0.73590  0.14710  0.77030  Biso   1.000  H
  H89      1.0000 0.82070  0.13930  0.68340  Biso   1.000  H
  C62      1.0000 0.19100  0.27600  0.68600  Biso   1.000  C
  H90      1.0000 0.17760  0.24570  0.91530  Biso   1.000  H
  H91      1.0000 0.21240  0.20440  0.86960  Biso   1.000  H
  C63      1.0000 0.30500  0.27600  0.89800  Biso   1.000  C
  H92      1.0000 0.30030  0.32110  0.90840  Biso   1.000  H
  H93      1.0000 0.34550  0.26630  0.81110  Biso   1.000  H
  C64      1.0000 0.46300  0.26000  0.05300  Biso   1.000  C
  H94      1.0000 0.30950  0.28640  0.05640  Biso   1.000  H
  H95      1.0000 0.34050  0.28090  0.10770  Biso   1.000  H
  H96      1.0000 0.17490  0.32030  0.90160  Biso   1.000  H
  O13      1.0000 0.38440  0.81360  0.16870  Biso   1.000  O
  O14      1.0000 0.99480  0.70300  0.44590  Biso   1.000  O
  N9       1.0000 0.30320  0.67370  0.82700  Biso   1.000  N
  N10      1.0000 0.08590  0.50700  0.59130  Biso   1.000  N
  C65      1.0000 0.22380  0.64520  0.87410  Biso   1.000  C
  H97      1.0000 0.19270  0.66060  0.96000  Biso   1.000  H
  C66      1.0000 0.18320  0.59290  0.80270  Biso   1.000  C
  H98      1.0000 0.12580  0.57440  0.84000  Biso   1.000  H
  C67      1.0000 0.22710  0.56930  0.68040  Biso   1.000  C
  C68      1.0000 0.31040  0.59870  0.62790  Biso   1.000  C
  H99      1.0000 0.34230  0.58410  0.54170  Biso   1.000  H
  C69      1.0000 0.34560  0.64980  0.70430  Biso   1.000  C
  H100     1.0000 0.40270  0.66920  0.66860  Biso   1.000  H
  C70      1.0000 0.19060  0.51330  0.59950  Biso   1.000  C
  H101     1.0000 0.21710  0.47600  0.64830  Biso   1.000  H
  H102     1.0000 0.21660  0.51430  0.49770  Biso   1.000  H
  C71      1.0000 0.04390  0.55760  0.50130  Biso   1.000  C
  H103     1.0000 0.05910  0.59780  0.54820  Biso   1.000  H
  H104     1.0000 0.07400  0.55730  0.40220  Biso   1.000  H
  C72      1.0000 0.06280  0.44850  0.51430  Biso   1.000  C
  H105     1.0000 0.09340  0.44830  0.41550  Biso   1.000  H
  H106     1.0000 0.08860  0.41310  0.57120  Biso   1.000  H
  C73      1.0000 0.32700  0.78100  0.22500  Biso   1.000  C
  C74      1.0000 0.29600  0.78190  0.36200  Biso   1.000  C
  H107     1.0000 0.33350  0.76130  0.46080  Biso   1.000  H
  C75      1.0000 0.14200  0.77120  0.53400  Biso   1.000  C
  H108     1.0000 0.15920  0.80730  0.59560  Biso   1.000  H
  H109     1.0000 0.17670  0.73510  0.57560  Biso   1.000  H
  C76      1.0000 0.04100  0.72900  0.53300  Biso   1.000  C
  C77      1.0000 0.18800  0.78400  0.36900  Biso   1.000  C
  H110     1.0000 0.16610  0.82480  0.33390  Biso   1.000  H
  H111     1.0000 0.16220  0.75230  0.29990  Biso   1.000  H
  O15      1.0000 0.71520  0.62300  0.25200  Biso   1.000  O
  H112     1.0000 0.76410  0.64710  0.27030  Biso   1.000  H
  H113     1.0000 0.67930  0.63930  0.18340  Biso   1.000  H
  C78      1.0000 0.30900  0.77600  0.18600  Biso   1.000  C
  H114     1.0000 0.32240  0.74570  0.41530  Biso   1.000  H
  H115     1.0000 0.28760  0.70440  0.36960  Biso   1.000  H
  C79      1.0000 0.19500  0.77600  0.39800  Biso   1.000  C
  H116     1.0000 0.19970  0.82110  0.40840  Biso   1.000  H
  H117     1.0000 0.15450  0.76630  0.31110  Biso   1.000  H
  C80      1.0000 0.03700  0.76000  0.55300  Biso   1.000  C
  H118     1.0000 0.19050  0.78640  0.55640  Biso   1.000  H
  H119     1.0000 0.15950  0.78090  0.60770  Biso   1.000  H
  H120     1.0000 0.32510  0.82030  0.40160  Biso   1.000  H
  O16      1.0000 0.11560  0.18640  0.66870  Biso   1.000  O
  O17      1.0000 0.50520  0.29700  0.94590  Biso   1.000  O
  N11      1.0000 0.19680  0.32630  0.32700  Biso   1.000  N
  N12      1.0000 0.41410  0.49300  0.09130  Biso   1.000  N
  C81      1.0000 0.27620  0.35480  0.37410  Biso   1.000  C
  H121     1.0000 0.30730  0.33940  0.46000  Biso   1.000  H
  C82      1.0000 0.31680  0.40710  0.30270  Biso   1.000  C
  H122     1.0000 0.37420  0.42560  0.34000  Biso   1.000  H
  C83      1.0000 0.27290  0.43070  0.18040  Biso   1.000  C
  C84      1.0000 0.18960  0.40130  0.12790  Biso   1.000  C
  H123     1.0000 0.15770  0.41590  0.04170  Biso   1.000  H
  C85      1.0000 0.15440  0.35020  0.20430  Biso   1.000  C
  H124     1.0000 0.09730  0.33080  0.16860  Biso   1.000  H
  C86      1.0000 0.30940  0.48670  0.09950  Biso   1.000  C
  H125     1.0000 0.28290  0.52400  0.14830  Biso   1.000  H
  H126     1.0000 0.28340  0.48570  0.99770  Biso   1.000  H
  C87      1.0000 0.45610  0.44240  0.00130  Biso   1.000  C
  H127     1.0000 0.44090  0.40220  0.04820  Biso   1.000  H
  H128     1.0000 0.42600  0.44270  0.90220  Biso   1.000  H
  C88      1.0000 0.43720  0.55150  0.01430  Biso   1.000  C
  H129     1.0000 0.40660  0.55170  0.91550  Biso   1.000  H
  H130     1.0000 0.41140  0.58690  0.07120  Biso   1.000  H
  C89      1.0000 0.17300  0.21900  0.72500  Biso   1.000  C
  C90      1.0000 0.20400  0.21810  0.86200  Biso   1.000  C
  H131     1.0000 0.16650  0.23870  0.96080  Biso   1.000  H
  C91      1.0000 0.35800  0.22880  0.03400  Biso   1.000  C
  H132     1.0000 0.34080  0.19270  0.09560  Biso   1.000  H
  H133     1.0000 0.32330  0.26490  0.07560  Biso   1.000  H
  C92      1.0000 0.45900  0.27100  0.03300  Biso   1.000  C
  C93      1.0000 0.31200  0.21600  0.86900  Biso   1.000  C
  H134     1.0000 0.33390  0.17520  0.83390  Biso   1.000  H
  H135     1.0000 0.33780  0.24770  0.79990  Biso   1.000  H
  O18      1.0000 0.78480  0.37700  0.75200  Biso   1.000  O
  H136     1.0000 0.73590  0.35290  0.77030  Biso   1.000  H
  H137     1.0000 0.82070  0.36070  0.68340  Biso   1.000  H
  C94      1.0000 0.19100  0.22400  0.68600  Biso   1.000  C
  H138     1.0000 0.17760  0.25430  0.91530  Biso   1.000  H
  H139     1.0000 0.21240  0.29560  0.86960  Biso   1.000  H
  C95      1.0000 0.30500  0.22400  0.89800  Biso   1.000  C
  H140     1.0000 0.30030  0.17890  0.90840  Biso   1.000  H
  H141     1.0000 0.34550  0.23370  0.81110  Biso   1.000  H
  C96      1.0000 0.46300  0.24000  0.05300  Biso   1.000  C
  H142     1.0000 0.30950  0.21360  0.05640  Biso   1.000  H
  H143     1.0000 0.34050  0.21910  0.10770  Biso   1.000  H
  H144     1.0000 0.17490  0.17970  0.90160  Biso   1.000  H
  O19      1.0000 0.61560  0.31360  0.83130  Biso   1.000  O
  O20      1.0000 0.00520  0.20300  0.55410  Biso   1.000  O
  N13      1.0000 0.69680  0.17370  0.17300  Biso   1.000  N
  N14      1.0000 0.91410  0.00700  0.40870  Biso   1.000  N
  C97      1.0000 0.77620  0.14520  0.12590  Biso   1.000  C
  H145     1.0000 0.80730  0.16060  0.04000  Biso   1.000  H
  C98      1.0000 0.81680  0.09290  0.19730  Biso   1.000  C
  H146     1.0000 0.87420  0.07440  0.16000  Biso   1.000  H
  C99      1.0000 0.77290  0.06930  0.31960  Biso   1.000  C
  C100     1.0000 0.68960  0.09870  0.37210  Biso   1.000  C
  H147     1.0000 0.65770  0.08410  0.45830  Biso   1.000  H
  C101     1.0000 0.65440  0.14980  0.29570  Biso   1.000  C
  H148     1.0000 0.59730  0.16920  0.33140  Biso   1.000  H
  C102     1.0000 0.80940  0.01330  0.40050  Biso   1.000  C
  H149     1.0000 0.78290  0.97600  0.35170  Biso   1.000  H
  H150     1.0000 0.78340  0.01430  0.50230  Biso   1.000  H
  C103     1.0000 0.95610  0.05760  0.49870  Biso   1.000  C
  H151     1.0000 0.94090  0.09780  0.45180  Biso   1.000  H
  H152     1.0000 0.92600  0.05730  0.59780  Biso   1.000  H
  C104     1.0000 0.93720  0.94850  0.48570  Biso   1.000  C
  H153     1.0000 0.90660  0.94830  0.58450  Biso   1.000  H
  H154     1.0000 0.91140  0.91310  0.42880  Biso   1.000  H
  C105     1.0000 0.67300  0.28100  0.77500  Biso   1.000  C
  C106     1.0000 0.70400  0.28190  0.63800  Biso   1.000  C
  H155     1.0000 0.66650  0.26130  0.53920  Biso   1.000  H
  C107     1.0000 0.85800  0.27120  0.46600  Biso   1.000  C
  H156     1.0000 0.84080  0.30730  0.40440  Biso   1.000  H
  H157     1.0000 0.82330  0.23510  0.42440  Biso   1.000  H
  C108     1.0000 0.95900  0.22900  0.46700  Biso   1.000  C
  C109     1.0000 0.81200  0.28400  0.63100  Biso   1.000  C
  H158     1.0000 0.83390  0.32480  0.66610  Biso   1.000  H
  H159     1.0000 0.83780  0.25230  0.70010  Biso   1.000  H
  O21      1.0000 0.28480  0.12300  0.74800  Biso   1.000  O
  H160     1.0000 0.23590  0.14710  0.72970  Biso   1.000  H
  H161     1.0000 0.32070  0.13930  0.81660  Biso   1.000  H
  C110     1.0000 0.69100  0.27600  0.81400  Biso   1.000  C
  H162     1.0000 0.67760  0.24570  0.58470  Biso   1.000  H
  H163     1.0000 0.71240  0.20440  0.63040  Biso   1.000  H
  C111     1.0000 0.80500  0.27600  0.60200  Biso   1.000  C
  H164     1.0000 0.80030  0.32110  0.59160  Biso   1.000  H
  H165     1.0000 0.84550  0.26630  0.68890  Biso   1.000  H
  C112     1.0000 0.96300  0.26000  0.44700  Biso   1.000  C
  H166     1.0000 0.80950  0.28640  0.44360  Biso   1.000  H
  H167     1.0000 0.84050  0.28090  0.39230  Biso   1.000  H
  H168     1.0000 0.67490  0.32030  0.59840  Biso   1.000  H
  O22      1.0000 0.88440  0.68640  0.33130  Biso   1.000  O
  O23      1.0000 0.49480  0.79700  0.05410  Biso   1.000  O
  N15      1.0000 0.80320  0.82630  0.67300  Biso   1.000  N
  N16      1.0000 0.58590  0.99300  0.90870  Biso   1.000  N
  C113     1.0000 0.72380  0.85480  0.62590  Biso   1.000  C
  H169     1.0000 0.69270  0.83940  0.54000  Biso   1.000  H
  C114     1.0000 0.68320  0.90710  0.69730  Biso   1.000  C
  H170     1.0000 0.62580  0.92560  0.66000  Biso   1.000  H
  C115     1.0000 0.72710  0.93070  0.81960  Biso   1.000  C
  C116     1.0000 0.81040  0.90130  0.87210  Biso   1.000  C
  H171     1.0000 0.84230  0.91590  0.95830  Biso   1.000  H
  C117     1.0000 0.84560  0.85020  0.79570  Biso   1.000  C
  H172     1.0000 0.90270  0.83080  0.83140  Biso   1.000  H
  C118     1.0000 0.69060  0.98670  0.90050  Biso   1.000  C
  H173     1.0000 0.71710  0.02400  0.85170  Biso   1.000  H
  H174     1.0000 0.71660  0.98570  0.00230  Biso   1.000  H
  C119     1.0000 0.54390  0.94240  0.99870  Biso   1.000  C
  H175     1.0000 0.55910  0.90220  0.95180  Biso   1.000  H
  H176     1.0000 0.57400  0.94270  0.09780  Biso   1.000  H
  C120     1.0000 0.56280  0.05150  0.98570  Biso   1.000  C
  H177     1.0000 0.59340  0.05170  0.08450  Biso   1.000  H
  H178     1.0000 0.58860  0.08690  0.92880  Biso   1.000  H
  C121     1.0000 0.82700  0.71900  0.27500  Biso   1.000  C
  C122     1.0000 0.79600  0.71810  0.13800  Biso   1.000  C
  H179     1.0000 0.83350  0.73870  0.03920  Biso   1.000  H
  C123     1.0000 0.64200  0.72880  0.96600  Biso   1.000  C
  H180     1.0000 0.65920  0.69270  0.90440  Biso   1.000  H
  H181     1.0000 0.67670  0.76490  0.92440  Biso   1.000  H
  C124     1.0000 0.54100  0.77100  0.96700  Biso   1.000  C
  C125     1.0000 0.68800  0.71600  0.13100  Biso   1.000  C
  H182     1.0000 0.66610  0.67520  0.16610  Biso   1.000  H
  H183     1.0000 0.66220  0.74770  0.20010  Biso   1.000  H
  O24      1.0000 0.21520  0.87700  0.24800  Biso   1.000  O
  H184     1.0000 0.26410  0.85290  0.22970  Biso   1.000  H
  H185     1.0000 0.17930  0.86070  0.31660  Biso   1.000  H
  C126     1.0000 0.80900  0.72400  0.31400  Biso   1.000  C
  H186     1.0000 0.82240  0.75430  0.08470  Biso   1.000  H
  H187     1.0000 0.78760  0.79560  0.13040  Biso   1.000  H
  C127     1.0000 0.69500  0.72400  0.10200  Biso   1.000  C
  H188     1.0000 0.69970  0.67890  0.09160  Biso   1.000  H
  H189     1.0000 0.65450  0.73370  0.18890  Biso   1.000  H
  C128     1.0000 0.53700  0.74000  0.94700  Biso   1.000  C
  H190     1.0000 0.69050  0.71360  0.94360  Biso   1.000  H
  H191     1.0000 0.65950  0.71910  0.89230  Biso   1.000  H
  H192     1.0000 0.82510  0.67970  0.09840  Biso   1.000  H
  Zn1      1.0000 0.64210  0.25000  0.06785  Biso   1.000  Zn
  O25      1.0000 0.71530  0.25000  0.88630  Biso   1.000  O
  O26      1.0000 0.00450  0.25000  0.35460  Biso   1.000  O
  C129     1.0000 0.71000  0.25000  0.62200  Biso   1.000  C
  C130     1.0000 0.84900  0.25000  0.47200  Biso   1.000  C
  Zn2      1.0000 0.85790  0.75000  0.56785  Biso   1.000  Zn
  O27      1.0000 0.78470  0.75000  0.38630  Biso   1.000  O
  O28      1.0000 0.49550  0.75000  0.85460  Biso   1.000  O
  C131     1.0000 0.79000  0.75000  0.12200  Biso   1.000  C
  C132     1.0000 0.65100  0.75000  0.97200  Biso   1.000  C
  Zn3      1.0000 0.35790  0.75000  0.93215  Biso   1.000  Zn
  O29      1.0000 0.28470  0.75000  0.11370  Biso   1.000  O
  O30      1.0000 0.99550  0.75000  0.64540  Biso   1.000  O
  C133     1.0000 0.29000  0.75000  0.37800  Biso   1.000  C
  C134     1.0000 0.15100  0.75000  0.52800  Biso   1.000  C
  Zn4      1.0000 0.14210  0.25000  0.43215  Biso   1.000  Zn
  O31      1.0000 0.21530  0.25000  0.61370  Biso   1.000  O
  O32      1.0000 0.50450  0.25000  0.14540  Biso   1.000  O
  C135     1.0000 0.21000  0.25000  0.87800  Biso   1.000  C
  C136     1.0000 0.34900  0.25000  0.02800  Biso   1.000  C
