data_image0
_cell_length_a       15.745
_cell_length_b       26.506
_cell_length_c       27.765
_cell_angle_alpha    86.976
_cell_angle_beta     84.139
_cell_angle_gamma    88.302

_symmetry_space_group_name_H-M    "P 1"
_symmetry_int_tables_number       1

loop_
  _symmetry_equiv_pos_as_xyz
  'x, y, z'

loop_
  _atom_site_label
  _atom_site_occupancy
  _atom_site_fract_x
  _atom_site_fract_y
  _atom_site_fract_z
  _atom_site_thermal_displace_type
  _atom_site_B_iso_or_equiv
  _atom_site_type_symbol
  Mo1      1.0000 0.27954  0.34579  0.30859  Biso   1.000  Mo
  Mo2      1.0000 0.19386  0.39765  0.37546  Biso   1.000  Mo
  Mo3      1.0000 0.56797  0.32511  0.41324  Biso   1.000  Mo
  Mo4      1.0000 0.49992  0.49372  0.25165  Biso   1.000  Mo
  Mo5      1.0000 0.45790  0.40227  0.23768  Biso   1.000  Mo
  Mo6      1.0000 0.28656  0.42446  0.48428  Biso   1.000  Mo
  Mo7      1.0000 0.48520  0.30225  0.31731  Biso   1.000  Mo
  Mo8      1.0000 0.39628  0.56817  0.33712  Biso   1.000  Mo
  Mo9      1.0000 0.23804  0.51875  0.40113  Biso   1.000  Mo
  Mo10     1.0000 0.44320  0.39393  0.49542  Biso   1.000  Mo
  Mo11     1.0000 0.59391  0.52060  0.36014  Biso   1.000  Mo
  Mo12     1.0000 0.61798  0.44819  0.42531  Biso   1.000  Mo
  Mo13     1.0000 0.78216  0.83215  0.10182  Biso   1.000  Mo
  Mo14     1.0000 0.70086  0.80124  0.18397  Biso   1.000  Mo
  Mo15     1.0000 0.48288  0.80570  0.20825  Biso   1.000  Mo
  Mo16     1.0000 0.79472  0.95548  0.06072  Biso   1.000  Mo
  Mo17     1.0000 0.59426  0.89124  0.26340  Biso   1.000  Mo
  Mo18     1.0000 0.66508  0.88132  0.00338  Biso   1.000  Mo
  Mo19     1.0000 0.39490  0.97546  0.09299  Biso   1.000  Mo
  Mo20     1.0000 0.59861  0.98705  0.23739  Biso   1.000  Mo
  Mo21     1.0000 0.70043  0.03534  0.13065  Biso   1.000  Mo
  Mo22     1.0000 0.48138  0.03641  0.13947  Biso   1.000  Mo
  Mo23     1.0000 0.49812  0.88670  0.01629  Biso   1.000  Mo
  Mo24     1.0000 0.37881  0.84834  0.12199  Biso   1.000  Mo
  Zn1      1.0000 0.34789  0.30713  0.42449  Biso   1.000  Zn
  Zn2      1.0000 0.27609  0.48316  0.28166  Biso   1.000  Zn
  Zn3      1.0000 0.63795  0.39759  0.30772  Biso   1.000  Zn
  Zn4      1.0000 0.42696  0.52829  0.45733  Biso   1.000  Zn
  Zn5      1.0000 0.60148  0.00870  0.02681  Biso   1.000  Zn
  Zn6      1.0000 0.39870  0.92919  0.21538  Biso   1.000  Zn
  Zn7      1.0000 0.56848  0.78421  0.08931  Biso   1.000  Zn
  Zn8      1.0000 0.78892  0.92782  0.18548  Biso   1.000  Zn
  C1       1.0000 0.98440  0.08680  0.47820  Biso   1.000  C
  C2       1.0000 0.97630  0.05770  0.43850  Biso   1.000  C
  H1       1.0000 0.01040  0.06390  0.40960  Biso   1.000  H
  C3       1.0000 0.91590  0.01840  0.44240  Biso   1.000  C
  C4       1.0000 0.87260  0.00710  0.48400  Biso   1.000  C
  H2       1.0000 0.83790  0.97910  0.48650  Biso   1.000  H
  C5       1.0000 0.87610  0.03540  0.52490  Biso   1.000  C
  C6       1.0000 0.93380  0.07710  0.51970  Biso   1.000  C
  H3       1.0000 0.93620  0.09780  0.54550  Biso   1.000  H
  C7       1.0000 0.04430  0.13000  0.47430  Biso   1.000  C
  C8       1.0000 0.02080  0.17390  0.49500  Biso   1.000  C
  H4       1.0000 0.96710  0.17680  0.51200  Biso   1.000  H
  C9       1.0000 0.07390  0.21450  0.49160  Biso   1.000  C
  H5       1.0000 0.05510  0.24470  0.50510  Biso   1.000  H
  C10      1.0000 0.15470  0.21030  0.46830  Biso   1.000  C
  C11      1.0000 0.17840  0.16440  0.44610  Biso   1.000  C
  H6       1.0000 0.23170  0.16130  0.42860  Biso   1.000  H
  C12      1.0000 0.12630  0.12610  0.44990  Biso   1.000  C
  H7       1.0000 0.14430  0.09590  0.43620  Biso   1.000  H
  C13      1.0000 0.21000  0.25600  0.46330  Biso   1.000  C
  C14      1.0000 0.90960  0.98970  0.39820  Biso   1.000  C
  C15      1.0000 0.88700  0.93990  0.40030  Biso   1.000  C
  H8       1.0000 0.88040  0.92290  0.43060  Biso   1.000  H
  C16      1.0000 0.87330  0.91320  0.36020  Biso   1.000  C
  H9       1.0000 0.85880  0.87930  0.36310  Biso   1.000  H
  C17      1.0000 0.88240  0.94020  0.31450  Biso   1.000  C
  C18      1.0000 0.90810  0.98840  0.31000  Biso   1.000  C
  H10      1.0000 0.91480  0.00570  0.27990  Biso   1.000  H
  C19      1.0000 0.92440  0.01180  0.35260  Biso   1.000  C
  H11      1.0000 0.94660  0.04410  0.34950  Biso   1.000  H
  C20      1.0000 0.85690  0.91420  0.27140  Biso   1.000  C
  C21      1.0000 0.82600  0.02560  0.57250  Biso   1.000  C
  C22      1.0000 0.74930  0.00430  0.57730  Biso   1.000  C
  H12      1.0000 0.72740  0.99270  0.55020  Biso   1.000  H
  C23      1.0000 0.70190  0.99910  0.62220  Biso   1.000  C
  H13      1.0000 0.64920  0.98380  0.62460  Biso   1.000  H
  C24      1.0000 0.73140  0.01630  0.66320  Biso   1.000  C
  C25      1.0000 0.81060  0.03460  0.65850  Biso   1.000  C
  H14      1.0000 0.83340  0.04480  0.68590  Biso   1.000  H
  C26      1.0000 0.85910  0.03870  0.61440  Biso   1.000  C
  H15      1.0000 0.91450  0.05030  0.61270  Biso   1.000  H
  C27      1.0000 0.67520  0.01520  0.71030  Biso   1.000  C
  C28      1.0000 0.04700  0.58710  0.95040  Biso   1.000  C
  C29      1.0000 0.96800  0.61330  0.95660  Biso   1.000  C
  H16      1.0000 0.94660  0.63000  0.93000  Biso   1.000  H
  C30      1.0000 0.92260  0.61450  0.00050  Biso   1.000  C
  C31      1.0000 0.95780  0.59040  0.04060  Biso   1.000  C
  H17      1.0000 0.92710  0.59060  0.07110  Biso   1.000  H
  C32      1.0000 0.03770  0.56630  0.03550  Biso   1.000  C
  C33      1.0000 0.07990  0.56350  0.98960  Biso   1.000  C
  H18      1.0000 0.13120  0.54520  0.98530  Biso   1.000  H
  C34      1.0000 0.09360  0.58520  0.90050  Biso   1.000  C
  C35      1.0000 0.12980  0.53890  0.88560  Biso   1.000  C
  H19      1.0000 0.12290  0.50980  0.90580  Biso   1.000  H
  C36      1.0000 0.17630  0.53720  0.84010  Biso   1.000  C
  H20      1.0000 0.19740  0.50620  0.82940  Biso   1.000  H
  C37      1.0000 0.19170  0.57980  0.81090  Biso   1.000  C
  C38      1.0000 0.15540  0.62480  0.82670  Biso   1.000  C
  H21      1.0000 0.16350  0.65410  0.80700  Biso   1.000  H
  C39      1.0000 0.10630  0.62750  0.87190  Biso   1.000  C
  H22      1.0000 0.08280  0.65830  0.88190  Biso   1.000  H
  C40      1.0000 0.24320  0.57610  0.76230  Biso   1.000  C
  C41      1.0000 0.83360  0.63620  0.00710  Biso   1.000  C
  C42      1.0000 0.77320  0.62740  0.97780  Biso   1.000  C
  H23      1.0000 0.78710  0.60620  0.95230  Biso   1.000  H
  C43      1.0000 0.69380  0.64790  0.98340  Biso   1.000  C
  H24      1.0000 0.65670  0.64260  0.96020  Biso   1.000  H
  C44      1.0000 0.66530  0.67680  0.02280  Biso   1.000  C
  C45      1.0000 0.72970  0.68630  0.05210  Biso   1.000  C
  H25      1.0000 0.71560  0.70760  0.07740  Biso   1.000  H
  C46      1.0000 0.80950  0.66760  0.04710  Biso   1.000  C
  H26      1.0000 0.84840  0.67470  0.06870  Biso   1.000  H
  C47      1.0000 0.57890  0.69820  0.02780  Biso   1.000  C
  C48      1.0000 0.07400  0.54160  0.07860  Biso   1.000  C
  C49      1.0000 0.06450  0.56290  0.12290  Biso   1.000  C
  H27      1.0000 0.03160  0.59250  0.12650  Biso   1.000  H
  C50      1.0000 0.10190  0.54200  0.16220  Biso   1.000  C
  H28      1.0000 0.09180  0.55610  0.19230  Biso   1.000  H
  C51      1.0000 0.15250  0.50170  0.15660  Biso   1.000  C
  C52      1.0000 0.16470  0.47820  0.11340  Biso   1.000  C
  H29      1.0000 0.19830  0.44880  0.11060  Biso   1.000  H
  C53      1.0000 0.12700  0.49860  0.07480  Biso   1.000  C
  H30      1.0000 0.13680  0.48350  0.04520  Biso   1.000  H
  C54      1.0000 0.20140  0.48020  0.19780  Biso   1.000  C
  O1       1.0000 0.63820  0.45080  0.35370  Biso   1.000  O
  O2       1.0000 0.39170  0.46100  0.48550  Biso   1.000  O
  O3       1.0000 0.46090  0.30090  0.38880  Biso   1.000  O
  O4       1.0000 0.35440  0.54710  0.40680  Biso   1.000  O
  O5       1.0000 0.58260  0.33850  0.34070  Biso   1.000  O
  O6       1.0000 0.34860  0.36100  0.47110  Biso   1.000  O
  O7       1.0000 0.29160  0.52890  0.33240  Biso   1.000  O
  O8       1.0000 0.55740  0.42840  0.26260  Biso   1.000  O
  O9       1.0000 0.26970  0.33880  0.37920  Biso   1.000  O
  O10      1.0000 0.55690  0.42820  0.49040  Biso   1.000  O
  O11      1.0000 0.23870  0.41690  0.30910  Biso   1.000  O
  O12      1.0000 0.64430  0.37450  0.41810  Biso   1.000  O
  O13      1.0000 0.59770  0.52100  0.28440  Biso   1.000  O
  O14      1.0000 0.54180  0.50720  0.42640  Biso   1.000  O
  O15      1.0000 0.33800  0.36900  0.24210  Biso   1.000  O
  O16      1.0000 0.42980  0.38000  0.55500  Biso   1.000  O
  O17      1.0000 0.24000  0.49180  0.46280  Biso   1.000  O
  O18      1.0000 0.19120  0.39380  0.44960  Biso   1.000  O
  O19      1.0000 0.50200  0.57410  0.35690  Biso   1.000  O
  O20      1.0000 0.43140  0.55370  0.27510  Biso   1.000  O
  O21      1.0000 0.38840  0.46390  0.24850  Biso   1.000  O
  O22      1.0000 0.50900  0.33070  0.47240  Biso   1.000  O
  O23      1.0000 0.16990  0.47160  0.37920  Biso   1.000  O
  O24      1.0000 0.50810  0.33480  0.25740  Biso   1.000  O
  O25      1.0000 0.37170  0.29280  0.31240  Biso   1.000  O
  O26      1.0000 0.28890  0.24730  0.44460  Biso   1.000  O
  O27      1.0000 0.18260  0.29560  0.47630  Biso   1.000  O
  O28      1.0000 0.26170  0.53260  0.74890  Biso   1.000  O
  O29      1.0000 0.26700  0.61690  0.74060  Biso   1.000  O
  O30      1.0000 0.20150  0.50780  0.23390  Biso   1.000  O
  O31      1.0000 0.23860  0.43710  0.19570  Biso   1.000  O
  O32      1.0000 0.49690  0.01390  0.07360  Biso   1.000  O
  O33      1.0000 0.50570  0.93960  0.24470  Biso   1.000  O
  O34      1.0000 0.41390  0.94540  0.02810  Biso   1.000  O
  O35      1.0000 0.58550  0.93900  0.00810  Biso   1.000  O
  O36      1.0000 0.69940  0.00780  0.06460  Biso   1.000  O
  O37      1.0000 0.50560  0.83980  0.26030  Biso   1.000  O
  O38      1.0000 0.40200  0.86230  0.19020  Biso   1.000  O
  O39      1.0000 0.68590  0.93360  0.23240  Biso   1.000  O
  O40      1.0000 0.67800  0.79290  0.11630  Biso   1.000  O
  O41      1.0000 0.68530  0.02790  0.19650  Biso   1.000  O
  O42      1.0000 0.50760  0.03510  0.21120  Biso   1.000  O
  O43      1.0000 0.47480  0.80110  0.13750  Biso   1.000  O
  O44      1.0000 0.33180  0.91280  0.11730  Biso   1.000  O
  O45      1.0000 0.41360  0.84360  0.05820  Biso   1.000  O
  O46      1.0000 0.75480  0.83090  0.03050  Biso   1.000  O
  O47      1.0000 0.84570  0.89550  0.08180  Biso   1.000  O
  O48      1.0000 0.57990  0.83500  0.03460  Biso   1.000  O
  O49      1.0000 0.40670  0.98080  0.16150  Biso   1.000  O
  O50      1.0000 0.75380  0.93350  0.00690  Biso   1.000  O
  O51      1.0000 0.77810  0.85630  0.16650  Biso   1.000  O
  O52      1.0000 0.58760  0.77290  0.20090  Biso   1.000  O
  O53      1.0000 0.59650  0.06580  0.12420  Biso   1.000  O
  O54      1.0000 0.78160  0.97470  0.13000  Biso   1.000  O
  O55      1.0000 0.68160  0.83380  0.25180  Biso   1.000  O
  O56      1.0000 0.68960  0.05180  0.73590  Biso   1.000  O
  O57      1.0000 0.62290  0.98290  0.72130  Biso   1.000  O
  O58      1.0000 0.55140  0.71900  0.06760  Biso   1.000  O
  O59      1.0000 0.51740  0.67430  0.01070  Biso   1.000  O
  O60      1.0000 0.82320  0.87070  0.27590  Biso   1.000  O
  O61      1.0000 0.87020  0.93800  0.23090  Biso   1.000  O
  O62      1.0000 0.47900  0.38070  0.54820  Biso   1.000  O
  O63      1.0000 0.53280  0.69550  0.99070  Biso   1.000  O
  Mo25     1.0000 0.72046  0.65421  0.69141  Biso   1.000  Mo
  Mo26     1.0000 0.80614  0.60235  0.62454  Biso   1.000  Mo
  Mo27     1.0000 0.43203  0.67489  0.58676  Biso   1.000  Mo
  Mo28     1.0000 0.50008  0.50628  0.74835  Biso   1.000  Mo
  Mo29     1.0000 0.54210  0.59773  0.76232  Biso   1.000  Mo
  Mo30     1.0000 0.71344  0.57554  0.51572  Biso   1.000  Mo
  Mo31     1.0000 0.51480  0.69775  0.68269  Biso   1.000  Mo
  Mo32     1.0000 0.60372  0.43183  0.66288  Biso   1.000  Mo
  Mo33     1.0000 0.76196  0.48125  0.59887  Biso   1.000  Mo
  Mo34     1.0000 0.55680  0.60607  0.50458  Biso   1.000  Mo
  Mo35     1.0000 0.40609  0.47940  0.63986  Biso   1.000  Mo
  Mo36     1.0000 0.38202  0.55181  0.57469  Biso   1.000  Mo
  Mo37     1.0000 0.21784  0.16785  0.89818  Biso   1.000  Mo
  Mo38     1.0000 0.29914  0.19876  0.81603  Biso   1.000  Mo
  Mo39     1.0000 0.51712  0.19430  0.79175  Biso   1.000  Mo
  Mo40     1.0000 0.20528  0.04452  0.93928  Biso   1.000  Mo
  Mo41     1.0000 0.40574  0.10876  0.73660  Biso   1.000  Mo
  Mo42     1.0000 0.33492  0.11868  0.99662  Biso   1.000  Mo
  Mo43     1.0000 0.60510  0.02454  0.90701  Biso   1.000  Mo
  Mo44     1.0000 0.40139  0.01295  0.76261  Biso   1.000  Mo
  Mo45     1.0000 0.29957  0.96466  0.86935  Biso   1.000  Mo
  Mo46     1.0000 0.51862  0.96359  0.86053  Biso   1.000  Mo
  Mo47     1.0000 0.50188  0.11330  0.98371  Biso   1.000  Mo
  Mo48     1.0000 0.62119  0.15166  0.87801  Biso   1.000  Mo
  Zn9      1.0000 0.65211  0.69287  0.57551  Biso   1.000  Zn
  Zn10     1.0000 0.72391  0.51684  0.71834  Biso   1.000  Zn
  Zn11     1.0000 0.36205  0.60241  0.69228  Biso   1.000  Zn
  Zn12     1.0000 0.57304  0.47171  0.54267  Biso   1.000  Zn
  Zn13     1.0000 0.39852  0.99130  0.97319  Biso   1.000  Zn
  Zn14     1.0000 0.60130  0.07081  0.78462  Biso   1.000  Zn
  Zn15     1.0000 0.43152  0.21579  0.91069  Biso   1.000  Zn
  Zn16     1.0000 0.21108  0.07218  0.81452  Biso   1.000  Zn
  C55      1.0000 0.01560  0.91320  0.52180  Biso   1.000  C
  C56      1.0000 0.02370  0.94230  0.56150  Biso   1.000  C
  H31      1.0000 0.98960  0.93610  0.59040  Biso   1.000  H
  C57      1.0000 0.08410  0.98160  0.55760  Biso   1.000  C
  C58      1.0000 0.12740  0.99290  0.51600  Biso   1.000  C
  H32      1.0000 0.16210  0.02090  0.51350  Biso   1.000  H
  C59      1.0000 0.12390  0.96460  0.47510  Biso   1.000  C
  C60      1.0000 0.06620  0.92290  0.48030  Biso   1.000  C
  H33      1.0000 0.06380  0.90220  0.45450  Biso   1.000  H
  C61      1.0000 0.95570  0.87000  0.52570  Biso   1.000  C
  C62      1.0000 0.97920  0.82610  0.50500  Biso   1.000  C
  H34      1.0000 0.03290  0.82320  0.48800  Biso   1.000  H
  C63      1.0000 0.92610  0.78550  0.50840  Biso   1.000  C
  H35      1.0000 0.94490  0.75530  0.49490  Biso   1.000  H
  C64      1.0000 0.84530  0.78970  0.53170  Biso   1.000  C
  C65      1.0000 0.82160  0.83560  0.55390  Biso   1.000  C
  H36      1.0000 0.76830  0.83870  0.57140  Biso   1.000  H
  C66      1.0000 0.87370  0.87390  0.55010  Biso   1.000  C
  H37      1.0000 0.85570  0.90410  0.56380  Biso   1.000  H
  C67      1.0000 0.79000  0.74400  0.53670  Biso   1.000  C
  C68      1.0000 0.09040  0.01030  0.60180  Biso   1.000  C
  C69      1.0000 0.11300  0.06010  0.59970  Biso   1.000  C
  H38      1.0000 0.11960  0.07710  0.56940  Biso   1.000  H
  C70      1.0000 0.12670  0.08680  0.63980  Biso   1.000  C
  H39      1.0000 0.14120  0.12070  0.63690  Biso   1.000  H
  C71      1.0000 0.11760  0.05980  0.68550  Biso   1.000  C
  C72      1.0000 0.09190  0.01160  0.69000  Biso   1.000  C
  H40      1.0000 0.08520  0.99430  0.72010  Biso   1.000  H
  C73      1.0000 0.07560  0.98820  0.64740  Biso   1.000  C
  H41      1.0000 0.05340  0.95590  0.65050  Biso   1.000  H
  C74      1.0000 0.14310  0.08580  0.72860  Biso   1.000  C
  C75      1.0000 0.17400  0.97440  0.42750  Biso   1.000  C
  C76      1.0000 0.25070  0.99570  0.42270  Biso   1.000  C
  H42      1.0000 0.27260  0.00730  0.44980  Biso   1.000  H
  C77      1.0000 0.29810  0.00090  0.37780  Biso   1.000  C
  H43      1.0000 0.35080  0.01620  0.37540  Biso   1.000  H
  C78      1.0000 0.26860  0.98370  0.33680  Biso   1.000  C
  C79      1.0000 0.18940  0.96540  0.34150  Biso   1.000  C
  H44      1.0000 0.16660  0.95520  0.31410  Biso   1.000  H
  C80      1.0000 0.14090  0.96130  0.38560  Biso   1.000  C
  H45      1.0000 0.08550  0.94970  0.38730  Biso   1.000  H
  C81      1.0000 0.32480  0.98480  0.28970  Biso   1.000  C
  C82      1.0000 0.95300  0.41290  0.04960  Biso   1.000  C
  C83      1.0000 0.03200  0.38670  0.04340  Biso   1.000  C
  H46      1.0000 0.05340  0.37000  0.07000  Biso   1.000  H
  C84      1.0000 0.07740  0.38550  0.99950  Biso   1.000  C
  C85      1.0000 0.04220  0.40960  0.95940  Biso   1.000  C
  H47      1.0000 0.07290  0.40940  0.92890  Biso   1.000  H
  C86      1.0000 0.96230  0.43370  0.96450  Biso   1.000  C
  C87      1.0000 0.92010  0.43650  0.01040  Biso   1.000  C
  H48      1.0000 0.86880  0.45480  0.01470  Biso   1.000  H
  C88      1.0000 0.90640  0.41480  0.09950  Biso   1.000  C
  C89      1.0000 0.87020  0.46110  0.11440  Biso   1.000  C
  H49      1.0000 0.87710  0.49020  0.09420  Biso   1.000  H
  C90      1.0000 0.82370  0.46280  0.15990  Biso   1.000  C
  H50      1.0000 0.80260  0.49380  0.17060  Biso   1.000  H
  C91      1.0000 0.80830  0.42020  0.18910  Biso   1.000  C
  C92      1.0000 0.84460  0.37520  0.17330  Biso   1.000  C
  H51      1.0000 0.83650  0.34590  0.19300  Biso   1.000  H
  C93      1.0000 0.89370  0.37250  0.12810  Biso   1.000  C
  H52      1.0000 0.91720  0.34170  0.11810  Biso   1.000  H
  C94      1.0000 0.75680  0.42390  0.23770  Biso   1.000  C
  C95      1.0000 0.16640  0.36380  0.99290  Biso   1.000  C
  C96      1.0000 0.22680  0.37260  0.02220  Biso   1.000  C
  H53      1.0000 0.21290  0.39380  0.04770  Biso   1.000  H
  C97      1.0000 0.30620  0.35210  0.01660  Biso   1.000  C
  H54      1.0000 0.34330  0.35740  0.03980  Biso   1.000  H
  C98      1.0000 0.33470  0.32320  0.97720  Biso   1.000  C
  C99      1.0000 0.27030  0.31370  0.94790  Biso   1.000  C
  H55      1.0000 0.28440  0.29240  0.92260  Biso   1.000  H
  C100     1.0000 0.19050  0.33240  0.95290  Biso   1.000  C
  H56      1.0000 0.15160  0.32530  0.93130  Biso   1.000  H
  C101     1.0000 0.42110  0.30180  0.97220  Biso   1.000  C
  C102     1.0000 0.92600  0.45840  0.92140  Biso   1.000  C
  C103     1.0000 0.93550  0.43710  0.87710  Biso   1.000  C
  H57      1.0000 0.96840  0.40750  0.87350  Biso   1.000  H
  C104     1.0000 0.89810  0.45800  0.83780  Biso   1.000  C
  H58      1.0000 0.90820  0.44390  0.80770  Biso   1.000  H
  C105     1.0000 0.84750  0.49830  0.84340  Biso   1.000  C
  C106     1.0000 0.83530  0.52180  0.88660  Biso   1.000  C
  H59      1.0000 0.80170  0.55120  0.88940  Biso   1.000  H
  C107     1.0000 0.87300  0.50140  0.92520  Biso   1.000  C
  H60      1.0000 0.86320  0.51650  0.95480  Biso   1.000  H
  C108     1.0000 0.79860  0.51980  0.80220  Biso   1.000  C
  O64      1.0000 0.36180  0.54920  0.64630  Biso   1.000  O
  O65      1.0000 0.60830  0.53900  0.51450  Biso   1.000  O
  O66      1.0000 0.53910  0.69910  0.61120  Biso   1.000  O
  O67      1.0000 0.64560  0.45290  0.59320  Biso   1.000  O
  O68      1.0000 0.41740  0.66150  0.65930  Biso   1.000  O
  O69      1.0000 0.65140  0.63900  0.52890  Biso   1.000  O
  O70      1.0000 0.70840  0.47110  0.66760  Biso   1.000  O
  O71      1.0000 0.44260  0.57160  0.73740  Biso   1.000  O
  O72      1.0000 0.73030  0.66120  0.62080  Biso   1.000  O
  O73      1.0000 0.44310  0.57180  0.50960  Biso   1.000  O
  O74      1.0000 0.76130  0.58310  0.69090  Biso   1.000  O
  O75      1.0000 0.35570  0.62550  0.58190  Biso   1.000  O
  O76      1.0000 0.40230  0.47900  0.71560  Biso   1.000  O
  O77      1.0000 0.45820  0.49280  0.57360  Biso   1.000  O
  O78      1.0000 0.66200  0.63100  0.75790  Biso   1.000  O
  O79      1.0000 0.57020  0.62000  0.44500  Biso   1.000  O
  O80      1.0000 0.76000  0.50820  0.53720  Biso   1.000  O
  O81      1.0000 0.80880  0.60620  0.55040  Biso   1.000  O
  O82      1.0000 0.49800  0.42590  0.64310  Biso   1.000  O
  O83      1.0000 0.56860  0.44630  0.72490  Biso   1.000  O
  O84      1.0000 0.61160  0.53610  0.75150  Biso   1.000  O
  O85      1.0000 0.49100  0.66930  0.52760  Biso   1.000  O
  O86      1.0000 0.83010  0.52840  0.62080  Biso   1.000  O
  O87      1.0000 0.49190  0.66520  0.74260  Biso   1.000  O
  O88      1.0000 0.62830  0.70720  0.68760  Biso   1.000  O
  O89      1.0000 0.71110  0.75270  0.55540  Biso   1.000  O
  O90      1.0000 0.81740  0.70440  0.52370  Biso   1.000  O
  O91      1.0000 0.73830  0.46740  0.25110  Biso   1.000  O
  O92      1.0000 0.73300  0.38310  0.25940  Biso   1.000  O
  O93      1.0000 0.79850  0.49220  0.76610  Biso   1.000  O
  O94      1.0000 0.76140  0.56290  0.80430  Biso   1.000  O
  O95      1.0000 0.50310  0.98610  0.92640  Biso   1.000  O
  O96      1.0000 0.49430  0.06040  0.75530  Biso   1.000  O
  O97      1.0000 0.58610  0.05460  0.97190  Biso   1.000  O
  O98      1.0000 0.41450  0.06100  0.99190  Biso   1.000  O
  O99      1.0000 0.30060  0.99220  0.93540  Biso   1.000  O
  O100     1.0000 0.49440  0.16020  0.73970  Biso   1.000  O
  O101     1.0000 0.59800  0.13770  0.80980  Biso   1.000  O
  O102     1.0000 0.31410  0.06640  0.76760  Biso   1.000  O
  O103     1.0000 0.32200  0.20710  0.88370  Biso   1.000  O
  O104     1.0000 0.31470  0.97210  0.80350  Biso   1.000  O
  O105     1.0000 0.49240  0.96490  0.78880  Biso   1.000  O
  O106     1.0000 0.52520  0.19890  0.86250  Biso   1.000  O
  O107     1.0000 0.66820  0.08720  0.88270  Biso   1.000  O
  O108     1.0000 0.58640  0.15640  0.94180  Biso   1.000  O
  O109     1.0000 0.24520  0.16910  0.96950  Biso   1.000  O
  O110     1.0000 0.15430  0.10450  0.91820  Biso   1.000  O
  O111     1.0000 0.42010  0.16500  0.96540  Biso   1.000  O
  O112     1.0000 0.59330  0.01920  0.83850  Biso   1.000  O
  O113     1.0000 0.24620  0.06650  0.99310  Biso   1.000  O
  O114     1.0000 0.22190  0.14370  0.83350  Biso   1.000  O
  O115     1.0000 0.41240  0.22710  0.79910  Biso   1.000  O
  O116     1.0000 0.40350  0.93420  0.87580  Biso   1.000  O
  O117     1.0000 0.21840  0.02530  0.87000  Biso   1.000  O
  O118     1.0000 0.31840  0.16620  0.74820  Biso   1.000  O
  O119     1.0000 0.31040  0.94820  0.26410  Biso   1.000  O
  O120     1.0000 0.37710  0.01710  0.27870  Biso   1.000  O
  O121     1.0000 0.44860  0.28100  0.93240  Biso   1.000  O
  O122     1.0000 0.48260  0.32570  0.98930  Biso   1.000  O
  O123     1.0000 0.17680  0.12930  0.72410  Biso   1.000  O
  O124     1.0000 0.12980  0.06200  0.76910  Biso   1.000  O
  O125     1.0000 0.52100  0.61930  0.45180  Biso   1.000  O
  O126     1.0000 0.46720  0.30450  0.00930  Biso   1.000  O
