data_image0
_cell_length_a       15.745
_cell_length_b       26.506
_cell_length_c       27.765
_cell_angle_alpha    86.976
_cell_angle_beta     84.139
_cell_angle_gamma    88.302

_symmetry_space_group_name_H-M    "P 1"
_symmetry_int_tables_number       1

loop_
  _symmetry_equiv_pos_as_xyz
  'x, y, z'

loop_
  _atom_site_label
  _atom_site_occupancy
  _atom_site_fract_x
  _atom_site_fract_y
  _atom_site_fract_z
  _atom_site_thermal_displace_type
  _atom_site_B_iso_or_equiv
  _atom_site_type_symbol
  Mo1      1.0000 0.27964  0.34571  0.30857  Biso   1.000  Mo
  Mo2      1.0000 0.19378  0.39763  0.37551  Biso   1.000  Mo
  Mo3      1.0000 0.56812  0.32518  0.41323  Biso   1.000  Mo
  Mo4      1.0000 0.49997  0.49369  0.25169  Biso   1.000  Mo
  Mo5      1.0000 0.45791  0.40229  0.23763  Biso   1.000  Mo
  Mo6      1.0000 0.28657  0.42452  0.48429  Biso   1.000  Mo
  Mo7      1.0000 0.48519  0.30223  0.31728  Biso   1.000  Mo
  Mo8      1.0000 0.39626  0.56823  0.33714  Biso   1.000  Mo
  Mo9      1.0000 0.23800  0.51876  0.40113  Biso   1.000  Mo
  Mo10     1.0000 0.44314  0.39391  0.49541  Biso   1.000  Mo
  Mo11     1.0000 0.59383  0.52060  0.36019  Biso   1.000  Mo
  Mo12     1.0000 0.61794  0.44809  0.42534  Biso   1.000  Mo
  Mo13     1.0000 0.78232  0.83217  0.10177  Biso   1.000  Mo
  Mo14     1.0000 0.70088  0.80119  0.18394  Biso   1.000  Mo
  Mo15     1.0000 0.48285  0.80566  0.20832  Biso   1.000  Mo
  Mo16     1.0000 0.79473  0.95549  0.06066  Biso   1.000  Mo
  Mo17     1.0000 0.59415  0.89132  0.26346  Biso   1.000  Mo
  Mo18     1.0000 0.66512  0.88130  0.00338  Biso   1.000  Mo
  Mo19     1.0000 0.39485  0.97542  0.09307  Biso   1.000  Mo
  Mo20     1.0000 0.59870  0.98700  0.23736  Biso   1.000  Mo
  Mo21     1.0000 0.70050  0.03534  0.13064  Biso   1.000  Mo
  Mo22     1.0000 0.48138  0.03638  0.13953  Biso   1.000  Mo
  Mo23     1.0000 0.49807  0.88668  0.01624  Biso   1.000  Mo
  Mo24     1.0000 0.37888  0.84825  0.12205  Biso   1.000  Mo
  Zn1      1.0000 0.34801  0.30708  0.42447  Biso   1.000  Zn
  Zn2      1.0000 0.27626  0.48320  0.28164  Biso   1.000  Zn
  Zn3      1.0000 0.63792  0.39760  0.30764  Biso   1.000  Zn
  Zn4      1.0000 0.42682  0.52827  0.45730  Biso   1.000  Zn
  Zn5      1.0000 0.60145  0.00859  0.02685  Biso   1.000  Zn
  Zn6      1.0000 0.39870  0.92914  0.21539  Biso   1.000  Zn
  Zn7      1.0000 0.56846  0.78415  0.08926  Biso   1.000  Zn
  Zn8      1.0000 0.78892  0.92780  0.18552  Biso   1.000  Zn
  C1       1.0000 0.98430  0.08760  0.47640  Biso   1.000  C
  C2       1.0000 0.97520  0.05710  0.43840  Biso   1.000  C
  H1       1.0000 0.00940  0.06200  0.40930  Biso   1.000  H
  C3       1.0000 0.91540  0.01900  0.44310  Biso   1.000  C
  C4       1.0000 0.87260  0.00710  0.48410  Biso   1.000  C
  H2       1.0000 0.83970  0.97840  0.48640  Biso   1.000  H
  C5       1.0000 0.87340  0.03570  0.52550  Biso   1.000  C
  C6       1.0000 0.93400  0.07670  0.52050  Biso   1.000  C
  H3       1.0000 0.93940  0.09610  0.54690  Biso   1.000  H
  C7       1.0000 0.04290  0.13100  0.47520  Biso   1.000  C
  C8       1.0000 0.02010  0.17430  0.49580  Biso   1.000  C
  H4       1.0000 0.96650  0.17780  0.51290  Biso   1.000  H
  C9       1.0000 0.07600  0.21410  0.49170  Biso   1.000  C
  H5       1.0000 0.05840  0.24460  0.50510  Biso   1.000  H
  C10      1.0000 0.15440  0.20970  0.46900  Biso   1.000  C
  C11      1.0000 0.17960  0.16400  0.44580  Biso   1.000  C
  H6       1.0000 0.23250  0.16180  0.42770  Biso   1.000  H
  C12      1.0000 0.12990  0.12570  0.44970  Biso   1.000  C
  H7       1.0000 0.14850  0.09520  0.43670  Biso   1.000  H
  C13      1.0000 0.21020  0.25640  0.46310  Biso   1.000  C
  C14      1.0000 0.91160  0.98870  0.39900  Biso   1.000  C
  C15      1.0000 0.88710  0.94000  0.40020  Biso   1.000  C
  H8       1.0000 0.88050  0.92300  0.43040  Biso   1.000  H
  C16      1.0000 0.87150  0.91380  0.36170  Biso   1.000  C
  H9       1.0000 0.85400  0.88050  0.36570  Biso   1.000  H
  C17      1.0000 0.88280  0.93940  0.31370  Biso   1.000  C
  C18      1.0000 0.90740  0.98820  0.30980  Biso   1.000  C
  H10      1.0000 0.91310  0.00580  0.27980  Biso   1.000  H
  C19      1.0000 0.92430  0.01190  0.35240  Biso   1.000  C
  H11      1.0000 0.94490  0.04460  0.34930  Biso   1.000  H
  C20      1.0000 0.86030  0.91310  0.27210  Biso   1.000  C
  C21      1.0000 0.82490  0.02610  0.57100  Biso   1.000  C
  C22      1.0000 0.75060  0.00290  0.57770  Biso   1.000  C
  H12      1.0000 0.73020  0.98920  0.55110  Biso   1.000  H
  C23      1.0000 0.70270  0.99810  0.62130  Biso   1.000  C
  H13      1.0000 0.64940  0.98360  0.62280  Biso   1.000  H
  C24      1.0000 0.73150  0.01460  0.66470  Biso   1.000  C
  C25      1.0000 0.80990  0.03520  0.65900  Biso   1.000  C
  H14      1.0000 0.83070  0.04730  0.68620  Biso   1.000  H
  C26      1.0000 0.86090  0.03920  0.61550  Biso   1.000  C
  H15      1.0000 0.91680  0.05010  0.61430  Biso   1.000  H
  C27      1.0000 0.67360  0.01500  0.71120  Biso   1.000  C
  C28      1.0000 0.04820  0.58750  0.95020  Biso   1.000  C
  C29      1.0000 0.96780  0.61340  0.95630  Biso   1.000  C
  H16      1.0000 0.94510  0.62920  0.92960  Biso   1.000  H
  C30      1.0000 0.92420  0.61520  0.00080  Biso   1.000  C
  C31      1.0000 0.95990  0.59040  0.04020  Biso   1.000  C
  H17      1.0000 0.92880  0.59070  0.07050  Biso   1.000  H
  C32      1.0000 0.03610  0.56640  0.03690  Biso   1.000  C
  C33      1.0000 0.08050  0.56360  0.98980  Biso   1.000  C
  H18      1.0000 0.13190  0.54530  0.98580  Biso   1.000  H
  C34      1.0000 0.09370  0.58680  0.89980  Biso   1.000  C
  C35      1.0000 0.12850  0.53760  0.88540  Biso   1.000  C
  H19      1.0000 0.11950  0.50830  0.90510  Biso   1.000  H
  C36      1.0000 0.17640  0.53720  0.84000  Biso   1.000  C
  H20      1.0000 0.19840  0.50660  0.82870  Biso   1.000  H
  C37      1.0000 0.19180  0.57980  0.81200  Biso   1.000  C
  C38      1.0000 0.15560  0.62440  0.82670  Biso   1.000  C
  H21      1.0000 0.16360  0.65340  0.80660  Biso   1.000  H
  C39      1.0000 0.10580  0.62750  0.87220  Biso   1.000  C
  H22      1.0000 0.08220  0.65830  0.88210  Biso   1.000  H
  C40      1.0000 0.24450  0.57580  0.76180  Biso   1.000  C
  C41      1.0000 0.83390  0.63640  0.00640  Biso   1.000  C
  C42      1.0000 0.77240  0.62730  0.97770  Biso   1.000  C
  H23      1.0000 0.78500  0.60420  0.95370  Biso   1.000  H
  C43      1.0000 0.69420  0.64940  0.98140  Biso   1.000  C
  H24      1.0000 0.65880  0.64690  0.95690  Biso   1.000  H
  C44      1.0000 0.66540  0.67720  0.02390  Biso   1.000  C
  C45      1.0000 0.72930  0.68660  0.05130  Biso   1.000  C
  H25      1.0000 0.71560  0.70910  0.07560  Biso   1.000  H
  C46      1.0000 0.81110  0.66750  0.04780  Biso   1.000  C
  H26      1.0000 0.84930  0.67380  0.07010  Biso   1.000  H
  C47      1.0000 0.57800  0.69860  0.02770  Biso   1.000  C
  C48      1.0000 0.07500  0.54220  0.07770  Biso   1.000  C
  C49      1.0000 0.06300  0.56390  0.12270  Biso   1.000  C
  H27      1.0000 0.02930  0.59310  0.12640  Biso   1.000  H
  C50      1.0000 0.10110  0.54200  0.16210  Biso   1.000  C
  H28      1.0000 0.09040  0.55580  0.19230  Biso   1.000  H
  C51      1.0000 0.15210  0.50190  0.15700  Biso   1.000  C
  C52      1.0000 0.16570  0.47850  0.11440  Biso   1.000  C
  H29      1.0000 0.20020  0.44940  0.11210  Biso   1.000  H
  C53      1.0000 0.12700  0.49890  0.07340  Biso   1.000  C
  H30      1.0000 0.13620  0.48340  0.04390  Biso   1.000  H
  C54      1.0000 0.20200  0.47870  0.19670  Biso   1.000  C
  O1       1.0000 0.63830  0.45130  0.35330  Biso   1.000  O
  O2       1.0000 0.39160  0.46140  0.48620  Biso   1.000  O
  O3       1.0000 0.46030  0.30100  0.38890  Biso   1.000  O
  O4       1.0000 0.35500  0.54690  0.40690  Biso   1.000  O
  O5       1.0000 0.58280  0.33890  0.34060  Biso   1.000  O
  O6       1.0000 0.34930  0.36100  0.47150  Biso   1.000  O
  O7       1.0000 0.29160  0.52840  0.33170  Biso   1.000  O
  O8       1.0000 0.55660  0.42840  0.26240  Biso   1.000  O
  O9       1.0000 0.27030  0.33850  0.37890  Biso   1.000  O
  O10      1.0000 0.55730  0.42820  0.49040  Biso   1.000  O
  O11      1.0000 0.24000  0.41740  0.30820  Biso   1.000  O
  O12      1.0000 0.64480  0.37460  0.41790  Biso   1.000  O
  O13      1.0000 0.59750  0.52100  0.28420  Biso   1.000  O
  O14      1.0000 0.54270  0.50690  0.42550  Biso   1.000  O
  O15      1.0000 0.33690  0.36920  0.24250  Biso   1.000  O
  O16      1.0000 0.42850  0.38020  0.55540  Biso   1.000  O
  O17      1.0000 0.24000  0.49260  0.46270  Biso   1.000  O
  O18      1.0000 0.19060  0.39370  0.44980  Biso   1.000  O
  O19      1.0000 0.50280  0.57380  0.35690  Biso   1.000  O
  O20      1.0000 0.43130  0.55380  0.27510  Biso   1.000  O
  O21      1.0000 0.38890  0.46420  0.24860  Biso   1.000  O
  O22      1.0000 0.50880  0.33080  0.47230  Biso   1.000  O
  O23      1.0000 0.17080  0.47220  0.37950  Biso   1.000  O
  O24      1.0000 0.50960  0.33590  0.25710  Biso   1.000  O
  O25      1.0000 0.37220  0.29340  0.31270  Biso   1.000  O
  O26      1.0000 0.28910  0.24780  0.44400  Biso   1.000  O
  O27      1.0000 0.18060  0.29610  0.47670  Biso   1.000  O
  O28      1.0000 0.26320  0.53330  0.74880  Biso   1.000  O
  O29      1.0000 0.26630  0.61730  0.74040  Biso   1.000  O
  O30      1.0000 0.20250  0.50820  0.23370  Biso   1.000  O
  O31      1.0000 0.23890  0.43680  0.19570  Biso   1.000  O
  O32      1.0000 0.49690  0.01410  0.07320  Biso   1.000  O
  O33      1.0000 0.50530  0.93970  0.24480  Biso   1.000  O
  O34      1.0000 0.41330  0.94560  0.02840  Biso   1.000  O
  O35      1.0000 0.58610  0.93910  0.00800  Biso   1.000  O
  O36      1.0000 0.69930  0.00780  0.06470  Biso   1.000  O
  O37      1.0000 0.50580  0.83960  0.26010  Biso   1.000  O
  O38      1.0000 0.40100  0.86280  0.19080  Biso   1.000  O
  O39      1.0000 0.68630  0.93350  0.23190  Biso   1.000  O
  O40      1.0000 0.67840  0.79300  0.11620  Biso   1.000  O
  O41      1.0000 0.68470  0.02760  0.19690  Biso   1.000  O
  O42      1.0000 0.50710  0.03470  0.21130  Biso   1.000  O
  O43      1.0000 0.47560  0.80070  0.13700  Biso   1.000  O
  O44      1.0000 0.33190  0.91350  0.11740  Biso   1.000  O
  O45      1.0000 0.41290  0.84400  0.05790  Biso   1.000  O
  O46      1.0000 0.75500  0.83080  0.03040  Biso   1.000  O
  O47      1.0000 0.84560  0.89600  0.08190  Biso   1.000  O
  O48      1.0000 0.57990  0.83530  0.03480  Biso   1.000  O
  O49      1.0000 0.40750  0.98070  0.16130  Biso   1.000  O
  O50      1.0000 0.75320  0.93340  0.00710  Biso   1.000  O
  O51      1.0000 0.77800  0.85640  0.16650  Biso   1.000  O
  O52      1.0000 0.58740  0.77260  0.20130  Biso   1.000  O
  O53      1.0000 0.59700  0.06570  0.12440  Biso   1.000  O
  O54      1.0000 0.78130  0.97470  0.12990  Biso   1.000  O
  O55      1.0000 0.68030  0.83440  0.25260  Biso   1.000  O
  O56      1.0000 0.68800  0.05150  0.73580  Biso   1.000  O
  O57      1.0000 0.62180  0.98270  0.72060  Biso   1.000  O
  O58      1.0000 0.55200  0.71950  0.06750  Biso   1.000  O
  O59      1.0000 0.51660  0.67420  0.01060  Biso   1.000  O
  O60      1.0000 0.82410  0.87020  0.27540  Biso   1.000  O
  O61      1.0000 0.87210  0.93800  0.23030  Biso   1.000  O
  O62      1.0000 0.53180  0.69650  0.99160  Biso   1.000  O
  O63      1.0000 0.47300  0.37670  0.55140  Biso   1.000  O
  Mo25     1.0000 0.72036  0.65429  0.69143  Biso   1.000  Mo
  Mo26     1.0000 0.80622  0.60237  0.62449  Biso   1.000  Mo
  Mo27     1.0000 0.43188  0.67482  0.58677  Biso   1.000  Mo
  Mo28     1.0000 0.50003  0.50631  0.74831  Biso   1.000  Mo
  Mo29     1.0000 0.54209  0.59771  0.76237  Biso   1.000  Mo
  Mo30     1.0000 0.71343  0.57548  0.51571  Biso   1.000  Mo
  Mo31     1.0000 0.51481  0.69777  0.68272  Biso   1.000  Mo
  Mo32     1.0000 0.60374  0.43177  0.66286  Biso   1.000  Mo
  Mo33     1.0000 0.76200  0.48124  0.59887  Biso   1.000  Mo
  Mo34     1.0000 0.55686  0.60609  0.50459  Biso   1.000  Mo
  Mo35     1.0000 0.40617  0.47940  0.63981  Biso   1.000  Mo
  Mo36     1.0000 0.38206  0.55191  0.57466  Biso   1.000  Mo
  Mo37     1.0000 0.21768  0.16783  0.89823  Biso   1.000  Mo
  Mo38     1.0000 0.29912  0.19881  0.81606  Biso   1.000  Mo
  Mo39     1.0000 0.51715  0.19434  0.79168  Biso   1.000  Mo
  Mo40     1.0000 0.20527  0.04451  0.93934  Biso   1.000  Mo
  Mo41     1.0000 0.40585  0.10868  0.73654  Biso   1.000  Mo
  Mo42     1.0000 0.33488  0.11870  0.99662  Biso   1.000  Mo
  Mo43     1.0000 0.60515  0.02458  0.90693  Biso   1.000  Mo
  Mo44     1.0000 0.40130  0.01300  0.76264  Biso   1.000  Mo
  Mo45     1.0000 0.29950  0.96466  0.86936  Biso   1.000  Mo
  Mo46     1.0000 0.51862  0.96362  0.86047  Biso   1.000  Mo
  Mo47     1.0000 0.50193  0.11332  0.98376  Biso   1.000  Mo
  Mo48     1.0000 0.62112  0.15175  0.87795  Biso   1.000  Mo
  Zn9      1.0000 0.65199  0.69292  0.57553  Biso   1.000  Zn
  Zn10     1.0000 0.72374  0.51680  0.71836  Biso   1.000  Zn
  Zn11     1.0000 0.36208  0.60240  0.69236  Biso   1.000  Zn
  Zn12     1.0000 0.57318  0.47173  0.54270  Biso   1.000  Zn
  Zn13     1.0000 0.39855  0.99141  0.97315  Biso   1.000  Zn
  Zn14     1.0000 0.60130  0.07086  0.78461  Biso   1.000  Zn
  Zn15     1.0000 0.43154  0.21585  0.91074  Biso   1.000  Zn
  Zn16     1.0000 0.21108  0.07220  0.81448  Biso   1.000  Zn
  C55      1.0000 0.01570  0.91240  0.52360  Biso   1.000  C
  C56      1.0000 0.02480  0.94290  0.56160  Biso   1.000  C
  H31      1.0000 0.99060  0.93800  0.59070  Biso   1.000  H
  C57      1.0000 0.08460  0.98100  0.55690  Biso   1.000  C
  C58      1.0000 0.12740  0.99290  0.51590  Biso   1.000  C
  H32      1.0000 0.16030  0.02160  0.51360  Biso   1.000  H
  C59      1.0000 0.12660  0.96430  0.47450  Biso   1.000  C
  C60      1.0000 0.06600  0.92330  0.47950  Biso   1.000  C
  H33      1.0000 0.06060  0.90390  0.45310  Biso   1.000  H
  C61      1.0000 0.95710  0.86900  0.52480  Biso   1.000  C
  C62      1.0000 0.97990  0.82570  0.50420  Biso   1.000  C
  H34      1.0000 0.03350  0.82220  0.48710  Biso   1.000  H
  C63      1.0000 0.92400  0.78590  0.50830  Biso   1.000  C
  H35      1.0000 0.94160  0.75540  0.49490  Biso   1.000  H
  C64      1.0000 0.84560  0.79030  0.53100  Biso   1.000  C
  C65      1.0000 0.82040  0.83600  0.55420  Biso   1.000  C
  H36      1.0000 0.76750  0.83820  0.57230  Biso   1.000  H
  C66      1.0000 0.87010  0.87430  0.55030  Biso   1.000  C
  H37      1.0000 0.85150  0.90480  0.56330  Biso   1.000  H
  C67      1.0000 0.78980  0.74360  0.53690  Biso   1.000  C
  C68      1.0000 0.08840  0.01130  0.60100  Biso   1.000  C
  C69      1.0000 0.11290  0.06000  0.59980  Biso   1.000  C
  H38      1.0000 0.11950  0.07700  0.56960  Biso   1.000  H
  C70      1.0000 0.12850  0.08620  0.63830  Biso   1.000  C
  H39      1.0000 0.14600  0.11950  0.63430  Biso   1.000  H
  C71      1.0000 0.11720  0.06060  0.68630  Biso   1.000  C
  C72      1.0000 0.09260  0.01180  0.69020  Biso   1.000  C
  H40      1.0000 0.08690  0.99420  0.72020  Biso   1.000  H
  C73      1.0000 0.07570  0.98810  0.64760  Biso   1.000  C
  H41      1.0000 0.05510  0.95540  0.65070  Biso   1.000  H
  C74      1.0000 0.13970  0.08690  0.72790  Biso   1.000  C
  C75      1.0000 0.17510  0.97390  0.42900  Biso   1.000  C
  C76      1.0000 0.24940  0.99710  0.42230  Biso   1.000  C
  H42      1.0000 0.26980  0.01080  0.44890  Biso   1.000  H
  C77      1.0000 0.29730  0.00190  0.37870  Biso   1.000  C
  H43      1.0000 0.35060  0.01640  0.37720  Biso   1.000  H
  C78      1.0000 0.26850  0.98540  0.33530  Biso   1.000  C
  C79      1.0000 0.19010  0.96480  0.34100  Biso   1.000  C
  H44      1.0000 0.16930  0.95270  0.31380  Biso   1.000  H
  C80      1.0000 0.13910  0.96080  0.38450  Biso   1.000  C
  H45      1.0000 0.08320  0.94990  0.38570  Biso   1.000  H
  C81      1.0000 0.32640  0.98500  0.28880  Biso   1.000  C
  C82      1.0000 0.95180  0.41250  0.04980  Biso   1.000  C
  C83      1.0000 0.03220  0.38660  0.04370  Biso   1.000  C
  H46      1.0000 0.05490  0.37080  0.07040  Biso   1.000  H
  C84      1.0000 0.07580  0.38480  0.99920  Biso   1.000  C
  C85      1.0000 0.04010  0.40960  0.95980  Biso   1.000  C
  H47      1.0000 0.07120  0.40930  0.92950  Biso   1.000  H
  C86      1.0000 0.96390  0.43360  0.96310  Biso   1.000  C
  C87      1.0000 0.91950  0.43640  0.01020  Biso   1.000  C
  H48      1.0000 0.86810  0.45470  0.01420  Biso   1.000  H
  C88      1.0000 0.90630  0.41320  0.10020  Biso   1.000  C
  C89      1.0000 0.87150  0.46240  0.11460  Biso   1.000  C
  H49      1.0000 0.88050  0.49170  0.09490  Biso   1.000  H
  C90      1.0000 0.82360  0.46280  0.16000  Biso   1.000  C
  H50      1.0000 0.80160  0.49340  0.17130  Biso   1.000  H
  C91      1.0000 0.80820  0.42020  0.18800  Biso   1.000  C
  C92      1.0000 0.84440  0.37560  0.17330  Biso   1.000  C
  H51      1.0000 0.83640  0.34660  0.19340  Biso   1.000  H
  C93      1.0000 0.89420  0.37250  0.12780  Biso   1.000  C
  H52      1.0000 0.91780  0.34170  0.11790  Biso   1.000  H
  C94      1.0000 0.75550  0.42420  0.23820  Biso   1.000  C
  C95      1.0000 0.16610  0.36360  0.99360  Biso   1.000  C
  C96      1.0000 0.22760  0.37270  0.02230  Biso   1.000  C
  H53      1.0000 0.21500  0.39580  0.04630  Biso   1.000  H
  C97      1.0000 0.30580  0.35060  0.01860  Biso   1.000  C
  H54      1.0000 0.34120  0.35310  0.04310  Biso   1.000  H
  C98      1.0000 0.33460  0.32280  0.97610  Biso   1.000  C
  C99      1.0000 0.27070  0.31340  0.94870  Biso   1.000  C
  H55      1.0000 0.28440  0.29090  0.92440  Biso   1.000  H
  C100     1.0000 0.18890  0.33250  0.95220  Biso   1.000  C
  H56      1.0000 0.15070  0.32620  0.92990  Biso   1.000  H
  C101     1.0000 0.42200  0.30140  0.97230  Biso   1.000  C
  C102     1.0000 0.92500  0.45780  0.92230  Biso   1.000  C
  C103     1.0000 0.93700  0.43610  0.87730  Biso   1.000  C
  H57      1.0000 0.97070  0.40690  0.87360  Biso   1.000  H
  C104     1.0000 0.89890  0.45800  0.83790  Biso   1.000  C
  H58      1.0000 0.90960  0.44420  0.80770  Biso   1.000  H
  C105     1.0000 0.84790  0.49810  0.84300  Biso   1.000  C
  C106     1.0000 0.83430  0.52150  0.88560  Biso   1.000  C
  H59      1.0000 0.79980  0.55060  0.88790  Biso   1.000  H
  C107     1.0000 0.87300  0.50110  0.92660  Biso   1.000  C
  H60      1.0000 0.86380  0.51660  0.95610  Biso   1.000  H
  C108     1.0000 0.79800  0.52130  0.80330  Biso   1.000  C
  O64      1.0000 0.36170  0.54870  0.64670  Biso   1.000  O
  O65      1.0000 0.60840  0.53860  0.51380  Biso   1.000  O
  O66      1.0000 0.53970  0.69900  0.61110  Biso   1.000  O
  O67      1.0000 0.64500  0.45310  0.59310  Biso   1.000  O
  O68      1.0000 0.41720  0.66110  0.65940  Biso   1.000  O
  O69      1.0000 0.65070  0.63900  0.52850  Biso   1.000  O
  O70      1.0000 0.70840  0.47160  0.66830  Biso   1.000  O
  O71      1.0000 0.44340  0.57160  0.73760  Biso   1.000  O
  O72      1.0000 0.72970  0.66150  0.62110  Biso   1.000  O
  O73      1.0000 0.44270  0.57180  0.50960  Biso   1.000  O
  O74      1.0000 0.76000  0.58260  0.69180  Biso   1.000  O
  O75      1.0000 0.35520  0.62540  0.58210  Biso   1.000  O
  O76      1.0000 0.40250  0.47900  0.71580  Biso   1.000  O
  O77      1.0000 0.45730  0.49310  0.57450  Biso   1.000  O
  O78      1.0000 0.66310  0.63080  0.75750  Biso   1.000  O
  O79      1.0000 0.57150  0.61980  0.44460  Biso   1.000  O
  O80      1.0000 0.76000  0.50740  0.53730  Biso   1.000  O
  O81      1.0000 0.80940  0.60630  0.55020  Biso   1.000  O
  O82      1.0000 0.49720  0.42620  0.64310  Biso   1.000  O
  O83      1.0000 0.56870  0.44620  0.72490  Biso   1.000  O
  O84      1.0000 0.61110  0.53580  0.75140  Biso   1.000  O
  O85      1.0000 0.49120  0.66920  0.52770  Biso   1.000  O
  O86      1.0000 0.82920  0.52780  0.62050  Biso   1.000  O
  O87      1.0000 0.49040  0.66410  0.74290  Biso   1.000  O
  O88      1.0000 0.62780  0.70660  0.68730  Biso   1.000  O
  O89      1.0000 0.71090  0.75220  0.55600  Biso   1.000  O
  O90      1.0000 0.81940  0.70390  0.52330  Biso   1.000  O
  O91      1.0000 0.73680  0.46670  0.25120  Biso   1.000  O
  O92      1.0000 0.73370  0.38270  0.25960  Biso   1.000  O
  O93      1.0000 0.79750  0.49180  0.76630  Biso   1.000  O
  O94      1.0000 0.76110  0.56320  0.80430  Biso   1.000  O
  O95      1.0000 0.50310  0.98590  0.92680  Biso   1.000  O
  O96      1.0000 0.49470  0.06030  0.75520  Biso   1.000  O
  O97      1.0000 0.58670  0.05440  0.97160  Biso   1.000  O
  O98      1.0000 0.41390  0.06090  0.99200  Biso   1.000  O
  O99      1.0000 0.30070  0.99220  0.93530  Biso   1.000  O
  O100     1.0000 0.49420  0.16040  0.73990  Biso   1.000  O
  O101     1.0000 0.59900  0.13720  0.80920  Biso   1.000  O
  O102     1.0000 0.31370  0.06650  0.76810  Biso   1.000  O
  O103     1.0000 0.32160  0.20700  0.88380  Biso   1.000  O
  O104     1.0000 0.31530  0.97240  0.80310  Biso   1.000  O
  O105     1.0000 0.49290  0.96530  0.78870  Biso   1.000  O
  O106     1.0000 0.52440  0.19930  0.86300  Biso   1.000  O
  O107     1.0000 0.66810  0.08650  0.88260  Biso   1.000  O
  O108     1.0000 0.58710  0.15600  0.94210  Biso   1.000  O
  O109     1.0000 0.24500  0.16920  0.96960  Biso   1.000  O
  O110     1.0000 0.15440  0.10400  0.91810  Biso   1.000  O
  O111     1.0000 0.42010  0.16470  0.96520  Biso   1.000  O
  O112     1.0000 0.59250  0.01930  0.83870  Biso   1.000  O
  O113     1.0000 0.24680  0.06660  0.99290  Biso   1.000  O
  O114     1.0000 0.22200  0.14360  0.83350  Biso   1.000  O
  O115     1.0000 0.41260  0.22740  0.79870  Biso   1.000  O
  O116     1.0000 0.40300  0.93430  0.87560  Biso   1.000  O
  O117     1.0000 0.21870  0.02530  0.87010  Biso   1.000  O
  O118     1.0000 0.31970  0.16560  0.74740  Biso   1.000  O
  O119     1.0000 0.31200  0.94850  0.26420  Biso   1.000  O
  O120     1.0000 0.37820  0.01730  0.27940  Biso   1.000  O
  O121     1.0000 0.44800  0.28050  0.93250  Biso   1.000  O
  O122     1.0000 0.48340  0.32580  0.98940  Biso   1.000  O
  O123     1.0000 0.17590  0.12980  0.72460  Biso   1.000  O
  O124     1.0000 0.12790  0.06200  0.76970  Biso   1.000  O
  O125     1.0000 0.46820  0.30350  0.00840  Biso   1.000  O
  O126     1.0000 0.52700  0.62330  0.44860  Biso   1.000  O
