data_image0
_cell_length_a       12.4391
_cell_length_b       20.6318
_cell_length_c       17.7916
_cell_angle_alpha    90
_cell_angle_beta     91.098
_cell_angle_gamma    90

_symmetry_space_group_name_H-M    "P 1"
_symmetry_int_tables_number       1

loop_
  _symmetry_equiv_pos_as_xyz
  'x, y, z'

loop_
  _atom_site_label
  _atom_site_occupancy
  _atom_site_fract_x
  _atom_site_fract_y
  _atom_site_fract_z
  _atom_site_thermal_displace_type
  _atom_site_B_iso_or_equiv
  _atom_site_type_symbol
  Zn1      1.0000 0.33340  0.60902  0.22000  Biso   1.000  Zn
  Zn2      1.0000 0.05212  0.62768  0.22160  Biso   1.000  Zn
  Zn3      1.0000 0.80041  0.59572  0.24602  Biso   1.000  Zn
  O1       1.0000 0.48220  0.58550  0.19470  Biso   1.000  O
  O2       1.0000 0.35110  0.66110  0.31160  Biso   1.000  O
  O3       1.0000 0.17860  0.66450  0.28810  Biso   1.000  O
  O4       1.0000 0.29250  0.84650  0.62940  Biso   1.000  O
  O5       1.0000 0.71720  0.02270  0.26490  Biso   1.000  O
  O6       1.0000 0.89000  0.03692  0.29530  Biso   1.000  O
  O7       1.0000 0.11380  0.83130  0.62690  Biso   1.000  O
  O8       1.0000 0.96690  0.70930  0.24000  Biso   1.000  O
  O9       1.0000 0.90420  0.59010  0.16320  Biso   1.000  O
  O10      1.0000 0.99560  0.58870  0.32400  Biso   1.000  O
  O11      1.0000 0.83080  0.55200  0.34090  Biso   1.000  O
  O12      1.0000 0.79270  0.69000  0.26260  Biso   1.000  O
  O13      1.0000 0.65550  0.57480  0.20920  Biso   1.000  O
  O14      1.0000 0.84390  0.49000  0.17220  Biso   1.000  O
  C1       1.0000 0.25620  0.67830  0.32780  Biso   1.000  C
  C2       1.0000 0.24240  0.71780  0.39740  Biso   1.000  C
  C3       1.0000 0.33190  0.73880  0.43920  Biso   1.000  C
  H1       1.0000 0.40210  0.72840  0.42290  Biso   1.000  H
  C4       1.0000 0.14080  0.73270  0.42130  Biso   1.000  C
  H2       1.0000 0.07940  0.71940  0.39270  Biso   1.000  H
  C5       1.0000 0.81230  0.00300  0.27830  Biso   1.000  C
  C6       1.0000 0.20450  0.82560  0.60110  Biso   1.000  C
  C7       1.0000 0.21760  0.78890  0.52870  Biso   1.000  C
  C8       1.0000 0.31940  0.77460  0.50370  Biso   1.000  C
  H3       1.0000 0.38090  0.78940  0.53110  Biso   1.000  H
  C9       1.0000 0.12840  0.76740  0.48790  Biso   1.000  C
  H4       1.0000 0.05830  0.77650  0.50540  Biso   1.000  H
  C10      1.0000 0.87330  0.72670  0.25470  Biso   1.000  C
  C11      1.0000 0.85920  0.79710  0.27240  Biso   1.000  C
  C12      1.0000 0.94520  0.83940  0.26430  Biso   1.000  C
  H5       1.0000 0.01510  0.82280  0.25560  Biso   1.000  H
  C13      1.0000 0.92900  0.90590  0.26910  Biso   1.000  C
  H6       1.0000 0.98780  0.93480  0.26360  Biso   1.000  H
  C14      1.0000 0.82670  0.93010  0.28190  Biso   1.000  C
  C15      1.0000 0.74070  0.88790  0.29000  Biso   1.000  C
  H7       1.0000 0.67080  0.90440  0.29870  Biso   1.000  H
  C16      1.0000 0.75690  0.82140  0.28520  Biso   1.000  C
  H8       1.0000 0.69810  0.79250  0.29070  Biso   1.000  H
  C17      1.0000 0.92810  0.55830  0.36030  Biso   1.000  C
  C18      1.0000 0.96480  0.52750  0.43270  Biso   1.000  C
  C19      1.0000 0.89270  0.49530  0.47710  Biso   1.000  C
  H9       1.0000 0.81930  0.49190  0.46200  Biso   1.000  H
  C20      1.0000 0.07070  0.53230  0.45510  Biso   1.000  C
  H10      1.0000 0.11990  0.55460  0.42420  Biso   1.000  H
  C21      1.0000 0.89590  0.53070  0.13920  Biso   1.000  C
  C22      1.0000 0.95020  0.51540  0.06650  Biso   1.000  C
  C23      1.0000 0.99250  0.56400  0.02330  Biso   1.000  C
  H11      1.0000 0.98760  0.60780  0.03940  Biso   1.000  H
  C24      1.0000 0.95750  0.45060  0.04400  Biso   1.000  C
  H12      1.0000 0.92870  0.41700  0.07410  Biso   1.000  H
  C25      1.0000 0.56920  0.59930  0.22400  Biso   1.000  C
  H13      1.0000 0.56940  0.63200  0.26170  Biso   1.000  H
  C26      1.0000 0.85270  0.79810  0.25580  Biso   1.000  C
  C27      1.0000 0.93980  0.83700  0.27610  Biso   1.000  C
  H14      1.0000 0.00800  0.81790  0.28640  Biso   1.000  H
  C28      1.0000 0.92720  0.90380  0.28120  Biso   1.000  C
  H15      1.0000 0.98670  0.93030  0.29500  Biso   1.000  H
  C29      1.0000 0.82740  0.93170  0.26600  Biso   1.000  C
  C30      1.0000 0.74030  0.89280  0.24580  Biso   1.000  C
  H16      1.0000 0.67210  0.91190  0.23540  Biso   1.000  H
  C31      1.0000 0.75290  0.82600  0.24070  Biso   1.000  C
  H17      1.0000 0.69340  0.79950  0.22690  Biso   1.000  H
  Zn4      1.0000 0.66660  0.10902  0.28000  Biso   1.000  Zn
  Zn5      1.0000 0.94788  0.12768  0.27840  Biso   1.000  Zn
  Zn6      1.0000 0.19959  0.09572  0.25398  Biso   1.000  Zn
  O15      1.0000 0.51780  0.08550  0.30530  Biso   1.000  O
  O16      1.0000 0.64890  0.16110  0.18840  Biso   1.000  O
  O17      1.0000 0.82140  0.16450  0.21190  Biso   1.000  O
  O18      1.0000 0.70750  0.34650  0.87060  Biso   1.000  O
  O19      1.0000 0.28280  0.52270  0.23510  Biso   1.000  O
  O20      1.0000 0.11000  0.53692  0.20470  Biso   1.000  O
  O21      1.0000 0.88620  0.33130  0.87310  Biso   1.000  O
  O22      1.0000 0.03310  0.20930  0.26000  Biso   1.000  O
  O23      1.0000 0.09580  0.09010  0.33680  Biso   1.000  O
  O24      1.0000 0.00440  0.08870  0.17600  Biso   1.000  O
  O25      1.0000 0.16920  0.05200  0.15910  Biso   1.000  O
  O26      1.0000 0.20730  0.19000  0.23740  Biso   1.000  O
  O27      1.0000 0.34450  0.07480  0.29080  Biso   1.000  O
  O28      1.0000 0.15610  0.99000  0.32780  Biso   1.000  O
  C32      1.0000 0.74380  0.17830  0.17220  Biso   1.000  C
  C33      1.0000 0.75760  0.21780  0.10260  Biso   1.000  C
  C34      1.0000 0.66810  0.23880  0.06080  Biso   1.000  C
  H18      1.0000 0.59790  0.22840  0.07710  Biso   1.000  H
  C35      1.0000 0.85920  0.23270  0.07870  Biso   1.000  C
  H19      1.0000 0.92060  0.21940  0.10730  Biso   1.000  H
  C36      1.0000 0.18770  0.50300  0.22170  Biso   1.000  C
  C37      1.0000 0.79550  0.32560  0.89890  Biso   1.000  C
  C38      1.0000 0.78240  0.28890  0.97130  Biso   1.000  C
  C39      1.0000 0.68060  0.27460  0.99630  Biso   1.000  C
  H20      1.0000 0.61910  0.28940  0.96890  Biso   1.000  H
  C40      1.0000 0.87160  0.26740  0.01210  Biso   1.000  C
  H21      1.0000 0.94170  0.27650  0.99460  Biso   1.000  H
  C41      1.0000 0.12670  0.22670  0.24530  Biso   1.000  C
  C42      1.0000 0.14080  0.29710  0.22760  Biso   1.000  C
  C43      1.0000 0.05480  0.33940  0.23570  Biso   1.000  C
  H22      1.0000 0.98490  0.32280  0.24440  Biso   1.000  H
  C44      1.0000 0.07100  0.40590  0.23090  Biso   1.000  C
  H23      1.0000 0.01220  0.43480  0.23640  Biso   1.000  H
  C45      1.0000 0.17330  0.43010  0.21810  Biso   1.000  C
  C46      1.0000 0.25930  0.38790  0.21000  Biso   1.000  C
  H24      1.0000 0.32920  0.40440  0.20130  Biso   1.000  H
  C47      1.0000 0.24310  0.32140  0.21480  Biso   1.000  C
  H25      1.0000 0.30190  0.29250  0.20930  Biso   1.000  H
  C48      1.0000 0.07190  0.05830  0.13970  Biso   1.000  C
  C49      1.0000 0.03520  0.02750  0.06730  Biso   1.000  C
  C50      1.0000 0.10730  0.99530  0.02290  Biso   1.000  C
  H26      1.0000 0.18070  0.99190  0.03800  Biso   1.000  H
  C51      1.0000 0.92930  0.03230  0.04490  Biso   1.000  C
  H27      1.0000 0.88010  0.05460  0.07580  Biso   1.000  H
  C52      1.0000 0.10410  0.03070  0.36080  Biso   1.000  C
  C53      1.0000 0.04980  0.01540  0.43350  Biso   1.000  C
  C54      1.0000 0.00750  0.06400  0.47670  Biso   1.000  C
  H28      1.0000 0.01240  0.10780  0.46060  Biso   1.000  H
  C55      1.0000 0.04250  0.95060  0.45600  Biso   1.000  C
  H29      1.0000 0.07130  0.91700  0.42590  Biso   1.000  H
  C56      1.0000 0.43080  0.09930  0.27600  Biso   1.000  C
  H30      1.0000 0.43060  0.13200  0.23830  Biso   1.000  H
  C57      1.0000 0.14730  0.29810  0.24420  Biso   1.000  C
  C58      1.0000 0.06020  0.33700  0.22390  Biso   1.000  C
  H31      1.0000 0.99200  0.31790  0.21360  Biso   1.000  H
  C59      1.0000 0.07280  0.40380  0.21880  Biso   1.000  C
  H32      1.0000 0.01330  0.43030  0.20500  Biso   1.000  H
  C60      1.0000 0.17260  0.43170  0.23400  Biso   1.000  C
  C61      1.0000 0.25970  0.39280  0.25420  Biso   1.000  C
  H33      1.0000 0.32790  0.41190  0.26460  Biso   1.000  H
  C62      1.0000 0.24710  0.32600  0.25930  Biso   1.000  C
  H34      1.0000 0.30660  0.29950  0.27310  Biso   1.000  H
  Zn7      1.0000 0.66660  0.39098  0.78000  Biso   1.000  Zn
  Zn8      1.0000 0.94788  0.37232  0.77840  Biso   1.000  Zn
  Zn9      1.0000 0.19959  0.40428  0.75398  Biso   1.000  Zn
  O29      1.0000 0.51780  0.41450  0.80530  Biso   1.000  O
  O30      1.0000 0.64890  0.33890  0.68840  Biso   1.000  O
  O31      1.0000 0.82140  0.33550  0.71190  Biso   1.000  O
  O32      1.0000 0.70750  0.15350  0.37060  Biso   1.000  O
  O33      1.0000 0.28280  0.97730  0.73510  Biso   1.000  O
  O34      1.0000 0.11000  0.96308  0.70470  Biso   1.000  O
  O35      1.0000 0.88620  0.16870  0.37310  Biso   1.000  O
  O36      1.0000 0.03310  0.29070  0.76000  Biso   1.000  O
  O37      1.0000 0.09580  0.40990  0.83680  Biso   1.000  O
  O38      1.0000 0.00440  0.41130  0.67600  Biso   1.000  O
  O39      1.0000 0.16920  0.44800  0.65910  Biso   1.000  O
  O40      1.0000 0.20730  0.31000  0.73740  Biso   1.000  O
  O41      1.0000 0.34450  0.42520  0.79080  Biso   1.000  O
  O42      1.0000 0.15610  0.51000  0.82780  Biso   1.000  O
  C63      1.0000 0.74380  0.32170  0.67220  Biso   1.000  C
  C64      1.0000 0.75760  0.28220  0.60260  Biso   1.000  C
  C65      1.0000 0.66810  0.26120  0.56080  Biso   1.000  C
  H35      1.0000 0.59790  0.27160  0.57710  Biso   1.000  H
  C66      1.0000 0.85920  0.26730  0.57870  Biso   1.000  C
  H36      1.0000 0.92060  0.28060  0.60730  Biso   1.000  H
  C67      1.0000 0.18770  0.99700  0.72170  Biso   1.000  C
  C68      1.0000 0.79550  0.17440  0.39890  Biso   1.000  C
  C69      1.0000 0.78240  0.21110  0.47130  Biso   1.000  C
  C70      1.0000 0.68060  0.22540  0.49630  Biso   1.000  C
  H37      1.0000 0.61910  0.21060  0.46890  Biso   1.000  H
  C71      1.0000 0.87160  0.23260  0.51210  Biso   1.000  C
  H38      1.0000 0.94170  0.22350  0.49460  Biso   1.000  H
  C72      1.0000 0.12670  0.27330  0.74530  Biso   1.000  C
  C73      1.0000 0.14080  0.20290  0.72760  Biso   1.000  C
  C74      1.0000 0.05480  0.16060  0.73570  Biso   1.000  C
  H39      1.0000 0.98490  0.17720  0.74440  Biso   1.000  H
  C75      1.0000 0.07100  0.09410  0.73090  Biso   1.000  C
  H40      1.0000 0.01220  0.06520  0.73640  Biso   1.000  H
  C76      1.0000 0.17330  0.06990  0.71810  Biso   1.000  C
  C77      1.0000 0.25930  0.11210  0.71000  Biso   1.000  C
  H41      1.0000 0.32920  0.09560  0.70130  Biso   1.000  H
  C78      1.0000 0.24310  0.17860  0.71480  Biso   1.000  C
  H42      1.0000 0.30190  0.20750  0.70930  Biso   1.000  H
  C79      1.0000 0.07190  0.44170  0.63970  Biso   1.000  C
  C80      1.0000 0.03520  0.47250  0.56730  Biso   1.000  C
  C81      1.0000 0.10730  0.50470  0.52290  Biso   1.000  C
  H43      1.0000 0.18070  0.50810  0.53800  Biso   1.000  H
  C82      1.0000 0.92930  0.46770  0.54490  Biso   1.000  C
  H44      1.0000 0.88010  0.44540  0.57580  Biso   1.000  H
  C83      1.0000 0.10410  0.46930  0.86080  Biso   1.000  C
  C84      1.0000 0.04980  0.48460  0.93350  Biso   1.000  C
  C85      1.0000 0.00750  0.43600  0.97670  Biso   1.000  C
  H45      1.0000 0.01240  0.39220  0.96060  Biso   1.000  H
  C86      1.0000 0.04250  0.54940  0.95600  Biso   1.000  C
  H46      1.0000 0.07130  0.58300  0.92590  Biso   1.000  H
  C87      1.0000 0.43080  0.40070  0.77600  Biso   1.000  C
  H47      1.0000 0.43060  0.36800  0.73830  Biso   1.000  H
  C88      1.0000 0.14730  0.20190  0.74420  Biso   1.000  C
  C89      1.0000 0.06020  0.16300  0.72390  Biso   1.000  C
  H48      1.0000 0.99200  0.18210  0.71360  Biso   1.000  H
  C90      1.0000 0.07280  0.09620  0.71880  Biso   1.000  C
  H49      1.0000 0.01330  0.06970  0.70500  Biso   1.000  H
  C91      1.0000 0.17260  0.06830  0.73400  Biso   1.000  C
  C92      1.0000 0.25970  0.10720  0.75420  Biso   1.000  C
  H50      1.0000 0.32790  0.08810  0.76460  Biso   1.000  H
  C93      1.0000 0.24710  0.17400  0.75930  Biso   1.000  C
  H51      1.0000 0.30660  0.20050  0.77310  Biso   1.000  H
  Zn10     1.0000 0.33340  0.89098  0.72000  Biso   1.000  Zn
  Zn11     1.0000 0.05212  0.87232  0.72160  Biso   1.000  Zn
  Zn12     1.0000 0.80041  0.90428  0.74602  Biso   1.000  Zn
  O43      1.0000 0.48220  0.91450  0.69470  Biso   1.000  O
  O44      1.0000 0.35110  0.83890  0.81160  Biso   1.000  O
  O45      1.0000 0.17860  0.83550  0.78810  Biso   1.000  O
  O46      1.0000 0.29250  0.65350  0.12940  Biso   1.000  O
  O47      1.0000 0.71720  0.47730  0.76490  Biso   1.000  O
  O48      1.0000 0.89000  0.46308  0.79530  Biso   1.000  O
  O49      1.0000 0.11380  0.66870  0.12690  Biso   1.000  O
  O50      1.0000 0.96690  0.79070  0.74000  Biso   1.000  O
  O51      1.0000 0.90420  0.90990  0.66320  Biso   1.000  O
  O52      1.0000 0.99560  0.91130  0.82400  Biso   1.000  O
  O53      1.0000 0.83080  0.94800  0.84090  Biso   1.000  O
  O54      1.0000 0.79270  0.81000  0.76260  Biso   1.000  O
  O55      1.0000 0.65550  0.92520  0.70920  Biso   1.000  O
  O56      1.0000 0.84390  0.01000  0.67220  Biso   1.000  O
  C94      1.0000 0.25620  0.82170  0.82780  Biso   1.000  C
  C95      1.0000 0.24240  0.78220  0.89740  Biso   1.000  C
  C96      1.0000 0.33190  0.76120  0.93920  Biso   1.000  C
  H52      1.0000 0.40210  0.77160  0.92290  Biso   1.000  H
  C97      1.0000 0.14080  0.76730  0.92130  Biso   1.000  C
  H53      1.0000 0.07940  0.78060  0.89270  Biso   1.000  H
  C98      1.0000 0.81230  0.49700  0.77830  Biso   1.000  C
  C99      1.0000 0.20450  0.67440  0.10110  Biso   1.000  C
  C100     1.0000 0.21760  0.71110  0.02870  Biso   1.000  C
  C101     1.0000 0.31940  0.72540  0.00370  Biso   1.000  C
  H54      1.0000 0.38090  0.71060  0.03110  Biso   1.000  H
  C102     1.0000 0.12840  0.73260  0.98790  Biso   1.000  C
  H55      1.0000 0.05830  0.72350  0.00540  Biso   1.000  H
  C103     1.0000 0.87330  0.77330  0.75470  Biso   1.000  C
  C104     1.0000 0.85920  0.70290  0.77240  Biso   1.000  C
  C105     1.0000 0.94520  0.66060  0.76430  Biso   1.000  C
  H56      1.0000 0.01510  0.67720  0.75560  Biso   1.000  H
  C106     1.0000 0.92900  0.59410  0.76910  Biso   1.000  C
  H57      1.0000 0.98780  0.56520  0.76360  Biso   1.000  H
  C107     1.0000 0.82670  0.56990  0.78190  Biso   1.000  C
  C108     1.0000 0.74070  0.61210  0.79000  Biso   1.000  C
  H58      1.0000 0.67080  0.59560  0.79870  Biso   1.000  H
  C109     1.0000 0.75690  0.67860  0.78520  Biso   1.000  C
  H59      1.0000 0.69810  0.70750  0.79070  Biso   1.000  H
  C110     1.0000 0.92810  0.94170  0.86030  Biso   1.000  C
  C111     1.0000 0.96480  0.97250  0.93270  Biso   1.000  C
  C112     1.0000 0.89270  0.00470  0.97710  Biso   1.000  C
  H60      1.0000 0.81930  0.00810  0.96200  Biso   1.000  H
  C113     1.0000 0.07070  0.96770  0.95510  Biso   1.000  C
  H61      1.0000 0.11990  0.94540  0.92420  Biso   1.000  H
  C114     1.0000 0.89590  0.96930  0.63920  Biso   1.000  C
  C115     1.0000 0.95020  0.98460  0.56650  Biso   1.000  C
  C116     1.0000 0.99250  0.93600  0.52330  Biso   1.000  C
  H62      1.0000 0.98760  0.89220  0.53940  Biso   1.000  H
  C117     1.0000 0.95750  0.04940  0.54400  Biso   1.000  C
  H63      1.0000 0.92870  0.08300  0.57410  Biso   1.000  H
  C118     1.0000 0.56920  0.90070  0.72400  Biso   1.000  C
  H64      1.0000 0.56940  0.86800  0.76170  Biso   1.000  H
  C119     1.0000 0.85270  0.70190  0.75580  Biso   1.000  C
  C120     1.0000 0.93980  0.66300  0.77610  Biso   1.000  C
  H65      1.0000 0.00800  0.68210  0.78640  Biso   1.000  H
  C121     1.0000 0.92720  0.59620  0.78120  Biso   1.000  C
  H66      1.0000 0.98670  0.56970  0.79500  Biso   1.000  H
  C122     1.0000 0.82740  0.56830  0.76600  Biso   1.000  C
  C123     1.0000 0.74030  0.60720  0.74580  Biso   1.000  C
  H67      1.0000 0.67210  0.58810  0.73540  Biso   1.000  H
  C124     1.0000 0.75290  0.67400  0.74070  Biso   1.000  C
  H68      1.0000 0.69340  0.70050  0.72690  Biso   1.000  H
