data_image0
_cell_length_a       20.344
_cell_length_b       20.344
_cell_length_c       20.344
_cell_angle_alpha    90
_cell_angle_beta     90
_cell_angle_gamma    90

_symmetry_space_group_name_H-M    "P 1"
_symmetry_int_tables_number       1

loop_
  _symmetry_equiv_pos_as_xyz
  'x, y, z'

loop_
  _atom_site_label
  _atom_site_occupancy
  _atom_site_fract_x
  _atom_site_fract_y
  _atom_site_fract_z
  _atom_site_thermal_displace_type
  _atom_site_B_iso_or_equiv
  _atom_site_type_symbol
  Mo1      1.0000 0.71894  0.81258  0.18742  Biso   1.000  Mo
  N1       1.0000 0.67840  0.92450  0.07550  Biso   1.000  N
  C1       1.0000 0.68770  0.88460  0.11540  Biso   1.000  C
  Mo2      1.0000 0.21894  0.31258  0.68742  Biso   1.000  Mo
  N2       1.0000 0.17840  0.42450  0.57550  Biso   1.000  N
  C2       1.0000 0.18770  0.38460  0.61540  Biso   1.000  C
  Mo3      1.0000 0.28106  0.18742  0.18742  Biso   1.000  Mo
  N3       1.0000 0.32160  0.07550  0.07550  Biso   1.000  N
  C3       1.0000 0.31230  0.11540  0.11540  Biso   1.000  C
  Mo4      1.0000 0.78106  0.68742  0.68742  Biso   1.000  Mo
  N4       1.0000 0.82160  0.57550  0.57550  Biso   1.000  N
  C4       1.0000 0.81230  0.61540  0.61540  Biso   1.000  C
  Mo5      1.0000 0.28106  0.81258  0.81258  Biso   1.000  Mo
  N5       1.0000 0.32160  0.92450  0.92450  Biso   1.000  N
  C5       1.0000 0.31230  0.88460  0.88460  Biso   1.000  C
  Mo6      1.0000 0.78106  0.31258  0.31258  Biso   1.000  Mo
  N6       1.0000 0.82160  0.42450  0.42450  Biso   1.000  N
  C6       1.0000 0.81230  0.38460  0.38460  Biso   1.000  C
  Mo7      1.0000 0.71894  0.18742  0.81258  Biso   1.000  Mo
  N7       1.0000 0.67840  0.07550  0.92450  Biso   1.000  N
  C7       1.0000 0.68770  0.11540  0.88460  Biso   1.000  C
  Mo8      1.0000 0.21894  0.68742  0.31258  Biso   1.000  Mo
  N8       1.0000 0.17840  0.57550  0.42450  Biso   1.000  N
  C8       1.0000 0.18770  0.61540  0.38460  Biso   1.000  C
  Mo9      1.0000 0.18742  0.71894  0.81258  Biso   1.000  Mo
  N9       1.0000 0.07550  0.67840  0.92450  Biso   1.000  N
  C9       1.0000 0.11540  0.68770  0.88460  Biso   1.000  C
  Mo10     1.0000 0.68742  0.21894  0.31258  Biso   1.000  Mo
  N10      1.0000 0.57550  0.17840  0.42450  Biso   1.000  N
  C10      1.0000 0.61540  0.18770  0.38460  Biso   1.000  C
  Mo11     1.0000 0.18742  0.28106  0.18742  Biso   1.000  Mo
  N11      1.0000 0.07550  0.32160  0.07550  Biso   1.000  N
  C11      1.0000 0.11540  0.31230  0.11540  Biso   1.000  C
  Mo12     1.0000 0.68742  0.78106  0.68742  Biso   1.000  Mo
  N12      1.0000 0.57550  0.82160  0.57550  Biso   1.000  N
  C12      1.0000 0.61540  0.81230  0.61540  Biso   1.000  C
  Mo13     1.0000 0.81258  0.28106  0.81258  Biso   1.000  Mo
  N13      1.0000 0.92450  0.32160  0.92450  Biso   1.000  N
  C13      1.0000 0.88460  0.31230  0.88460  Biso   1.000  C
  Mo14     1.0000 0.31258  0.78106  0.31258  Biso   1.000  Mo
  N14      1.0000 0.42450  0.82160  0.42450  Biso   1.000  N
  C14      1.0000 0.38460  0.81230  0.38460  Biso   1.000  C
  Mo15     1.0000 0.81258  0.71894  0.18742  Biso   1.000  Mo
  N15      1.0000 0.92450  0.67840  0.07550  Biso   1.000  N
  C15      1.0000 0.88460  0.68770  0.11540  Biso   1.000  C
  Mo16     1.0000 0.31258  0.21894  0.68742  Biso   1.000  Mo
  N16      1.0000 0.42450  0.17840  0.57550  Biso   1.000  N
  C16      1.0000 0.38460  0.18770  0.61540  Biso   1.000  C
  Mo17     1.0000 0.81258  0.18742  0.71894  Biso   1.000  Mo
  N17      1.0000 0.92450  0.07550  0.67840  Biso   1.000  N
  C17      1.0000 0.88460  0.11540  0.68770  Biso   1.000  C
  Mo18     1.0000 0.31258  0.68742  0.21894  Biso   1.000  Mo
  N18      1.0000 0.42450  0.57550  0.17840  Biso   1.000  N
  C18      1.0000 0.38460  0.61540  0.18770  Biso   1.000  C
  Mo19     1.0000 0.18742  0.18742  0.28106  Biso   1.000  Mo
  N19      1.0000 0.07550  0.07550  0.32160  Biso   1.000  N
  C19      1.0000 0.11540  0.11540  0.31230  Biso   1.000  C
  Mo20     1.0000 0.68742  0.68742  0.78106  Biso   1.000  Mo
  N20      1.0000 0.57550  0.57550  0.82160  Biso   1.000  N
  C20      1.0000 0.61540  0.61540  0.81230  Biso   1.000  C
  Mo21     1.0000 0.81258  0.81258  0.28106  Biso   1.000  Mo
  N21      1.0000 0.92450  0.92450  0.32160  Biso   1.000  N
  C21      1.0000 0.88460  0.88460  0.31230  Biso   1.000  C
  Mo22     1.0000 0.31258  0.31258  0.78106  Biso   1.000  Mo
  N22      1.0000 0.42450  0.42450  0.82160  Biso   1.000  N
  C22      1.0000 0.38460  0.38460  0.81230  Biso   1.000  C
  Mo23     1.0000 0.18742  0.81258  0.71894  Biso   1.000  Mo
  N23      1.0000 0.07550  0.92450  0.67840  Biso   1.000  N
  C23      1.0000 0.11540  0.88460  0.68770  Biso   1.000  C
  Mo24     1.0000 0.68742  0.31258  0.21894  Biso   1.000  Mo
  N24      1.0000 0.57550  0.42450  0.17840  Biso   1.000  N
  C24      1.0000 0.61540  0.38460  0.18770  Biso   1.000  C
  Mo25     1.0000 0.81258  0.71894  0.81258  Biso   1.000  Mo
  N25      1.0000 0.92450  0.67840  0.92450  Biso   1.000  N
  C25      1.0000 0.88460  0.68770  0.88460  Biso   1.000  C
  Mo26     1.0000 0.31258  0.21894  0.31258  Biso   1.000  Mo
  N26      1.0000 0.42450  0.17840  0.42450  Biso   1.000  N
  C26      1.0000 0.38460  0.18770  0.38460  Biso   1.000  C
  Mo27     1.0000 0.18742  0.28106  0.81258  Biso   1.000  Mo
  N27      1.0000 0.07550  0.32160  0.92450  Biso   1.000  N
  C27      1.0000 0.11540  0.31230  0.88460  Biso   1.000  C
  Mo28     1.0000 0.68742  0.78106  0.31258  Biso   1.000  Mo
  N28      1.0000 0.57550  0.82160  0.42450  Biso   1.000  N
  C28      1.0000 0.61540  0.81230  0.38460  Biso   1.000  C
  Mo29     1.0000 0.81258  0.28106  0.18742  Biso   1.000  Mo
  N29      1.0000 0.92450  0.32160  0.07550  Biso   1.000  N
  C29      1.0000 0.88460  0.31230  0.11540  Biso   1.000  C
  Mo30     1.0000 0.31258  0.78106  0.68742  Biso   1.000  Mo
  N30      1.0000 0.42450  0.82160  0.57550  Biso   1.000  N
  C30      1.0000 0.38460  0.81230  0.61540  Biso   1.000  C
  Mo31     1.0000 0.18742  0.71894  0.18742  Biso   1.000  Mo
  N31      1.0000 0.07550  0.67840  0.07550  Biso   1.000  N
  C31      1.0000 0.11540  0.68770  0.11540  Biso   1.000  C
  Mo32     1.0000 0.68742  0.21894  0.68742  Biso   1.000  Mo
  N32      1.0000 0.57550  0.17840  0.57550  Biso   1.000  N
  C32      1.0000 0.61540  0.18770  0.61540  Biso   1.000  C
  Mo33     1.0000 0.71894  0.18742  0.18742  Biso   1.000  Mo
  N33      1.0000 0.67840  0.07550  0.07550  Biso   1.000  N
  C33      1.0000 0.68770  0.11540  0.11540  Biso   1.000  C
  Mo34     1.0000 0.21894  0.68742  0.68742  Biso   1.000  Mo
  N34      1.0000 0.17840  0.57550  0.57550  Biso   1.000  N
  C34      1.0000 0.18770  0.61540  0.61540  Biso   1.000  C
  Mo35     1.0000 0.28106  0.18742  0.81258  Biso   1.000  Mo
  N35      1.0000 0.32160  0.07550  0.92450  Biso   1.000  N
  C35      1.0000 0.31230  0.11540  0.88460  Biso   1.000  C
  Mo36     1.0000 0.78106  0.68742  0.31258  Biso   1.000  Mo
  N36      1.0000 0.82160  0.57550  0.42450  Biso   1.000  N
  C36      1.0000 0.81230  0.61540  0.38460  Biso   1.000  C
  Mo37     1.0000 0.28106  0.81258  0.18742  Biso   1.000  Mo
  N37      1.0000 0.32160  0.92450  0.07550  Biso   1.000  N
  C37      1.0000 0.31230  0.88460  0.11540  Biso   1.000  C
  Mo38     1.0000 0.78106  0.31258  0.68742  Biso   1.000  Mo
  N38      1.0000 0.82160  0.42450  0.57550  Biso   1.000  N
  C38      1.0000 0.81230  0.38460  0.61540  Biso   1.000  C
  Mo39     1.0000 0.71894  0.81258  0.81258  Biso   1.000  Mo
  N39      1.0000 0.67840  0.92450  0.92450  Biso   1.000  N
  C39      1.0000 0.68770  0.88460  0.88460  Biso   1.000  C
  Mo40     1.0000 0.21894  0.31258  0.31258  Biso   1.000  Mo
  N40      1.0000 0.17840  0.42450  0.42450  Biso   1.000  N
  C40      1.0000 0.18770  0.38460  0.38460  Biso   1.000  C
  Mo41     1.0000 0.18742  0.81258  0.28106  Biso   1.000  Mo
  N41      1.0000 0.07550  0.92450  0.32160  Biso   1.000  N
  C41      1.0000 0.11540  0.88460  0.31230  Biso   1.000  C
  Mo42     1.0000 0.68742  0.31258  0.78106  Biso   1.000  Mo
  N42      1.0000 0.57550  0.42450  0.82160  Biso   1.000  N
  C42      1.0000 0.61540  0.38460  0.81230  Biso   1.000  C
  Mo43     1.0000 0.18742  0.18742  0.71894  Biso   1.000  Mo
  N43      1.0000 0.07550  0.07550  0.67840  Biso   1.000  N
  C43      1.0000 0.11540  0.11540  0.68770  Biso   1.000  C
  Mo44     1.0000 0.68742  0.68742  0.21894  Biso   1.000  Mo
  N44      1.0000 0.57550  0.57550  0.17840  Biso   1.000  N
  C44      1.0000 0.61540  0.61540  0.18770  Biso   1.000  C
  Mo45     1.0000 0.81258  0.81258  0.71894  Biso   1.000  Mo
  N45      1.0000 0.92450  0.92450  0.67840  Biso   1.000  N
  C45      1.0000 0.88460  0.88460  0.68770  Biso   1.000  C
  Mo46     1.0000 0.31258  0.31258  0.21894  Biso   1.000  Mo
  N46      1.0000 0.42450  0.42450  0.17840  Biso   1.000  N
  C46      1.0000 0.38460  0.38460  0.18770  Biso   1.000  C
  Mo47     1.0000 0.81258  0.18742  0.28106  Biso   1.000  Mo
  N47      1.0000 0.92450  0.07550  0.32160  Biso   1.000  N
  C47      1.0000 0.88460  0.11540  0.31230  Biso   1.000  C
  Mo48     1.0000 0.31258  0.68742  0.78106  Biso   1.000  Mo
  N48      1.0000 0.42450  0.57550  0.82160  Biso   1.000  N
  C48      1.0000 0.38460  0.61540  0.81230  Biso   1.000  C
  Se1      1.0000 0.72002  0.72002  0.10116  Biso   1.000  Se
  Se2      1.0000 0.22002  0.22002  0.60116  Biso   1.000  Se
  Se3      1.0000 0.27998  0.27998  0.10116  Biso   1.000  Se
  Se4      1.0000 0.77998  0.77998  0.60116  Biso   1.000  Se
  Se5      1.0000 0.27998  0.72002  0.89884  Biso   1.000  Se
  Se6      1.0000 0.77998  0.22002  0.39884  Biso   1.000  Se
  Se7      1.0000 0.72002  0.27998  0.89884  Biso   1.000  Se
  Se8      1.0000 0.22002  0.77998  0.39884  Biso   1.000  Se
  Se9      1.0000 0.10116  0.72002  0.72002  Biso   1.000  Se
  Se10     1.0000 0.60116  0.22002  0.22002  Biso   1.000  Se
  Se11     1.0000 0.10116  0.27998  0.27998  Biso   1.000  Se
  Se12     1.0000 0.60116  0.77998  0.77998  Biso   1.000  Se
  Se13     1.0000 0.89884  0.27998  0.72002  Biso   1.000  Se
  Se14     1.0000 0.39884  0.77998  0.22002  Biso   1.000  Se
  Se15     1.0000 0.89884  0.72002  0.27998  Biso   1.000  Se
  Se16     1.0000 0.39884  0.22002  0.77998  Biso   1.000  Se
  Se17     1.0000 0.72002  0.10116  0.72002  Biso   1.000  Se
  Se18     1.0000 0.22002  0.60116  0.22002  Biso   1.000  Se
  Se19     1.0000 0.27998  0.10116  0.27998  Biso   1.000  Se
  Se20     1.0000 0.77998  0.60116  0.77998  Biso   1.000  Se
  Se21     1.0000 0.72002  0.89884  0.27998  Biso   1.000  Se
  Se22     1.0000 0.22002  0.39884  0.77998  Biso   1.000  Se
  Se23     1.0000 0.27998  0.89884  0.72002  Biso   1.000  Se
  Se24     1.0000 0.77998  0.39884  0.22002  Biso   1.000  Se
  Se25     1.0000 0.72002  0.72002  0.89884  Biso   1.000  Se
  Se26     1.0000 0.22002  0.22002  0.39884  Biso   1.000  Se
  Se27     1.0000 0.27998  0.27998  0.89884  Biso   1.000  Se
  Se28     1.0000 0.77998  0.77998  0.39884  Biso   1.000  Se
  Se29     1.0000 0.72002  0.27998  0.10116  Biso   1.000  Se
  Se30     1.0000 0.22002  0.77998  0.60116  Biso   1.000  Se
  Se31     1.0000 0.27998  0.72002  0.10116  Biso   1.000  Se
  Se32     1.0000 0.77998  0.22002  0.60116  Biso   1.000  Se
  Se33     1.0000 0.72002  0.10116  0.27998  Biso   1.000  Se
  Se34     1.0000 0.22002  0.60116  0.77998  Biso   1.000  Se
  Se35     1.0000 0.27998  0.10116  0.72002  Biso   1.000  Se
  Se36     1.0000 0.77998  0.60116  0.22002  Biso   1.000  Se
  Se37     1.0000 0.27998  0.89884  0.27998  Biso   1.000  Se
  Se38     1.0000 0.77998  0.39884  0.77998  Biso   1.000  Se
  Se39     1.0000 0.72002  0.89884  0.72002  Biso   1.000  Se
  Se40     1.0000 0.22002  0.39884  0.22002  Biso   1.000  Se
  Se41     1.0000 0.10116  0.72002  0.27998  Biso   1.000  Se
  Se42     1.0000 0.60116  0.22002  0.77998  Biso   1.000  Se
  Se43     1.0000 0.10116  0.27998  0.72002  Biso   1.000  Se
  Se44     1.0000 0.60116  0.77998  0.22002  Biso   1.000  Se
  Se45     1.0000 0.89884  0.72002  0.72002  Biso   1.000  Se
  Se46     1.0000 0.39884  0.22002  0.22002  Biso   1.000  Se
  Se47     1.0000 0.89884  0.27998  0.27998  Biso   1.000  Se
  Se48     1.0000 0.39884  0.77998  0.77998  Biso   1.000  Se
  Se49     1.0000 0.83941  0.83941  0.16059  Biso   1.000  Se
  Se50     1.0000 0.33941  0.33941  0.66059  Biso   1.000  Se
  Se51     1.0000 0.16059  0.16059  0.16059  Biso   1.000  Se
  Se52     1.0000 0.66059  0.66059  0.66059  Biso   1.000  Se
  Se53     1.0000 0.16059  0.83941  0.83941  Biso   1.000  Se
  Se54     1.0000 0.66059  0.33941  0.33941  Biso   1.000  Se
  Se55     1.0000 0.83941  0.16059  0.83941  Biso   1.000  Se
  Se56     1.0000 0.33941  0.66059  0.33941  Biso   1.000  Se
  Se57     1.0000 0.83941  0.83941  0.83941  Biso   1.000  Se
  Se58     1.0000 0.33941  0.33941  0.33941  Biso   1.000  Se
  Se59     1.0000 0.16059  0.16059  0.83941  Biso   1.000  Se
  Se60     1.0000 0.66059  0.66059  0.33941  Biso   1.000  Se
  Se61     1.0000 0.83941  0.16059  0.16059  Biso   1.000  Se
  Se62     1.0000 0.33941  0.66059  0.66059  Biso   1.000  Se
  Se63     1.0000 0.16059  0.83941  0.16059  Biso   1.000  Se
  Se64     1.0000 0.66059  0.33941  0.66059  Biso   1.000  Se
  Mn1      1.0000 0.68150  0.00000  0.00000  Biso   1.000  Mn
  Mn2      1.0000 0.18150  0.50000  0.50000  Biso   1.000  Mn
  Mn3      1.0000 0.31850  0.00000  0.00000  Biso   1.000  Mn
  Mn4      1.0000 0.81850  0.50000  0.50000  Biso   1.000  Mn
  Mn5      1.0000 0.00000  0.68150  0.00000  Biso   1.000  Mn
  Mn6      1.0000 0.50000  0.18150  0.50000  Biso   1.000  Mn
  Mn7      1.0000 0.00000  0.31850  0.00000  Biso   1.000  Mn
  Mn8      1.0000 0.50000  0.81850  0.50000  Biso   1.000  Mn
  Mn9      1.0000 0.00000  0.00000  0.68150  Biso   1.000  Mn
  Mn10     1.0000 0.50000  0.50000  0.18150  Biso   1.000  Mn
  Mn11     1.0000 0.00000  0.00000  0.31850  Biso   1.000  Mn
  Mn12     1.0000 0.50000  0.50000  0.81850  Biso   1.000  Mn
  O1       1.0000 0.78700  0.96200  0.00000  Biso   1.000  O
  O2       1.0000 0.28700  0.46200  0.50000  Biso   1.000  O
  O3       1.0000 0.21300  0.03800  0.00000  Biso   1.000  O
  O4       1.0000 0.71300  0.53800  0.50000  Biso   1.000  O
  O5       1.0000 0.21300  0.96200  0.00000  Biso   1.000  O
  O6       1.0000 0.71300  0.46200  0.50000  Biso   1.000  O
  O7       1.0000 0.78700  0.03800  0.00000  Biso   1.000  O
  O8       1.0000 0.28700  0.53800  0.50000  Biso   1.000  O
  O9       1.0000 0.00000  0.78700  0.96200  Biso   1.000  O
  O10      1.0000 0.50000  0.28700  0.46200  Biso   1.000  O
  O11      1.0000 0.00000  0.21300  0.03800  Biso   1.000  O
  O12      1.0000 0.50000  0.71300  0.53800  Biso   1.000  O
  O13      1.0000 0.00000  0.21300  0.96200  Biso   1.000  O
  O14      1.0000 0.50000  0.71300  0.46200  Biso   1.000  O
  O15      1.0000 0.00000  0.78700  0.03800  Biso   1.000  O
  O16      1.0000 0.50000  0.28700  0.53800  Biso   1.000  O
  O17      1.0000 0.96200  0.00000  0.78700  Biso   1.000  O
  O18      1.0000 0.46200  0.50000  0.28700  Biso   1.000  O
  O19      1.0000 0.03800  0.00000  0.21300  Biso   1.000  O
  O20      1.0000 0.53800  0.50000  0.71300  Biso   1.000  O
  O21      1.0000 0.96200  0.00000  0.21300  Biso   1.000  O
  O22      1.0000 0.46200  0.50000  0.71300  Biso   1.000  O
  O23      1.0000 0.03800  0.00000  0.78700  Biso   1.000  O
  O24      1.0000 0.53800  0.50000  0.28700  Biso   1.000  O
  O25      1.0000 0.96200  0.78700  0.00000  Biso   1.000  O
  O26      1.0000 0.46200  0.28700  0.50000  Biso   1.000  O
  O27      1.0000 0.03800  0.21300  0.00000  Biso   1.000  O
  O28      1.0000 0.53800  0.71300  0.50000  Biso   1.000  O
  O29      1.0000 0.96200  0.21300  0.00000  Biso   1.000  O
  O30      1.0000 0.46200  0.71300  0.50000  Biso   1.000  O
  O31      1.0000 0.03800  0.78700  0.00000  Biso   1.000  O
  O32      1.0000 0.53800  0.28700  0.50000  Biso   1.000  O
  O33      1.0000 0.78700  0.00000  0.03800  Biso   1.000  O
  O34      1.0000 0.28700  0.50000  0.53800  Biso   1.000  O
  O35      1.0000 0.21300  0.00000  0.96200  Biso   1.000  O
  O36      1.0000 0.71300  0.50000  0.46200  Biso   1.000  O
  O37      1.0000 0.21300  0.00000  0.03800  Biso   1.000  O
  O38      1.0000 0.71300  0.50000  0.53800  Biso   1.000  O
  O39      1.0000 0.78700  0.00000  0.96200  Biso   1.000  O
  O40      1.0000 0.28700  0.50000  0.46200  Biso   1.000  O
  O41      1.0000 0.00000  0.96200  0.21300  Biso   1.000  O
  O42      1.0000 0.50000  0.46200  0.71300  Biso   1.000  O
  O43      1.0000 0.00000  0.03800  0.78700  Biso   1.000  O
  O44      1.0000 0.50000  0.53800  0.28700  Biso   1.000  O
  O45      1.0000 0.00000  0.96200  0.78700  Biso   1.000  O
  O46      1.0000 0.50000  0.46200  0.28700  Biso   1.000  O
  O47      1.0000 0.00000  0.03800  0.21300  Biso   1.000  O
  O48      1.0000 0.50000  0.53800  0.71300  Biso   1.000  O
