data_image0
_cell_length_a       7.0918
_cell_length_b       28.8888
_cell_length_c       19.0752
_cell_angle_alpha    90
_cell_angle_beta     90
_cell_angle_gamma    90

_symmetry_space_group_name_H-M    "P 1"
_symmetry_int_tables_number       1

loop_
  _symmetry_equiv_pos_as_xyz
  'x, y, z'

loop_
  _atom_site_label
  _atom_site_occupancy
  _atom_site_fract_x
  _atom_site_fract_y
  _atom_site_fract_z
  _atom_site_thermal_displace_type
  _atom_site_B_iso_or_equiv
  _atom_site_type_symbol
  N1       1.0000 0.09700  0.21746  0.42564  Biso   1.000  N
  C1       1.0000 0.15000  0.19191  0.37290  Biso   1.000  C
  H1       1.0000 0.27450  0.18580  0.36080  Biso   1.000  H
  C2       1.0000 0.15800  0.09110  0.20150  Biso   1.000  C
  H2       1.0000 0.26040  0.07230  0.19100  Biso   1.000  H
  C3       1.0000 0.16100  0.12110  0.26150  Biso   1.000  C
  H3       1.0000 0.26760  0.12330  0.28950  Biso   1.000  H
  C4       1.0000 0.14200  0.14860  0.23140  Biso   1.000  C
  H4       1.0000 0.23710  0.17050  0.23700  Biso   1.000  H
  C5       1.0000 0.14800  0.11770  0.17410  Biso   1.000  C
  H5       1.0000 0.25100  0.11790  0.14410  Biso   1.000  H
  O1       1.0000 0.15810  0.04680  0.07460  Biso   1.000  O
  N2       1.0000 0.59700  0.71746  0.42564  Biso   1.000  N
  C6       1.0000 0.65000  0.69191  0.37290  Biso   1.000  C
  H6       1.0000 0.77450  0.68580  0.36080  Biso   1.000  H
  C7       1.0000 0.65800  0.59110  0.20150  Biso   1.000  C
  H7       1.0000 0.76040  0.57230  0.19100  Biso   1.000  H
  C8       1.0000 0.66100  0.62110  0.26150  Biso   1.000  C
  H8       1.0000 0.76760  0.62330  0.28950  Biso   1.000  H
  C9       1.0000 0.64200  0.64860  0.23140  Biso   1.000  C
  H9       1.0000 0.73710  0.67050  0.23700  Biso   1.000  H
  C10      1.0000 0.64800  0.61770  0.17410  Biso   1.000  C
  H10      1.0000 0.75100  0.61790  0.14410  Biso   1.000  H
  O2       1.0000 0.65810  0.54680  0.07460  Biso   1.000  O
  N3       1.0000 0.90300  0.78254  0.42564  Biso   1.000  N
  C11      1.0000 0.85000  0.80809  0.37290  Biso   1.000  C
  H11      1.0000 0.72550  0.81420  0.36080  Biso   1.000  H
  C12      1.0000 0.84200  0.90890  0.20150  Biso   1.000  C
  H12      1.0000 0.73960  0.92770  0.19100  Biso   1.000  H
  C13      1.0000 0.83900  0.87890  0.26150  Biso   1.000  C
  H13      1.0000 0.73240  0.87670  0.28950  Biso   1.000  H
  C14      1.0000 0.85800  0.85140  0.23140  Biso   1.000  C
  H14      1.0000 0.76290  0.82950  0.23700  Biso   1.000  H
  C15      1.0000 0.85200  0.88230  0.17410  Biso   1.000  C
  H15      1.0000 0.74900  0.88210  0.14410  Biso   1.000  H
  O3       1.0000 0.84190  0.95320  0.07460  Biso   1.000  O
  N4       1.0000 0.40300  0.28254  0.42564  Biso   1.000  N
  C16      1.0000 0.35000  0.30809  0.37290  Biso   1.000  C
  H16      1.0000 0.22550  0.31420  0.36080  Biso   1.000  H
  C17      1.0000 0.34200  0.40890  0.20150  Biso   1.000  C
  H17      1.0000 0.23960  0.42770  0.19100  Biso   1.000  H
  C18      1.0000 0.33900  0.37890  0.26150  Biso   1.000  C
  H18      1.0000 0.23240  0.37670  0.28950  Biso   1.000  H
  C19      1.0000 0.35800  0.35140  0.23140  Biso   1.000  C
  H19      1.0000 0.26290  0.32950  0.23700  Biso   1.000  H
  C20      1.0000 0.35200  0.38230  0.17410  Biso   1.000  C
  H20      1.0000 0.24900  0.38210  0.14410  Biso   1.000  H
  O4       1.0000 0.34190  0.45320  0.07460  Biso   1.000  O
  N5       1.0000 0.90300  0.21746  0.57436  Biso   1.000  N
  C21      1.0000 0.85000  0.19191  0.62710  Biso   1.000  C
  H21      1.0000 0.72550  0.18580  0.63920  Biso   1.000  H
  C22      1.0000 0.84200  0.09110  0.79850  Biso   1.000  C
  H22      1.0000 0.73960  0.07230  0.80900  Biso   1.000  H
  C23      1.0000 0.83900  0.12110  0.73850  Biso   1.000  C
  H23      1.0000 0.73240  0.12330  0.71050  Biso   1.000  H
  C24      1.0000 0.85800  0.14860  0.76860  Biso   1.000  C
  H24      1.0000 0.76290  0.17050  0.76300  Biso   1.000  H
  C25      1.0000 0.85200  0.11770  0.82590  Biso   1.000  C
  H25      1.0000 0.74900  0.11790  0.85590  Biso   1.000  H
  O5       1.0000 0.84190  0.04680  0.92540  Biso   1.000  O
  N6       1.0000 0.40300  0.71746  0.57436  Biso   1.000  N
  C26      1.0000 0.35000  0.69191  0.62710  Biso   1.000  C
  H26      1.0000 0.22550  0.68580  0.63920  Biso   1.000  H
  C27      1.0000 0.34200  0.59110  0.79850  Biso   1.000  C
  H27      1.0000 0.23960  0.57230  0.80900  Biso   1.000  H
  C28      1.0000 0.33900  0.62110  0.73850  Biso   1.000  C
  H28      1.0000 0.23240  0.62330  0.71050  Biso   1.000  H
  C29      1.0000 0.35800  0.64860  0.76860  Biso   1.000  C
  H29      1.0000 0.26290  0.67050  0.76300  Biso   1.000  H
  C30      1.0000 0.35200  0.61770  0.82590  Biso   1.000  C
  H30      1.0000 0.24900  0.61790  0.85590  Biso   1.000  H
  O6       1.0000 0.34190  0.54680  0.92540  Biso   1.000  O
  N7       1.0000 0.09700  0.78254  0.57436  Biso   1.000  N
  C31      1.0000 0.15000  0.80809  0.62710  Biso   1.000  C
  H31      1.0000 0.27450  0.81420  0.63920  Biso   1.000  H
  C32      1.0000 0.15800  0.90890  0.79850  Biso   1.000  C
  H32      1.0000 0.26040  0.92770  0.80900  Biso   1.000  H
  C33      1.0000 0.16100  0.87890  0.73850  Biso   1.000  C
  H33      1.0000 0.26760  0.87670  0.71050  Biso   1.000  H
  C34      1.0000 0.14200  0.85140  0.76860  Biso   1.000  C
  H34      1.0000 0.23710  0.82950  0.76300  Biso   1.000  H
  C35      1.0000 0.14800  0.88230  0.82590  Biso   1.000  C
  H35      1.0000 0.25100  0.88210  0.85590  Biso   1.000  H
  O7       1.0000 0.15810  0.95320  0.92540  Biso   1.000  O
  N8       1.0000 0.59700  0.28254  0.57436  Biso   1.000  N
  C36      1.0000 0.65000  0.30809  0.62710  Biso   1.000  C
  H36      1.0000 0.77450  0.31420  0.63920  Biso   1.000  H
  C37      1.0000 0.65800  0.40890  0.79850  Biso   1.000  C
  H37      1.0000 0.76040  0.42770  0.80900  Biso   1.000  H
  C38      1.0000 0.66100  0.37890  0.73850  Biso   1.000  C
  H38      1.0000 0.76760  0.37670  0.71050  Biso   1.000  H
  C39      1.0000 0.64200  0.35140  0.76860  Biso   1.000  C
  H39      1.0000 0.73710  0.32950  0.76300  Biso   1.000  H
  C40      1.0000 0.64800  0.38230  0.82590  Biso   1.000  C
  H40      1.0000 0.75100  0.38210  0.85590  Biso   1.000  H
  O8       1.0000 0.65810  0.45320  0.92540  Biso   1.000  O
  N9       1.0000 0.90300  0.78254  0.57436  Biso   1.000  N
  C41      1.0000 0.85000  0.80809  0.62710  Biso   1.000  C
  H41      1.0000 0.72550  0.81420  0.63920  Biso   1.000  H
  C42      1.0000 0.84200  0.90890  0.79850  Biso   1.000  C
  H42      1.0000 0.73960  0.92770  0.80900  Biso   1.000  H
  C43      1.0000 0.83900  0.87890  0.73850  Biso   1.000  C
  H43      1.0000 0.73240  0.87670  0.71050  Biso   1.000  H
  C44      1.0000 0.85800  0.85140  0.76860  Biso   1.000  C
  H44      1.0000 0.76290  0.82950  0.76300  Biso   1.000  H
  C45      1.0000 0.85200  0.88230  0.82590  Biso   1.000  C
  H45      1.0000 0.74900  0.88210  0.85590  Biso   1.000  H
  O9       1.0000 0.84190  0.95320  0.92540  Biso   1.000  O
  N10      1.0000 0.40300  0.28254  0.57436  Biso   1.000  N
  C46      1.0000 0.35000  0.30809  0.62710  Biso   1.000  C
  H46      1.0000 0.22550  0.31420  0.63920  Biso   1.000  H
  C47      1.0000 0.34200  0.40890  0.79850  Biso   1.000  C
  H47      1.0000 0.23960  0.42770  0.80900  Biso   1.000  H
  C48      1.0000 0.33900  0.37890  0.73850  Biso   1.000  C
  H48      1.0000 0.23240  0.37670  0.71050  Biso   1.000  H
  C49      1.0000 0.35800  0.35140  0.76860  Biso   1.000  C
  H49      1.0000 0.26290  0.32950  0.76300  Biso   1.000  H
  C50      1.0000 0.35200  0.38230  0.82590  Biso   1.000  C
  H50      1.0000 0.24900  0.38210  0.85590  Biso   1.000  H
  O10      1.0000 0.34190  0.45320  0.92540  Biso   1.000  O
  N11      1.0000 0.09700  0.21746  0.57436  Biso   1.000  N
  C51      1.0000 0.15000  0.19191  0.62710  Biso   1.000  C
  H51      1.0000 0.27450  0.18580  0.63920  Biso   1.000  H
  C52      1.0000 0.15800  0.09110  0.79850  Biso   1.000  C
  H52      1.0000 0.26040  0.07230  0.80900  Biso   1.000  H
  C53      1.0000 0.16100  0.12110  0.73850  Biso   1.000  C
  H53      1.0000 0.26760  0.12330  0.71050  Biso   1.000  H
  C54      1.0000 0.14200  0.14860  0.76860  Biso   1.000  C
  H54      1.0000 0.23710  0.17050  0.76300  Biso   1.000  H
  C55      1.0000 0.14800  0.11770  0.82590  Biso   1.000  C
  H55      1.0000 0.25100  0.11790  0.85590  Biso   1.000  H
  O11      1.0000 0.15810  0.04680  0.92540  Biso   1.000  O
  N12      1.0000 0.59700  0.71746  0.57436  Biso   1.000  N
  C56      1.0000 0.65000  0.69191  0.62710  Biso   1.000  C
  H56      1.0000 0.77450  0.68580  0.63920  Biso   1.000  H
  C57      1.0000 0.65800  0.59110  0.79850  Biso   1.000  C
  H57      1.0000 0.76040  0.57230  0.80900  Biso   1.000  H
  C58      1.0000 0.66100  0.62110  0.73850  Biso   1.000  C
  H58      1.0000 0.76760  0.62330  0.71050  Biso   1.000  H
  C59      1.0000 0.64200  0.64860  0.76860  Biso   1.000  C
  H59      1.0000 0.73710  0.67050  0.76300  Biso   1.000  H
  C60      1.0000 0.64800  0.61770  0.82590  Biso   1.000  C
  H60      1.0000 0.75100  0.61790  0.85590  Biso   1.000  H
  O12      1.0000 0.65810  0.54680  0.92540  Biso   1.000  O
  N13      1.0000 0.09700  0.78254  0.42564  Biso   1.000  N
  C61      1.0000 0.15000  0.80809  0.37290  Biso   1.000  C
  H61      1.0000 0.27450  0.81420  0.36080  Biso   1.000  H
  C62      1.0000 0.15800  0.90890  0.20150  Biso   1.000  C
  H62      1.0000 0.26040  0.92770  0.19100  Biso   1.000  H
  C63      1.0000 0.16100  0.87890  0.26150  Biso   1.000  C
  H63      1.0000 0.26760  0.87670  0.28950  Biso   1.000  H
  C64      1.0000 0.14200  0.85140  0.23140  Biso   1.000  C
  H64      1.0000 0.23710  0.82950  0.23700  Biso   1.000  H
  C65      1.0000 0.14800  0.88230  0.17410  Biso   1.000  C
  H65      1.0000 0.25100  0.88210  0.14410  Biso   1.000  H
  O13      1.0000 0.15810  0.95320  0.07460  Biso   1.000  O
  N14      1.0000 0.59700  0.28254  0.42564  Biso   1.000  N
  C66      1.0000 0.65000  0.30809  0.37290  Biso   1.000  C
  H66      1.0000 0.77450  0.31420  0.36080  Biso   1.000  H
  C67      1.0000 0.65800  0.40890  0.20150  Biso   1.000  C
  H67      1.0000 0.76040  0.42770  0.19100  Biso   1.000  H
  C68      1.0000 0.66100  0.37890  0.26150  Biso   1.000  C
  H68      1.0000 0.76760  0.37670  0.28950  Biso   1.000  H
  C69      1.0000 0.64200  0.35140  0.23140  Biso   1.000  C
  H69      1.0000 0.73710  0.32950  0.23700  Biso   1.000  H
  C70      1.0000 0.64800  0.38230  0.17410  Biso   1.000  C
  H70      1.0000 0.75100  0.38210  0.14410  Biso   1.000  H
  O14      1.0000 0.65810  0.45320  0.07460  Biso   1.000  O
  N15      1.0000 0.90300  0.21746  0.42564  Biso   1.000  N
  C71      1.0000 0.85000  0.19191  0.37290  Biso   1.000  C
  H71      1.0000 0.72550  0.18580  0.36080  Biso   1.000  H
  C72      1.0000 0.84200  0.09110  0.20150  Biso   1.000  C
  H72      1.0000 0.73960  0.07230  0.19100  Biso   1.000  H
  C73      1.0000 0.83900  0.12110  0.26150  Biso   1.000  C
  H73      1.0000 0.73240  0.12330  0.28950  Biso   1.000  H
  C74      1.0000 0.85800  0.14860  0.23140  Biso   1.000  C
  H74      1.0000 0.76290  0.17050  0.23700  Biso   1.000  H
  C75      1.0000 0.85200  0.11770  0.17410  Biso   1.000  C
  H75      1.0000 0.74900  0.11790  0.14410  Biso   1.000  H
  O15      1.0000 0.84190  0.04680  0.07460  Biso   1.000  O
  N16      1.0000 0.40300  0.71746  0.42564  Biso   1.000  N
  C76      1.0000 0.35000  0.69191  0.37290  Biso   1.000  C
  H76      1.0000 0.22550  0.68580  0.36080  Biso   1.000  H
  C77      1.0000 0.34200  0.59110  0.20150  Biso   1.000  C
  H77      1.0000 0.23960  0.57230  0.19100  Biso   1.000  H
  C78      1.0000 0.33900  0.62110  0.26150  Biso   1.000  C
  H78      1.0000 0.23240  0.62330  0.28950  Biso   1.000  H
  C79      1.0000 0.35800  0.64860  0.23140  Biso   1.000  C
  H79      1.0000 0.26290  0.67050  0.23700  Biso   1.000  H
  C80      1.0000 0.35200  0.61770  0.17410  Biso   1.000  C
  H80      1.0000 0.24900  0.61790  0.14410  Biso   1.000  H
  O16      1.0000 0.34190  0.54680  0.07460  Biso   1.000  O
  Cu1      1.0000 0.25000  0.25000  0.50000  Biso   1.000  Cu
  Cu2      1.0000 0.75000  0.75000  0.50000  Biso   1.000  Cu
  Cu3      1.0000 0.75000  0.25000  0.50000  Biso   1.000  Cu
  Cu4      1.0000 0.25000  0.75000  0.50000  Biso   1.000  Cu
  Cu5      1.0000 0.18810  0.00000  0.00000  Biso   1.000  Cu
  Cu6      1.0000 0.68810  0.50000  0.00000  Biso   1.000  Cu
  Cu7      1.0000 0.81190  0.00000  0.00000  Biso   1.000  Cu
  Cu8      1.0000 0.31190  0.50000  0.00000  Biso   1.000  Cu
  N17      1.0000 0.00000  0.17595  0.33890  Biso   1.000  N
  C81      1.0000 0.00000  0.14680  0.27670  Biso   1.000  C
  C82      1.0000 0.00000  0.09060  0.16000  Biso   1.000  C
  C83      1.0000 0.00000  0.05600  0.09110  Biso   1.000  C
  N18      1.0000 0.50000  0.67595  0.33890  Biso   1.000  N
  C84      1.0000 0.50000  0.64680  0.27670  Biso   1.000  C
  C85      1.0000 0.50000  0.59060  0.16000  Biso   1.000  C
  C86      1.0000 0.50000  0.55600  0.09110  Biso   1.000  C
  N19      1.0000 0.00000  0.82405  0.33890  Biso   1.000  N
  C87      1.0000 0.00000  0.85320  0.27670  Biso   1.000  C
  C88      1.0000 0.00000  0.90940  0.16000  Biso   1.000  C
  C89      1.0000 0.00000  0.94400  0.09110  Biso   1.000  C
  N20      1.0000 0.50000  0.32405  0.33890  Biso   1.000  N
  C90      1.0000 0.50000  0.35320  0.27670  Biso   1.000  C
  C91      1.0000 0.50000  0.40940  0.16000  Biso   1.000  C
  C92      1.0000 0.50000  0.44400  0.09110  Biso   1.000  C
  N21      1.0000 0.00000  0.17595  0.66110  Biso   1.000  N
  C93      1.0000 0.00000  0.14680  0.72330  Biso   1.000  C
  C94      1.0000 0.00000  0.09060  0.84000  Biso   1.000  C
  C95      1.0000 0.00000  0.05600  0.90890  Biso   1.000  C
  N22      1.0000 0.50000  0.67595  0.66110  Biso   1.000  N
  C96      1.0000 0.50000  0.64680  0.72330  Biso   1.000  C
  C97      1.0000 0.50000  0.59060  0.84000  Biso   1.000  C
  C98      1.0000 0.50000  0.55600  0.90890  Biso   1.000  C
  N23      1.0000 0.00000  0.82405  0.66110  Biso   1.000  N
  C99      1.0000 0.00000  0.85320  0.72330  Biso   1.000  C
  C100     1.0000 0.00000  0.90940  0.84000  Biso   1.000  C
  C101     1.0000 0.00000  0.94400  0.90890  Biso   1.000  C
  N24      1.0000 0.50000  0.32405  0.66110  Biso   1.000  N
  C102     1.0000 0.50000  0.35320  0.72330  Biso   1.000  C
  C103     1.0000 0.50000  0.40940  0.84000  Biso   1.000  C
  C104     1.0000 0.50000  0.44400  0.90890  Biso   1.000  C
  Cl1      1.0000 0.50000  0.00000  0.00000  Biso   1.000  Cl
  Cl2      1.0000 0.00000  0.50000  0.00000  Biso   1.000  Cl
  Cu9      1.0000 0.00000  0.00000  0.00000  Biso   1.000  Cu
  Cu10     1.0000 0.50000  0.50000  0.00000  Biso   1.000  Cu
