data_image0
_cell_length_a       25.0111
_cell_length_b       22.9843
_cell_length_c       17.1959
_cell_angle_alpha    90
_cell_angle_beta     96.404
_cell_angle_gamma    90

_symmetry_space_group_name_H-M    "P 1"
_symmetry_int_tables_number       1

loop_
  _symmetry_equiv_pos_as_xyz
  'x, y, z'

loop_
  _atom_site_label
  _atom_site_occupancy
  _atom_site_fract_x
  _atom_site_fract_y
  _atom_site_fract_z
  _atom_site_thermal_displace_type
  _atom_site_B_iso_or_equiv
  _atom_site_type_symbol
  Zn1      1.0000 0.14242  0.93269  0.31883  Biso   1.000  Zn
  S1       1.0000 0.85210  0.74480  0.48520  Biso   1.000  S
  S2       1.0000 0.24430  0.11660  0.81190  Biso   1.000  S
  O1       1.0000 0.03299  0.93287  0.19220  Biso   1.000  O
  O2       1.0000 0.07180  0.89430  0.30290  Biso   1.000  O
  O3       1.0000 0.69624  0.62630  0.31340  Biso   1.000  O
  O4       1.0000 0.71870  0.58710  0.20250  Biso   1.000  O
  O5       1.0000 0.14490  0.95101  0.42913  Biso   1.000  O
  C1       1.0000 0.03420  0.89870  0.24830  Biso   1.000  C
  C2       1.0000 0.98730  0.85840  0.25010  Biso   1.000  C
  C3       1.0000 0.94630  0.85890  0.18990  Biso   1.000  C
  H1       1.0000 0.94740  0.88510  0.14740  Biso   1.000  H
  C4       1.0000 0.90320  0.82110  0.19120  Biso   1.000  C
  H2       1.0000 0.87620  0.81850  0.14790  Biso   1.000  H
  C5       1.0000 0.90050  0.78610  0.25920  Biso   1.000  C
  C6       1.0000 0.93840  0.78950  0.32040  Biso   1.000  C
  H3       1.0000 0.93540  0.76680  0.36590  Biso   1.000  H
  C7       1.0000 0.98260  0.82660  0.31740  Biso   1.000  C
  H4       1.0000 0.00910  0.82980  0.36120  Biso   1.000  H
  C8       1.0000 0.85380  0.74490  0.25980  Biso   1.000  C
  C9       1.0000 0.84390  0.70760  0.19640  Biso   1.000  C
  H5       1.0000 0.86590  0.70730  0.15470  Biso   1.000  H
  C10      1.0000 0.79840  0.66920  0.19740  Biso   1.000  C
  H6       1.0000 0.78880  0.64450  0.15370  Biso   1.000  H
  C11      1.0000 0.76910  0.66740  0.25820  Biso   1.000  C
  C12      1.0000 0.77740  0.70880  0.31320  Biso   1.000  C
  H7       1.0000 0.75330  0.71160  0.35190  Biso   1.000  H
  C13      1.0000 0.81870  0.74660  0.31530  Biso   1.000  C
  C14      1.0000 0.82710  0.78900  0.39050  Biso   1.000  C
  H8       1.0000 0.85380  0.81950  0.38180  Biso   1.000  H
  H9       1.0000 0.79270  0.80850  0.39760  Biso   1.000  H
  C15      1.0000 0.85740  0.80310  0.55810  Biso   1.000  C
  H10      1.0000 0.86960  0.78680  0.60980  Biso   1.000  H
  H11      1.0000 0.88340  0.83220  0.54430  Biso   1.000  H
  H12      1.0000 0.82220  0.82140  0.55930  Biso   1.000  H
  C16      1.0000 0.72580  0.62320  0.25920  Biso   1.000  C
  C17      1.0000 0.13060  0.95030  0.58960  Biso   1.000  C
  H13      1.0000 0.12000  0.91630  0.56030  Biso   1.000  H
  C18      1.0000 0.12970  0.94970  0.66690  Biso   1.000  C
  H14      1.0000 0.11870  0.91570  0.69230  Biso   1.000  H
  C19      1.0000 0.09460  0.98850  0.82840  Biso   1.000  C
  H15      1.0000 0.06350  0.98000  0.79320  Biso   1.000  H
  C20      1.0000 0.09070  0.01090  0.90460  Biso   1.000  C
  H16      1.0000 0.05680  0.01800  0.92300  Biso   1.000  H
  C21      1.0000 0.18600  0.01580  0.92970  Biso   1.000  C
  H17      1.0000 0.21640  0.02590  0.96530  Biso   1.000  H
  C22      1.0000 0.18950  0.01600  0.84990  Biso   1.000  C
  C23      1.0000 0.24270  0.03140  0.82360  Biso   1.000  C
  H18      1.0000 0.24690  0.01230  0.77310  Biso   1.000  H
  H19      1.0000 0.27230  0.01840  0.86270  Biso   1.000  H
  C24      1.0000 0.26370  0.12200  0.71600  Biso   1.000  C
  H20      1.0000 0.26500  0.16310  0.70100  Biso   1.000  H
  H21      1.0000 0.23760  0.10150  0.67920  Biso   1.000  H
  H22      1.0000 0.29940  0.10460  0.71490  Biso   1.000  H
  C25      1.0000 0.16180  0.04540  0.59210  Biso   1.000  C
  C26      1.0000 0.15840  0.04870  0.67300  Biso   1.000  C
  H23      1.0000 0.17590  0.07790  0.56690  Biso   1.000  H
  H24      1.0000 0.16510  0.08430  0.70040  Biso   1.000  H
  Zn2      1.0000 0.64242  0.43269  0.31883  Biso   1.000  Zn
  S3       1.0000 0.35210  0.24480  0.48520  Biso   1.000  S
  S4       1.0000 0.74430  0.61660  0.81190  Biso   1.000  S
  O6       1.0000 0.53299  0.43287  0.19220  Biso   1.000  O
  O7       1.0000 0.57180  0.39430  0.30290  Biso   1.000  O
  O8       1.0000 0.19624  0.12630  0.31340  Biso   1.000  O
  O9       1.0000 0.21870  0.08710  0.20250  Biso   1.000  O
  O10      1.0000 0.64490  0.45101  0.42913  Biso   1.000  O
  C27      1.0000 0.53420  0.39870  0.24830  Biso   1.000  C
  C28      1.0000 0.48730  0.35840  0.25010  Biso   1.000  C
  C29      1.0000 0.44630  0.35890  0.18990  Biso   1.000  C
  H25      1.0000 0.44740  0.38510  0.14740  Biso   1.000  H
  C30      1.0000 0.40320  0.32110  0.19120  Biso   1.000  C
  H26      1.0000 0.37620  0.31850  0.14790  Biso   1.000  H
  C31      1.0000 0.40050  0.28610  0.25920  Biso   1.000  C
  C32      1.0000 0.43840  0.28950  0.32040  Biso   1.000  C
  H27      1.0000 0.43540  0.26680  0.36590  Biso   1.000  H
  C33      1.0000 0.48260  0.32660  0.31740  Biso   1.000  C
  H28      1.0000 0.50910  0.32980  0.36120  Biso   1.000  H
  C34      1.0000 0.35380  0.24490  0.25980  Biso   1.000  C
  C35      1.0000 0.34390  0.20760  0.19640  Biso   1.000  C
  H29      1.0000 0.36590  0.20730  0.15470  Biso   1.000  H
  C36      1.0000 0.29840  0.16920  0.19740  Biso   1.000  C
  H30      1.0000 0.28880  0.14450  0.15370  Biso   1.000  H
  C37      1.0000 0.26910  0.16740  0.25820  Biso   1.000  C
  C38      1.0000 0.27740  0.20880  0.31320  Biso   1.000  C
  H31      1.0000 0.25330  0.21160  0.35190  Biso   1.000  H
  C39      1.0000 0.31870  0.24660  0.31530  Biso   1.000  C
  C40      1.0000 0.32710  0.28900  0.39050  Biso   1.000  C
  H32      1.0000 0.35380  0.31950  0.38180  Biso   1.000  H
  H33      1.0000 0.29270  0.30850  0.39760  Biso   1.000  H
  C41      1.0000 0.35740  0.30310  0.55810  Biso   1.000  C
  H34      1.0000 0.36960  0.28680  0.60980  Biso   1.000  H
  H35      1.0000 0.38340  0.33220  0.54430  Biso   1.000  H
  H36      1.0000 0.32220  0.32140  0.55930  Biso   1.000  H
  C42      1.0000 0.22580  0.12320  0.25920  Biso   1.000  C
  C43      1.0000 0.63060  0.45030  0.58960  Biso   1.000  C
  H37      1.0000 0.62000  0.41630  0.56030  Biso   1.000  H
  C44      1.0000 0.62970  0.44970  0.66690  Biso   1.000  C
  H38      1.0000 0.61870  0.41570  0.69230  Biso   1.000  H
  C45      1.0000 0.59460  0.48850  0.82840  Biso   1.000  C
  H39      1.0000 0.56350  0.48000  0.79320  Biso   1.000  H
  C46      1.0000 0.59070  0.51090  0.90460  Biso   1.000  C
  H40      1.0000 0.55680  0.51800  0.92300  Biso   1.000  H
  C47      1.0000 0.68600  0.51580  0.92970  Biso   1.000  C
  H41      1.0000 0.71640  0.52590  0.96530  Biso   1.000  H
  C48      1.0000 0.68950  0.51600  0.84990  Biso   1.000  C
  C49      1.0000 0.74270  0.53140  0.82360  Biso   1.000  C
  H42      1.0000 0.74690  0.51230  0.77310  Biso   1.000  H
  H43      1.0000 0.77230  0.51840  0.86270  Biso   1.000  H
  C50      1.0000 0.76370  0.62200  0.71600  Biso   1.000  C
  H44      1.0000 0.76500  0.66310  0.70100  Biso   1.000  H
  H45      1.0000 0.73760  0.60150  0.67920  Biso   1.000  H
  H46      1.0000 0.79940  0.60460  0.71490  Biso   1.000  H
  C51      1.0000 0.66180  0.54540  0.59210  Biso   1.000  C
  C52      1.0000 0.65840  0.54870  0.67300  Biso   1.000  C
  H47      1.0000 0.67590  0.57790  0.56690  Biso   1.000  H
  H48      1.0000 0.66510  0.58430  0.70040  Biso   1.000  H
  Zn3      1.0000 0.14242  0.06731  0.31883  Biso   1.000  Zn
  S5       1.0000 0.85210  0.25520  0.48520  Biso   1.000  S
  S6       1.0000 0.24430  0.88340  0.81190  Biso   1.000  S
  O11      1.0000 0.03299  0.06713  0.19220  Biso   1.000  O
  O12      1.0000 0.07180  0.10570  0.30290  Biso   1.000  O
  O13      1.0000 0.69624  0.37370  0.31340  Biso   1.000  O
  O14      1.0000 0.71870  0.41290  0.20250  Biso   1.000  O
  O15      1.0000 0.14490  0.04899  0.42913  Biso   1.000  O
  C53      1.0000 0.03420  0.10130  0.24830  Biso   1.000  C
  C54      1.0000 0.98730  0.14160  0.25010  Biso   1.000  C
  C55      1.0000 0.94630  0.14110  0.18990  Biso   1.000  C
  H49      1.0000 0.94740  0.11490  0.14740  Biso   1.000  H
  C56      1.0000 0.90320  0.17890  0.19120  Biso   1.000  C
  H50      1.0000 0.87620  0.18150  0.14790  Biso   1.000  H
  C57      1.0000 0.90050  0.21390  0.25920  Biso   1.000  C
  C58      1.0000 0.93840  0.21050  0.32040  Biso   1.000  C
  H51      1.0000 0.93540  0.23320  0.36590  Biso   1.000  H
  C59      1.0000 0.98260  0.17340  0.31740  Biso   1.000  C
  H52      1.0000 0.00910  0.17020  0.36120  Biso   1.000  H
  C60      1.0000 0.85380  0.25510  0.25980  Biso   1.000  C
  C61      1.0000 0.84390  0.29240  0.19640  Biso   1.000  C
  H53      1.0000 0.86590  0.29270  0.15470  Biso   1.000  H
  C62      1.0000 0.79840  0.33080  0.19740  Biso   1.000  C
  H54      1.0000 0.78880  0.35550  0.15370  Biso   1.000  H
  C63      1.0000 0.76910  0.33260  0.25820  Biso   1.000  C
  C64      1.0000 0.77740  0.29120  0.31320  Biso   1.000  C
  H55      1.0000 0.75330  0.28840  0.35190  Biso   1.000  H
  C65      1.0000 0.81870  0.25340  0.31530  Biso   1.000  C
  C66      1.0000 0.82710  0.21100  0.39050  Biso   1.000  C
  H56      1.0000 0.85380  0.18050  0.38180  Biso   1.000  H
  H57      1.0000 0.79270  0.19150  0.39760  Biso   1.000  H
  C67      1.0000 0.85740  0.19690  0.55810  Biso   1.000  C
  H58      1.0000 0.86960  0.21320  0.60980  Biso   1.000  H
  H59      1.0000 0.88340  0.16780  0.54430  Biso   1.000  H
  H60      1.0000 0.82220  0.17860  0.55930  Biso   1.000  H
  C68      1.0000 0.72580  0.37680  0.25920  Biso   1.000  C
  C69      1.0000 0.13060  0.04970  0.58960  Biso   1.000  C
  H61      1.0000 0.12000  0.08370  0.56030  Biso   1.000  H
  C70      1.0000 0.12970  0.05030  0.66690  Biso   1.000  C
  H62      1.0000 0.11870  0.08430  0.69230  Biso   1.000  H
  C71      1.0000 0.09460  0.01150  0.82840  Biso   1.000  C
  H63      1.0000 0.06350  0.02000  0.79320  Biso   1.000  H
  C72      1.0000 0.09070  0.98910  0.90460  Biso   1.000  C
  H64      1.0000 0.05680  0.98200  0.92300  Biso   1.000  H
  C73      1.0000 0.18600  0.98420  0.92970  Biso   1.000  C
  H65      1.0000 0.21640  0.97410  0.96530  Biso   1.000  H
  C74      1.0000 0.18950  0.98400  0.84990  Biso   1.000  C
  C75      1.0000 0.24270  0.96860  0.82360  Biso   1.000  C
  H66      1.0000 0.24690  0.98770  0.77310  Biso   1.000  H
  H67      1.0000 0.27230  0.98160  0.86270  Biso   1.000  H
  C76      1.0000 0.26370  0.87800  0.71600  Biso   1.000  C
  H68      1.0000 0.26500  0.83690  0.70100  Biso   1.000  H
  H69      1.0000 0.23760  0.89850  0.67920  Biso   1.000  H
  H70      1.0000 0.29940  0.89540  0.71490  Biso   1.000  H
  C77      1.0000 0.16180  0.95460  0.59210  Biso   1.000  C
  C78      1.0000 0.15840  0.95130  0.67300  Biso   1.000  C
  H71      1.0000 0.17590  0.92210  0.56690  Biso   1.000  H
  H72      1.0000 0.16510  0.91570  0.70040  Biso   1.000  H
  Zn4      1.0000 0.64242  0.56731  0.31883  Biso   1.000  Zn
  S7       1.0000 0.35210  0.75520  0.48520  Biso   1.000  S
  S8       1.0000 0.74430  0.38340  0.81190  Biso   1.000  S
  O16      1.0000 0.53299  0.56713  0.19220  Biso   1.000  O
  O17      1.0000 0.57180  0.60570  0.30290  Biso   1.000  O
  O18      1.0000 0.19624  0.87370  0.31340  Biso   1.000  O
  O19      1.0000 0.21870  0.91290  0.20250  Biso   1.000  O
  O20      1.0000 0.64490  0.54899  0.42913  Biso   1.000  O
  C79      1.0000 0.53420  0.60130  0.24830  Biso   1.000  C
  C80      1.0000 0.48730  0.64160  0.25010  Biso   1.000  C
  C81      1.0000 0.44630  0.64110  0.18990  Biso   1.000  C
  H73      1.0000 0.44740  0.61490  0.14740  Biso   1.000  H
  C82      1.0000 0.40320  0.67890  0.19120  Biso   1.000  C
  H74      1.0000 0.37620  0.68150  0.14790  Biso   1.000  H
  C83      1.0000 0.40050  0.71390  0.25920  Biso   1.000  C
  C84      1.0000 0.43840  0.71050  0.32040  Biso   1.000  C
  H75      1.0000 0.43540  0.73320  0.36590  Biso   1.000  H
  C85      1.0000 0.48260  0.67340  0.31740  Biso   1.000  C
  H76      1.0000 0.50910  0.67020  0.36120  Biso   1.000  H
  C86      1.0000 0.35380  0.75510  0.25980  Biso   1.000  C
  C87      1.0000 0.34390  0.79240  0.19640  Biso   1.000  C
  H77      1.0000 0.36590  0.79270  0.15470  Biso   1.000  H
  C88      1.0000 0.29840  0.83080  0.19740  Biso   1.000  C
  H78      1.0000 0.28880  0.85550  0.15370  Biso   1.000  H
  C89      1.0000 0.26910  0.83260  0.25820  Biso   1.000  C
  C90      1.0000 0.27740  0.79120  0.31320  Biso   1.000  C
  H79      1.0000 0.25330  0.78840  0.35190  Biso   1.000  H
  C91      1.0000 0.31870  0.75340  0.31530  Biso   1.000  C
  C92      1.0000 0.32710  0.71100  0.39050  Biso   1.000  C
  H80      1.0000 0.35380  0.68050  0.38180  Biso   1.000  H
  H81      1.0000 0.29270  0.69150  0.39760  Biso   1.000  H
  C93      1.0000 0.35740  0.69690  0.55810  Biso   1.000  C
  H82      1.0000 0.36960  0.71320  0.60980  Biso   1.000  H
  H83      1.0000 0.38340  0.66780  0.54430  Biso   1.000  H
  H84      1.0000 0.32220  0.67860  0.55930  Biso   1.000  H
  C94      1.0000 0.22580  0.87680  0.25920  Biso   1.000  C
  C95      1.0000 0.63060  0.54970  0.58960  Biso   1.000  C
  H85      1.0000 0.62000  0.58370  0.56030  Biso   1.000  H
  C96      1.0000 0.62970  0.55030  0.66690  Biso   1.000  C
  H86      1.0000 0.61870  0.58430  0.69230  Biso   1.000  H
  C97      1.0000 0.59460  0.51150  0.82840  Biso   1.000  C
  H87      1.0000 0.56350  0.52000  0.79320  Biso   1.000  H
  C98      1.0000 0.59070  0.48910  0.90460  Biso   1.000  C
  H88      1.0000 0.55680  0.48200  0.92300  Biso   1.000  H
  C99      1.0000 0.68600  0.48420  0.92970  Biso   1.000  C
  H89      1.0000 0.71640  0.47410  0.96530  Biso   1.000  H
  C100     1.0000 0.68950  0.48400  0.84990  Biso   1.000  C
  C101     1.0000 0.74270  0.46860  0.82360  Biso   1.000  C
  H90      1.0000 0.74690  0.48770  0.77310  Biso   1.000  H
  H91      1.0000 0.77230  0.48160  0.86270  Biso   1.000  H
  C102     1.0000 0.76370  0.37800  0.71600  Biso   1.000  C
  H92      1.0000 0.76500  0.33690  0.70100  Biso   1.000  H
  H93      1.0000 0.73760  0.39850  0.67920  Biso   1.000  H
  H94      1.0000 0.79940  0.39540  0.71490  Biso   1.000  H
  C103     1.0000 0.66180  0.45460  0.59210  Biso   1.000  C
  C104     1.0000 0.65840  0.45130  0.67300  Biso   1.000  C
  H95      1.0000 0.67590  0.42210  0.56690  Biso   1.000  H
  H96      1.0000 0.66510  0.41570  0.70040  Biso   1.000  H
  Zn5      1.0000 0.07965  0.00000  0.17837  Biso   1.000  Zn
  Zn6      1.0000 0.20952  0.00000  0.19914  Biso   1.000  Zn
  O21      1.0000 0.14198  0.00000  0.25265  Biso   1.000  O
  O22      1.0000 0.17690  0.00000  0.08700  Biso   1.000  O
  O23      1.0000 0.08892  0.00000  0.06860  Biso   1.000  O
  C105     1.0000 0.14590  0.00000  0.46240  Biso   1.000  C
  C106     1.0000 0.14670  0.00000  0.55000  Biso   1.000  C
  C107     1.0000 0.14530  0.00000  0.71090  Biso   1.000  C
  C108     1.0000 0.14350  0.00000  0.79830  Biso   1.000  C
  C109     1.0000 0.13590  0.00000  0.95850  Biso   1.000  C
  C110     1.0000 0.13420  0.00000  0.04500  Biso   1.000  C
  Zn7      1.0000 0.57965  0.50000  0.17837  Biso   1.000  Zn
  Zn8      1.0000 0.70952  0.50000  0.19914  Biso   1.000  Zn
  O24      1.0000 0.64198  0.50000  0.25265  Biso   1.000  O
  O25      1.0000 0.67690  0.50000  0.08700  Biso   1.000  O
  O26      1.0000 0.58892  0.50000  0.06860  Biso   1.000  O
  C111     1.0000 0.64590  0.50000  0.46240  Biso   1.000  C
  C112     1.0000 0.64670  0.50000  0.55000  Biso   1.000  C
  C113     1.0000 0.64530  0.50000  0.71090  Biso   1.000  C
  C114     1.0000 0.64350  0.50000  0.79830  Biso   1.000  C
  C115     1.0000 0.63590  0.50000  0.95850  Biso   1.000  C
  C116     1.0000 0.63420  0.50000  0.04500  Biso   1.000  C
  Zn9      1.0000 0.85758  0.93269  0.68117  Biso   1.000  Zn
  S9       1.0000 0.14790  0.74480  0.51480  Biso   1.000  S
  S10      1.0000 0.75570  0.11660  0.18810  Biso   1.000  S
  O27      1.0000 0.96701  0.93287  0.80780  Biso   1.000  O
  O28      1.0000 0.92820  0.89430  0.69710  Biso   1.000  O
  O29      1.0000 0.30376  0.62630  0.68660  Biso   1.000  O
  O30      1.0000 0.28130  0.58710  0.79750  Biso   1.000  O
  O31      1.0000 0.85510  0.95101  0.57087  Biso   1.000  O
  C117     1.0000 0.96580  0.89870  0.75170  Biso   1.000  C
  C118     1.0000 0.01270  0.85840  0.74990  Biso   1.000  C
  C119     1.0000 0.05370  0.85890  0.81010  Biso   1.000  C
  H97      1.0000 0.05260  0.88510  0.85260  Biso   1.000  H
  C120     1.0000 0.09680  0.82110  0.80880  Biso   1.000  C
  H98      1.0000 0.12380  0.81850  0.85210  Biso   1.000  H
  C121     1.0000 0.09950  0.78610  0.74080  Biso   1.000  C
  C122     1.0000 0.06160  0.78950  0.67960  Biso   1.000  C
  H99      1.0000 0.06460  0.76680  0.63410  Biso   1.000  H
  C123     1.0000 0.01740  0.82660  0.68260  Biso   1.000  C
  H100     1.0000 0.99090  0.82980  0.63880  Biso   1.000  H
  C124     1.0000 0.14620  0.74490  0.74020  Biso   1.000  C
  C125     1.0000 0.15610  0.70760  0.80360  Biso   1.000  C
  H101     1.0000 0.13410  0.70730  0.84530  Biso   1.000  H
  C126     1.0000 0.20160  0.66920  0.80260  Biso   1.000  C
  H102     1.0000 0.21120  0.64450  0.84630  Biso   1.000  H
  C127     1.0000 0.23090  0.66740  0.74180  Biso   1.000  C
  C128     1.0000 0.22260  0.70880  0.68680  Biso   1.000  C
  H103     1.0000 0.24670  0.71160  0.64810  Biso   1.000  H
  C129     1.0000 0.18130  0.74660  0.68470  Biso   1.000  C
  C130     1.0000 0.17290  0.78900  0.60950  Biso   1.000  C
  H104     1.0000 0.14620  0.81950  0.61820  Biso   1.000  H
  H105     1.0000 0.20730  0.80850  0.60240  Biso   1.000  H
  C131     1.0000 0.14260  0.80310  0.44190  Biso   1.000  C
  H106     1.0000 0.13040  0.78680  0.39020  Biso   1.000  H
  H107     1.0000 0.11660  0.83220  0.45570  Biso   1.000  H
  H108     1.0000 0.17780  0.82140  0.44070  Biso   1.000  H
  C132     1.0000 0.27420  0.62320  0.74080  Biso   1.000  C
  C133     1.0000 0.86940  0.95030  0.41040  Biso   1.000  C
  H109     1.0000 0.88000  0.91630  0.43970  Biso   1.000  H
  C134     1.0000 0.87030  0.94970  0.33310  Biso   1.000  C
  H110     1.0000 0.88130  0.91570  0.30770  Biso   1.000  H
  C135     1.0000 0.90540  0.98850  0.17160  Biso   1.000  C
  H111     1.0000 0.93650  0.98000  0.20680  Biso   1.000  H
  C136     1.0000 0.90930  0.01090  0.09540  Biso   1.000  C
  H112     1.0000 0.94320  0.01800  0.07700  Biso   1.000  H
  C137     1.0000 0.81400  0.01580  0.07030  Biso   1.000  C
  H113     1.0000 0.78360  0.02590  0.03470  Biso   1.000  H
  C138     1.0000 0.81050  0.01600  0.15010  Biso   1.000  C
  C139     1.0000 0.75730  0.03140  0.17640  Biso   1.000  C
  H114     1.0000 0.75310  0.01230  0.22690  Biso   1.000  H
  H115     1.0000 0.72770  0.01840  0.13730  Biso   1.000  H
  C140     1.0000 0.73630  0.12200  0.28400  Biso   1.000  C
  H116     1.0000 0.73500  0.16310  0.29900  Biso   1.000  H
  H117     1.0000 0.76240  0.10150  0.32080  Biso   1.000  H
  H118     1.0000 0.70060  0.10460  0.28510  Biso   1.000  H
  C141     1.0000 0.83820  0.04540  0.40790  Biso   1.000  C
  C142     1.0000 0.84160  0.04870  0.32700  Biso   1.000  C
  H119     1.0000 0.82410  0.07790  0.43310  Biso   1.000  H
  H120     1.0000 0.83490  0.08430  0.29960  Biso   1.000  H
  Zn10     1.0000 0.35758  0.43269  0.68117  Biso   1.000  Zn
  S11      1.0000 0.64790  0.24480  0.51480  Biso   1.000  S
  S12      1.0000 0.25570  0.61660  0.18810  Biso   1.000  S
  O32      1.0000 0.46701  0.43287  0.80780  Biso   1.000  O
  O33      1.0000 0.42820  0.39430  0.69710  Biso   1.000  O
  O34      1.0000 0.80376  0.12630  0.68660  Biso   1.000  O
  O35      1.0000 0.78130  0.08710  0.79750  Biso   1.000  O
  O36      1.0000 0.35510  0.45101  0.57087  Biso   1.000  O
  C143     1.0000 0.46580  0.39870  0.75170  Biso   1.000  C
  C144     1.0000 0.51270  0.35840  0.74990  Biso   1.000  C
  C145     1.0000 0.55370  0.35890  0.81010  Biso   1.000  C
  H121     1.0000 0.55260  0.38510  0.85260  Biso   1.000  H
  C146     1.0000 0.59680  0.32110  0.80880  Biso   1.000  C
  H122     1.0000 0.62380  0.31850  0.85210  Biso   1.000  H
  C147     1.0000 0.59950  0.28610  0.74080  Biso   1.000  C
  C148     1.0000 0.56160  0.28950  0.67960  Biso   1.000  C
  H123     1.0000 0.56460  0.26680  0.63410  Biso   1.000  H
  C149     1.0000 0.51740  0.32660  0.68260  Biso   1.000  C
  H124     1.0000 0.49090  0.32980  0.63880  Biso   1.000  H
  C150     1.0000 0.64620  0.24490  0.74020  Biso   1.000  C
  C151     1.0000 0.65610  0.20760  0.80360  Biso   1.000  C
  H125     1.0000 0.63410  0.20730  0.84530  Biso   1.000  H
  C152     1.0000 0.70160  0.16920  0.80260  Biso   1.000  C
  H126     1.0000 0.71120  0.14450  0.84630  Biso   1.000  H
  C153     1.0000 0.73090  0.16740  0.74180  Biso   1.000  C
  C154     1.0000 0.72260  0.20880  0.68680  Biso   1.000  C
  H127     1.0000 0.74670  0.21160  0.64810  Biso   1.000  H
  C155     1.0000 0.68130  0.24660  0.68470  Biso   1.000  C
  C156     1.0000 0.67290  0.28900  0.60950  Biso   1.000  C
  H128     1.0000 0.64620  0.31950  0.61820  Biso   1.000  H
  H129     1.0000 0.70730  0.30850  0.60240  Biso   1.000  H
  C157     1.0000 0.64260  0.30310  0.44190  Biso   1.000  C
  H130     1.0000 0.63040  0.28680  0.39020  Biso   1.000  H
  H131     1.0000 0.61660  0.33220  0.45570  Biso   1.000  H
  H132     1.0000 0.67780  0.32140  0.44070  Biso   1.000  H
  C158     1.0000 0.77420  0.12320  0.74080  Biso   1.000  C
  C159     1.0000 0.36940  0.45030  0.41040  Biso   1.000  C
  H133     1.0000 0.38000  0.41630  0.43970  Biso   1.000  H
  C160     1.0000 0.37030  0.44970  0.33310  Biso   1.000  C
  H134     1.0000 0.38130  0.41570  0.30770  Biso   1.000  H
  C161     1.0000 0.40540  0.48850  0.17160  Biso   1.000  C
  H135     1.0000 0.43650  0.48000  0.20680  Biso   1.000  H
  C162     1.0000 0.40930  0.51090  0.09540  Biso   1.000  C
  H136     1.0000 0.44320  0.51800  0.07700  Biso   1.000  H
  C163     1.0000 0.31400  0.51580  0.07030  Biso   1.000  C
  H137     1.0000 0.28360  0.52590  0.03470  Biso   1.000  H
  C164     1.0000 0.31050  0.51600  0.15010  Biso   1.000  C
  C165     1.0000 0.25730  0.53140  0.17640  Biso   1.000  C
  H138     1.0000 0.25310  0.51230  0.22690  Biso   1.000  H
  H139     1.0000 0.22770  0.51840  0.13730  Biso   1.000  H
  C166     1.0000 0.23630  0.62200  0.28400  Biso   1.000  C
  H140     1.0000 0.23500  0.66310  0.29900  Biso   1.000  H
  H141     1.0000 0.26240  0.60150  0.32080  Biso   1.000  H
  H142     1.0000 0.20060  0.60460  0.28510  Biso   1.000  H
  C167     1.0000 0.33820  0.54540  0.40790  Biso   1.000  C
  C168     1.0000 0.34160  0.54870  0.32700  Biso   1.000  C
  H143     1.0000 0.32410  0.57790  0.43310  Biso   1.000  H
  H144     1.0000 0.33490  0.58430  0.29960  Biso   1.000  H
  Zn11     1.0000 0.85758  0.06731  0.68117  Biso   1.000  Zn
  S13      1.0000 0.14790  0.25520  0.51480  Biso   1.000  S
  S14      1.0000 0.75570  0.88340  0.18810  Biso   1.000  S
  O37      1.0000 0.96701  0.06713  0.80780  Biso   1.000  O
  O38      1.0000 0.92820  0.10570  0.69710  Biso   1.000  O
  O39      1.0000 0.30376  0.37370  0.68660  Biso   1.000  O
  O40      1.0000 0.28130  0.41290  0.79750  Biso   1.000  O
  O41      1.0000 0.85510  0.04899  0.57087  Biso   1.000  O
  C169     1.0000 0.96580  0.10130  0.75170  Biso   1.000  C
  C170     1.0000 0.01270  0.14160  0.74990  Biso   1.000  C
  C171     1.0000 0.05370  0.14110  0.81010  Biso   1.000  C
  H145     1.0000 0.05260  0.11490  0.85260  Biso   1.000  H
  C172     1.0000 0.09680  0.17890  0.80880  Biso   1.000  C
  H146     1.0000 0.12380  0.18150  0.85210  Biso   1.000  H
  C173     1.0000 0.09950  0.21390  0.74080  Biso   1.000  C
  C174     1.0000 0.06160  0.21050  0.67960  Biso   1.000  C
  H147     1.0000 0.06460  0.23320  0.63410  Biso   1.000  H
  C175     1.0000 0.01740  0.17340  0.68260  Biso   1.000  C
  H148     1.0000 0.99090  0.17020  0.63880  Biso   1.000  H
  C176     1.0000 0.14620  0.25510  0.74020  Biso   1.000  C
  C177     1.0000 0.15610  0.29240  0.80360  Biso   1.000  C
  H149     1.0000 0.13410  0.29270  0.84530  Biso   1.000  H
  C178     1.0000 0.20160  0.33080  0.80260  Biso   1.000  C
  H150     1.0000 0.21120  0.35550  0.84630  Biso   1.000  H
  C179     1.0000 0.23090  0.33260  0.74180  Biso   1.000  C
  C180     1.0000 0.22260  0.29120  0.68680  Biso   1.000  C
  H151     1.0000 0.24670  0.28840  0.64810  Biso   1.000  H
  C181     1.0000 0.18130  0.25340  0.68470  Biso   1.000  C
  C182     1.0000 0.17290  0.21100  0.60950  Biso   1.000  C
  H152     1.0000 0.14620  0.18050  0.61820  Biso   1.000  H
  H153     1.0000 0.20730  0.19150  0.60240  Biso   1.000  H
  C183     1.0000 0.14260  0.19690  0.44190  Biso   1.000  C
  H154     1.0000 0.13040  0.21320  0.39020  Biso   1.000  H
  H155     1.0000 0.11660  0.16780  0.45570  Biso   1.000  H
  H156     1.0000 0.17780  0.17860  0.44070  Biso   1.000  H
  C184     1.0000 0.27420  0.37680  0.74080  Biso   1.000  C
  C185     1.0000 0.86940  0.04970  0.41040  Biso   1.000  C
  H157     1.0000 0.88000  0.08370  0.43970  Biso   1.000  H
  C186     1.0000 0.87030  0.05030  0.33310  Biso   1.000  C
  H158     1.0000 0.88130  0.08430  0.30770  Biso   1.000  H
  C187     1.0000 0.90540  0.01150  0.17160  Biso   1.000  C
  H159     1.0000 0.93650  0.02000  0.20680  Biso   1.000  H
  C188     1.0000 0.90930  0.98910  0.09540  Biso   1.000  C
  H160     1.0000 0.94320  0.98200  0.07700  Biso   1.000  H
  C189     1.0000 0.81400  0.98420  0.07030  Biso   1.000  C
  H161     1.0000 0.78360  0.97410  0.03470  Biso   1.000  H
  C190     1.0000 0.81050  0.98400  0.15010  Biso   1.000  C
  C191     1.0000 0.75730  0.96860  0.17640  Biso   1.000  C
  H162     1.0000 0.75310  0.98770  0.22690  Biso   1.000  H
  H163     1.0000 0.72770  0.98160  0.13730  Biso   1.000  H
  C192     1.0000 0.73630  0.87800  0.28400  Biso   1.000  C
  H164     1.0000 0.73500  0.83690  0.29900  Biso   1.000  H
  H165     1.0000 0.76240  0.89850  0.32080  Biso   1.000  H
  H166     1.0000 0.70060  0.89540  0.28510  Biso   1.000  H
  C193     1.0000 0.83820  0.95460  0.40790  Biso   1.000  C
  C194     1.0000 0.84160  0.95130  0.32700  Biso   1.000  C
  H167     1.0000 0.82410  0.92210  0.43310  Biso   1.000  H
  H168     1.0000 0.83490  0.91570  0.29960  Biso   1.000  H
  Zn12     1.0000 0.35758  0.56731  0.68117  Biso   1.000  Zn
  S15      1.0000 0.64790  0.75520  0.51480  Biso   1.000  S
  S16      1.0000 0.25570  0.38340  0.18810  Biso   1.000  S
  O42      1.0000 0.46701  0.56713  0.80780  Biso   1.000  O
  O43      1.0000 0.42820  0.60570  0.69710  Biso   1.000  O
  O44      1.0000 0.80376  0.87370  0.68660  Biso   1.000  O
  O45      1.0000 0.78130  0.91290  0.79750  Biso   1.000  O
  O46      1.0000 0.35510  0.54899  0.57087  Biso   1.000  O
  C195     1.0000 0.46580  0.60130  0.75170  Biso   1.000  C
  C196     1.0000 0.51270  0.64160  0.74990  Biso   1.000  C
  C197     1.0000 0.55370  0.64110  0.81010  Biso   1.000  C
  H169     1.0000 0.55260  0.61490  0.85260  Biso   1.000  H
  C198     1.0000 0.59680  0.67890  0.80880  Biso   1.000  C
  H170     1.0000 0.62380  0.68150  0.85210  Biso   1.000  H
  C199     1.0000 0.59950  0.71390  0.74080  Biso   1.000  C
  C200     1.0000 0.56160  0.71050  0.67960  Biso   1.000  C
  H171     1.0000 0.56460  0.73320  0.63410  Biso   1.000  H
  C201     1.0000 0.51740  0.67340  0.68260  Biso   1.000  C
  H172     1.0000 0.49090  0.67020  0.63880  Biso   1.000  H
  C202     1.0000 0.64620  0.75510  0.74020  Biso   1.000  C
  C203     1.0000 0.65610  0.79240  0.80360  Biso   1.000  C
  H173     1.0000 0.63410  0.79270  0.84530  Biso   1.000  H
  C204     1.0000 0.70160  0.83080  0.80260  Biso   1.000  C
  H174     1.0000 0.71120  0.85550  0.84630  Biso   1.000  H
  C205     1.0000 0.73090  0.83260  0.74180  Biso   1.000  C
  C206     1.0000 0.72260  0.79120  0.68680  Biso   1.000  C
  H175     1.0000 0.74670  0.78840  0.64810  Biso   1.000  H
  C207     1.0000 0.68130  0.75340  0.68470  Biso   1.000  C
  C208     1.0000 0.67290  0.71100  0.60950  Biso   1.000  C
  H176     1.0000 0.64620  0.68050  0.61820  Biso   1.000  H
  H177     1.0000 0.70730  0.69150  0.60240  Biso   1.000  H
  C209     1.0000 0.64260  0.69690  0.44190  Biso   1.000  C
  H178     1.0000 0.63040  0.71320  0.39020  Biso   1.000  H
  H179     1.0000 0.61660  0.66780  0.45570  Biso   1.000  H
  H180     1.0000 0.67780  0.67860  0.44070  Biso   1.000  H
  C210     1.0000 0.77420  0.87680  0.74080  Biso   1.000  C
  C211     1.0000 0.36940  0.54970  0.41040  Biso   1.000  C
  H181     1.0000 0.38000  0.58370  0.43970  Biso   1.000  H
  C212     1.0000 0.37030  0.55030  0.33310  Biso   1.000  C
  H182     1.0000 0.38130  0.58430  0.30770  Biso   1.000  H
  C213     1.0000 0.40540  0.51150  0.17160  Biso   1.000  C
  H183     1.0000 0.43650  0.52000  0.20680  Biso   1.000  H
  C214     1.0000 0.40930  0.48910  0.09540  Biso   1.000  C
  H184     1.0000 0.44320  0.48200  0.07700  Biso   1.000  H
  C215     1.0000 0.31400  0.48420  0.07030  Biso   1.000  C
  H185     1.0000 0.28360  0.47410  0.03470  Biso   1.000  H
  C216     1.0000 0.31050  0.48400  0.15010  Biso   1.000  C
  C217     1.0000 0.25730  0.46860  0.17640  Biso   1.000  C
  H186     1.0000 0.25310  0.48770  0.22690  Biso   1.000  H
  H187     1.0000 0.22770  0.48160  0.13730  Biso   1.000  H
  C218     1.0000 0.23630  0.37800  0.28400  Biso   1.000  C
  H188     1.0000 0.23500  0.33690  0.29900  Biso   1.000  H
  H189     1.0000 0.26240  0.39850  0.32080  Biso   1.000  H
  H190     1.0000 0.20060  0.39540  0.28510  Biso   1.000  H
  C219     1.0000 0.33820  0.45460  0.40790  Biso   1.000  C
  C220     1.0000 0.34160  0.45130  0.32700  Biso   1.000  C
  H191     1.0000 0.32410  0.42210  0.43310  Biso   1.000  H
  H192     1.0000 0.33490  0.41570  0.29960  Biso   1.000  H
  Zn13     1.0000 0.92035  0.00000  0.82163  Biso   1.000  Zn
  Zn14     1.0000 0.79048  0.00000  0.80086  Biso   1.000  Zn
  O47      1.0000 0.85802  0.00000  0.74735  Biso   1.000  O
  O48      1.0000 0.82310  0.00000  0.91300  Biso   1.000  O
  O49      1.0000 0.91108  0.00000  0.93140  Biso   1.000  O
  C221     1.0000 0.85410  0.00000  0.53760  Biso   1.000  C
  C222     1.0000 0.85330  0.00000  0.45000  Biso   1.000  C
  C223     1.0000 0.85470  0.00000  0.28910  Biso   1.000  C
  C224     1.0000 0.85650  0.00000  0.20170  Biso   1.000  C
  C225     1.0000 0.86410  0.00000  0.04150  Biso   1.000  C
  C226     1.0000 0.86580  0.00000  0.95500  Biso   1.000  C
  Zn15     1.0000 0.42035  0.50000  0.82163  Biso   1.000  Zn
  Zn16     1.0000 0.29048  0.50000  0.80086  Biso   1.000  Zn
  O50      1.0000 0.35802  0.50000  0.74735  Biso   1.000  O
  O51      1.0000 0.32310  0.50000  0.91300  Biso   1.000  O
  O52      1.0000 0.41108  0.50000  0.93140  Biso   1.000  O
  C227     1.0000 0.35410  0.50000  0.53760  Biso   1.000  C
  C228     1.0000 0.35330  0.50000  0.45000  Biso   1.000  C
  C229     1.0000 0.35470  0.50000  0.28910  Biso   1.000  C
  C230     1.0000 0.35650  0.50000  0.20170  Biso   1.000  C
  C231     1.0000 0.36410  0.50000  0.04150  Biso   1.000  C
  C232     1.0000 0.36580  0.50000  0.95500  Biso   1.000  C
