data_image0
_cell_length_a       25.167
_cell_length_b       23.2
_cell_length_c       17.102
_cell_angle_alpha    90
_cell_angle_beta     93.561
_cell_angle_gamma    90

_symmetry_space_group_name_H-M    "P 1"
_symmetry_int_tables_number       1

loop_
  _symmetry_equiv_pos_as_xyz
  'x, y, z'

loop_
  _atom_site_label
  _atom_site_occupancy
  _atom_site_fract_x
  _atom_site_fract_y
  _atom_site_fract_z
  _atom_site_thermal_displace_type
  _atom_site_B_iso_or_equiv
  _atom_site_type_symbol
  Zn1      1.0000 0.14745  0.06699  0.31645  Biso   1.000  Zn
  S1       1.0000 0.26230  0.90100  0.82790  Biso   1.000  S
  O1       1.0000 0.03625  0.06726  0.20480  Biso   1.000  O
  O2       1.0000 0.08427  0.11516  0.29900  Biso   1.000  O
  O3       1.0000 0.74590  0.43280  0.22070  Biso   1.000  O
  O4       1.0000 0.70692  0.38118  0.31050  Biso   1.000  O
  O5       1.0000 0.15168  0.04850  0.42800  Biso   1.000  O
  O6       1.0000 0.26950  0.88410  0.91790  Biso   1.000  O
  O7       1.0000 0.23130  0.85240  0.78120  Biso   1.000  O
  C1       1.0000 0.04330  0.10670  0.25560  Biso   1.000  C
  C2       1.0000 0.99953  0.14970  0.25960  Biso   1.000  C
  C3       1.0000 0.95301  0.14410  0.21200  Biso   1.000  C
  H1       1.0000 0.94930  0.11320  0.17550  Biso   1.000  H
  C4       1.0000 0.91194  0.18360  0.21770  Biso   1.000  C
  H2       1.0000 0.88010  0.17980  0.18510  Biso   1.000  H
  C5       1.0000 0.91740  0.22880  0.27100  Biso   1.000  C
  C6       1.0000 0.96390  0.23440  0.31860  Biso   1.000  C
  C7       1.0000 0.00500  0.19490  0.31290  Biso   1.000  C
  H3       1.0000 0.03680  0.19870  0.34540  Biso   1.000  H
  C8       1.0000 0.87094  0.26900  0.27481  Biso   1.000  C
  C9       1.0000 0.86824  0.31160  0.21750  Biso   1.000  C
  H4       1.0000 0.89510  0.31400  0.18100  Biso   1.000  H
  C10      1.0000 0.82624  0.35058  0.21360  Biso   1.000  C
  H5       1.0000 0.82440  0.37970  0.17450  Biso   1.000  H
  C11      1.0000 0.78695  0.34703  0.26710  Biso   1.000  C
  C12      1.0000 0.78965  0.30447  0.32440  Biso   1.000  C
  H6       1.0000 0.76280  0.30200  0.36090  Biso   1.000  H
  C13      1.0000 0.83165  0.26545  0.32830  Biso   1.000  C
  C14      1.0000 0.74517  0.39171  0.26850  Biso   1.000  C
  C15      1.0000 0.15215  0.04720  0.59070  Biso   1.000  C
  H7       1.0000 0.15530  0.08290  0.56420  Biso   1.000  H
  C16      1.0000 0.14867  0.04820  0.66923  Biso   1.000  C
  H8       1.0000 0.14660  0.08420  0.69520  Biso   1.000  H
  C17      1.0000 0.14252  0.99720  0.79730  Biso   1.000  C
  C18      1.0000 0.09272  0.00610  0.82600  Biso   1.000  C
  H9       1.0000 0.06220  0.00930  0.79080  Biso   1.000  H
  C19      1.0000 0.08762  0.01020  0.90630  Biso   1.000  C
  H10      1.0000 0.05360  0.01620  0.92600  Biso   1.000  H
  C20      1.0000 0.13234  0.00530  0.95780  Biso   1.000  C
  C21      1.0000 0.18214  0.99640  0.92910  Biso   1.000  C
  H11      1.0000 0.21270  0.99320  0.96430  Biso   1.000  H
  C22      1.0000 0.18723  0.99230  0.84880  Biso   1.000  C
  C23      1.0000 0.12940  0.00760  0.04430  Biso   1.000  C
  C24      1.0000 0.23340  0.97490  0.81420  Biso   1.000  C
  C25      1.0000 0.32490  0.89870  0.80230  Biso   1.000  C
  H12      1.0000 0.34470  0.86960  0.83400  Biso   1.000  H
  H13      1.0000 0.34160  0.93650  0.81120  Biso   1.000  H
  H14      1.0000 0.32550  0.88850  0.74670  Biso   1.000  H
  Zn2      1.0000 0.64745  0.56699  0.31645  Biso   1.000  Zn
  S2       1.0000 0.76230  0.40100  0.82790  Biso   1.000  S
  O8       1.0000 0.53625  0.56726  0.20480  Biso   1.000  O
  O9       1.0000 0.58427  0.61516  0.29900  Biso   1.000  O
  O10      1.0000 0.24590  0.93280  0.22070  Biso   1.000  O
  O11      1.0000 0.20692  0.88118  0.31050  Biso   1.000  O
  O12      1.0000 0.65168  0.54850  0.42800  Biso   1.000  O
  O13      1.0000 0.76950  0.38410  0.91790  Biso   1.000  O
  O14      1.0000 0.73130  0.35240  0.78120  Biso   1.000  O
  C26      1.0000 0.54330  0.60670  0.25560  Biso   1.000  C
  C27      1.0000 0.49953  0.64970  0.25960  Biso   1.000  C
  C28      1.0000 0.45301  0.64410  0.21200  Biso   1.000  C
  H15      1.0000 0.44930  0.61320  0.17550  Biso   1.000  H
  C29      1.0000 0.41194  0.68360  0.21770  Biso   1.000  C
  H16      1.0000 0.38010  0.67980  0.18510  Biso   1.000  H
  C30      1.0000 0.41740  0.72880  0.27100  Biso   1.000  C
  C31      1.0000 0.46390  0.73440  0.31860  Biso   1.000  C
  C32      1.0000 0.50500  0.69490  0.31290  Biso   1.000  C
  H17      1.0000 0.53680  0.69870  0.34540  Biso   1.000  H
  C33      1.0000 0.37094  0.76900  0.27481  Biso   1.000  C
  C34      1.0000 0.36824  0.81160  0.21750  Biso   1.000  C
  H18      1.0000 0.39510  0.81400  0.18100  Biso   1.000  H
  C35      1.0000 0.32624  0.85058  0.21360  Biso   1.000  C
  H19      1.0000 0.32440  0.87970  0.17450  Biso   1.000  H
  C36      1.0000 0.28695  0.84703  0.26710  Biso   1.000  C
  C37      1.0000 0.28965  0.80447  0.32440  Biso   1.000  C
  H20      1.0000 0.26280  0.80200  0.36090  Biso   1.000  H
  C38      1.0000 0.33165  0.76545  0.32830  Biso   1.000  C
  C39      1.0000 0.24517  0.89171  0.26850  Biso   1.000  C
  C40      1.0000 0.65215  0.54720  0.59070  Biso   1.000  C
  H21      1.0000 0.65530  0.58290  0.56420  Biso   1.000  H
  C41      1.0000 0.64867  0.54820  0.66923  Biso   1.000  C
  H22      1.0000 0.64660  0.58420  0.69520  Biso   1.000  H
  C42      1.0000 0.64252  0.49720  0.79730  Biso   1.000  C
  C43      1.0000 0.59272  0.50610  0.82600  Biso   1.000  C
  H23      1.0000 0.56220  0.50930  0.79080  Biso   1.000  H
  C44      1.0000 0.58762  0.51020  0.90630  Biso   1.000  C
  H24      1.0000 0.55360  0.51620  0.92600  Biso   1.000  H
  C45      1.0000 0.63234  0.50530  0.95780  Biso   1.000  C
  C46      1.0000 0.68214  0.49640  0.92910  Biso   1.000  C
  H25      1.0000 0.71270  0.49320  0.96430  Biso   1.000  H
  C47      1.0000 0.68723  0.49230  0.84880  Biso   1.000  C
  C48      1.0000 0.62940  0.50760  0.04430  Biso   1.000  C
  C49      1.0000 0.73340  0.47490  0.81420  Biso   1.000  C
  C50      1.0000 0.82490  0.39870  0.80230  Biso   1.000  C
  H26      1.0000 0.84470  0.36960  0.83400  Biso   1.000  H
  H27      1.0000 0.84160  0.43650  0.81120  Biso   1.000  H
  H28      1.0000 0.82550  0.38850  0.74670  Biso   1.000  H
  Zn3      1.0000 0.14745  0.93301  0.31645  Biso   1.000  Zn
  S3       1.0000 0.26230  0.09900  0.82790  Biso   1.000  S
  O15      1.0000 0.03625  0.93274  0.20480  Biso   1.000  O
  O16      1.0000 0.08427  0.88484  0.29900  Biso   1.000  O
  O17      1.0000 0.74590  0.56720  0.22070  Biso   1.000  O
  O18      1.0000 0.70692  0.61882  0.31050  Biso   1.000  O
  O19      1.0000 0.15168  0.95150  0.42800  Biso   1.000  O
  O20      1.0000 0.26950  0.11590  0.91790  Biso   1.000  O
  O21      1.0000 0.23130  0.14760  0.78120  Biso   1.000  O
  C51      1.0000 0.04330  0.89330  0.25560  Biso   1.000  C
  C52      1.0000 0.99953  0.85030  0.25960  Biso   1.000  C
  C53      1.0000 0.95301  0.85590  0.21200  Biso   1.000  C
  H29      1.0000 0.94930  0.88680  0.17550  Biso   1.000  H
  C54      1.0000 0.91194  0.81640  0.21770  Biso   1.000  C
  H30      1.0000 0.88010  0.82020  0.18510  Biso   1.000  H
  C55      1.0000 0.91740  0.77120  0.27100  Biso   1.000  C
  C56      1.0000 0.96390  0.76560  0.31860  Biso   1.000  C
  C57      1.0000 0.00500  0.80510  0.31290  Biso   1.000  C
  H31      1.0000 0.03680  0.80130  0.34540  Biso   1.000  H
  C58      1.0000 0.87094  0.73100  0.27481  Biso   1.000  C
  C59      1.0000 0.86824  0.68840  0.21750  Biso   1.000  C
  H32      1.0000 0.89510  0.68600  0.18100  Biso   1.000  H
  C60      1.0000 0.82624  0.64942  0.21360  Biso   1.000  C
  H33      1.0000 0.82440  0.62030  0.17450  Biso   1.000  H
  C61      1.0000 0.78695  0.65297  0.26710  Biso   1.000  C
  C62      1.0000 0.78965  0.69553  0.32440  Biso   1.000  C
  H34      1.0000 0.76280  0.69800  0.36090  Biso   1.000  H
  C63      1.0000 0.83165  0.73455  0.32830  Biso   1.000  C
  C64      1.0000 0.74517  0.60829  0.26850  Biso   1.000  C
  C65      1.0000 0.15215  0.95280  0.59070  Biso   1.000  C
  H35      1.0000 0.15530  0.91710  0.56420  Biso   1.000  H
  C66      1.0000 0.14867  0.95180  0.66923  Biso   1.000  C
  H36      1.0000 0.14660  0.91580  0.69520  Biso   1.000  H
  C67      1.0000 0.14252  0.00280  0.79730  Biso   1.000  C
  C68      1.0000 0.09272  0.99390  0.82600  Biso   1.000  C
  H37      1.0000 0.06220  0.99070  0.79080  Biso   1.000  H
  C69      1.0000 0.08762  0.98980  0.90630  Biso   1.000  C
  H38      1.0000 0.05360  0.98380  0.92600  Biso   1.000  H
  C70      1.0000 0.13234  0.99470  0.95780  Biso   1.000  C
  C71      1.0000 0.18214  0.00360  0.92910  Biso   1.000  C
  H39      1.0000 0.21270  0.00680  0.96430  Biso   1.000  H
  C72      1.0000 0.18723  0.00770  0.84880  Biso   1.000  C
  C73      1.0000 0.12940  0.99240  0.04430  Biso   1.000  C
  C74      1.0000 0.23340  0.02510  0.81420  Biso   1.000  C
  C75      1.0000 0.32490  0.10130  0.80230  Biso   1.000  C
  H40      1.0000 0.34470  0.13040  0.83400  Biso   1.000  H
  H41      1.0000 0.34160  0.06350  0.81120  Biso   1.000  H
  H42      1.0000 0.32550  0.11150  0.74670  Biso   1.000  H
  Zn4      1.0000 0.64745  0.43301  0.31645  Biso   1.000  Zn
  S4       1.0000 0.76230  0.59900  0.82790  Biso   1.000  S
  O22      1.0000 0.53625  0.43274  0.20480  Biso   1.000  O
  O23      1.0000 0.58427  0.38484  0.29900  Biso   1.000  O
  O24      1.0000 0.24590  0.06720  0.22070  Biso   1.000  O
  O25      1.0000 0.20692  0.11882  0.31050  Biso   1.000  O
  O26      1.0000 0.65168  0.45150  0.42800  Biso   1.000  O
  O27      1.0000 0.76950  0.61590  0.91790  Biso   1.000  O
  O28      1.0000 0.73130  0.64760  0.78120  Biso   1.000  O
  C76      1.0000 0.54330  0.39330  0.25560  Biso   1.000  C
  C77      1.0000 0.49953  0.35030  0.25960  Biso   1.000  C
  C78      1.0000 0.45301  0.35590  0.21200  Biso   1.000  C
  H43      1.0000 0.44930  0.38680  0.17550  Biso   1.000  H
  C79      1.0000 0.41194  0.31640  0.21770  Biso   1.000  C
  H44      1.0000 0.38010  0.32020  0.18510  Biso   1.000  H
  C80      1.0000 0.41740  0.27120  0.27100  Biso   1.000  C
  C81      1.0000 0.46390  0.26560  0.31860  Biso   1.000  C
  C82      1.0000 0.50500  0.30510  0.31290  Biso   1.000  C
  H45      1.0000 0.53680  0.30130  0.34540  Biso   1.000  H
  C83      1.0000 0.37094  0.23100  0.27481  Biso   1.000  C
  C84      1.0000 0.36824  0.18840  0.21750  Biso   1.000  C
  H46      1.0000 0.39510  0.18600  0.18100  Biso   1.000  H
  C85      1.0000 0.32624  0.14942  0.21360  Biso   1.000  C
  H47      1.0000 0.32440  0.12030  0.17450  Biso   1.000  H
  C86      1.0000 0.28695  0.15297  0.26710  Biso   1.000  C
  C87      1.0000 0.28965  0.19553  0.32440  Biso   1.000  C
  H48      1.0000 0.26280  0.19800  0.36090  Biso   1.000  H
  C88      1.0000 0.33165  0.23455  0.32830  Biso   1.000  C
  C89      1.0000 0.24517  0.10829  0.26850  Biso   1.000  C
  C90      1.0000 0.65215  0.45280  0.59070  Biso   1.000  C
  H49      1.0000 0.65530  0.41710  0.56420  Biso   1.000  H
  C91      1.0000 0.64867  0.45180  0.66923  Biso   1.000  C
  H50      1.0000 0.64660  0.41580  0.69520  Biso   1.000  H
  C92      1.0000 0.64252  0.50280  0.79730  Biso   1.000  C
  C93      1.0000 0.59272  0.49390  0.82600  Biso   1.000  C
  H51      1.0000 0.56220  0.49070  0.79080  Biso   1.000  H
  C94      1.0000 0.58762  0.48980  0.90630  Biso   1.000  C
  H52      1.0000 0.55360  0.48380  0.92600  Biso   1.000  H
  C95      1.0000 0.63234  0.49470  0.95780  Biso   1.000  C
  C96      1.0000 0.68214  0.50360  0.92910  Biso   1.000  C
  H53      1.0000 0.71270  0.50680  0.96430  Biso   1.000  H
  C97      1.0000 0.68723  0.50770  0.84880  Biso   1.000  C
  C98      1.0000 0.62940  0.49240  0.04430  Biso   1.000  C
  C99      1.0000 0.73340  0.52510  0.81420  Biso   1.000  C
  C100     1.0000 0.82490  0.60130  0.80230  Biso   1.000  C
  H54      1.0000 0.84470  0.63040  0.83400  Biso   1.000  H
  H55      1.0000 0.84160  0.56350  0.81120  Biso   1.000  H
  H56      1.0000 0.82550  0.61150  0.74670  Biso   1.000  H
  Zn5      1.0000 0.08059  0.00000  0.18451  Biso   1.000  Zn
  Zn6      1.0000 0.20782  0.00000  0.18385  Biso   1.000  Zn
  O29      1.0000 0.14548  0.00000  0.25090  Biso   1.000  O
  O30      1.0000 0.17440  0.00000  0.08470  Biso   1.000  O
  O31      1.0000 0.08400  0.00000  0.07190  Biso   1.000  O
  C101     1.0000 0.15205  0.00000  0.46133  Biso   1.000  C
  C102     1.0000 0.15137  0.00000  0.54919  Biso   1.000  C
  C103     1.0000 0.14806  0.00000  0.71084  Biso   1.000  C
  Zn7      1.0000 0.58059  0.50000  0.18451  Biso   1.000  Zn
  Zn8      1.0000 0.70782  0.50000  0.18385  Biso   1.000  Zn
  O32      1.0000 0.64548  0.50000  0.25090  Biso   1.000  O
  O33      1.0000 0.67440  0.50000  0.08470  Biso   1.000  O
  O34      1.0000 0.58400  0.50000  0.07190  Biso   1.000  O
  C104     1.0000 0.65205  0.50000  0.46133  Biso   1.000  C
  C105     1.0000 0.65137  0.50000  0.54919  Biso   1.000  C
  C106     1.0000 0.64806  0.50000  0.71084  Biso   1.000  C
  Zn9      1.0000 0.85255  0.06699  0.68355  Biso   1.000  Zn
  S5       1.0000 0.73770  0.90100  0.17210  Biso   1.000  S
  O35      1.0000 0.96375  0.06726  0.79520  Biso   1.000  O
  O36      1.0000 0.91573  0.11516  0.70100  Biso   1.000  O
  O37      1.0000 0.25410  0.43280  0.77930  Biso   1.000  O
  O38      1.0000 0.29308  0.38118  0.68950  Biso   1.000  O
  O39      1.0000 0.84832  0.04850  0.57200  Biso   1.000  O
  O40      1.0000 0.73050  0.88410  0.08210  Biso   1.000  O
  O41      1.0000 0.76870  0.85240  0.21880  Biso   1.000  O
  C107     1.0000 0.95670  0.10670  0.74440  Biso   1.000  C
  C108     1.0000 0.00047  0.14970  0.74040  Biso   1.000  C
  C109     1.0000 0.04699  0.14410  0.78800  Biso   1.000  C
  H57      1.0000 0.05070  0.11320  0.82450  Biso   1.000  H
  C110     1.0000 0.08806  0.18360  0.78230  Biso   1.000  C
  H58      1.0000 0.11990  0.17980  0.81490  Biso   1.000  H
  C111     1.0000 0.08260  0.22880  0.72900  Biso   1.000  C
  C112     1.0000 0.03610  0.23440  0.68140  Biso   1.000  C
  C113     1.0000 0.99500  0.19490  0.68710  Biso   1.000  C
  H59      1.0000 0.96320  0.19870  0.65460  Biso   1.000  H
  C114     1.0000 0.12906  0.26900  0.72519  Biso   1.000  C
  C115     1.0000 0.13176  0.31160  0.78250  Biso   1.000  C
  H60      1.0000 0.10490  0.31400  0.81900  Biso   1.000  H
  C116     1.0000 0.17376  0.35058  0.78640  Biso   1.000  C
  H61      1.0000 0.17560  0.37970  0.82550  Biso   1.000  H
  C117     1.0000 0.21305  0.34703  0.73290  Biso   1.000  C
  C118     1.0000 0.21035  0.30447  0.67560  Biso   1.000  C
  H62      1.0000 0.23720  0.30200  0.63910  Biso   1.000  H
  C119     1.0000 0.16835  0.26545  0.67170  Biso   1.000  C
  C120     1.0000 0.25483  0.39171  0.73150  Biso   1.000  C
  C121     1.0000 0.84785  0.04720  0.40930  Biso   1.000  C
  H63      1.0000 0.84470  0.08290  0.43580  Biso   1.000  H
  C122     1.0000 0.85133  0.04820  0.33077  Biso   1.000  C
  H64      1.0000 0.85340  0.08420  0.30480  Biso   1.000  H
  C123     1.0000 0.85748  0.99720  0.20270  Biso   1.000  C
  C124     1.0000 0.90728  0.00610  0.17400  Biso   1.000  C
  H65      1.0000 0.93780  0.00930  0.20920  Biso   1.000  H
  C125     1.0000 0.91238  0.01020  0.09370  Biso   1.000  C
  H66      1.0000 0.94640  0.01620  0.07400  Biso   1.000  H
  C126     1.0000 0.86766  0.00530  0.04220  Biso   1.000  C
  C127     1.0000 0.81786  0.99640  0.07090  Biso   1.000  C
  H67      1.0000 0.78730  0.99320  0.03570  Biso   1.000  H
  C128     1.0000 0.81277  0.99230  0.15120  Biso   1.000  C
  C129     1.0000 0.87060  0.00760  0.95570  Biso   1.000  C
  C130     1.0000 0.76660  0.97490  0.18580  Biso   1.000  C
  C131     1.0000 0.67510  0.89870  0.19770  Biso   1.000  C
  H68      1.0000 0.65530  0.86960  0.16600  Biso   1.000  H
  H69      1.0000 0.65840  0.93650  0.18880  Biso   1.000  H
  H70      1.0000 0.67450  0.88850  0.25330  Biso   1.000  H
  Zn10     1.0000 0.35255  0.56699  0.68355  Biso   1.000  Zn
  S6       1.0000 0.23770  0.40100  0.17210  Biso   1.000  S
  O42      1.0000 0.46375  0.56726  0.79520  Biso   1.000  O
  O43      1.0000 0.41573  0.61516  0.70100  Biso   1.000  O
  O44      1.0000 0.75410  0.93280  0.77930  Biso   1.000  O
  O45      1.0000 0.79308  0.88118  0.68950  Biso   1.000  O
  O46      1.0000 0.34832  0.54850  0.57200  Biso   1.000  O
  O47      1.0000 0.23050  0.38410  0.08210  Biso   1.000  O
  O48      1.0000 0.26870  0.35240  0.21880  Biso   1.000  O
  C132     1.0000 0.45670  0.60670  0.74440  Biso   1.000  C
  C133     1.0000 0.50047  0.64970  0.74040  Biso   1.000  C
  C134     1.0000 0.54699  0.64410  0.78800  Biso   1.000  C
  H71      1.0000 0.55070  0.61320  0.82450  Biso   1.000  H
  C135     1.0000 0.58806  0.68360  0.78230  Biso   1.000  C
  H72      1.0000 0.61990  0.67980  0.81490  Biso   1.000  H
  C136     1.0000 0.58260  0.72880  0.72900  Biso   1.000  C
  C137     1.0000 0.53610  0.73440  0.68140  Biso   1.000  C
  C138     1.0000 0.49500  0.69490  0.68710  Biso   1.000  C
  H73      1.0000 0.46320  0.69870  0.65460  Biso   1.000  H
  C139     1.0000 0.62906  0.76900  0.72519  Biso   1.000  C
  C140     1.0000 0.63176  0.81160  0.78250  Biso   1.000  C
  H74      1.0000 0.60490  0.81400  0.81900  Biso   1.000  H
  C141     1.0000 0.67376  0.85058  0.78640  Biso   1.000  C
  H75      1.0000 0.67560  0.87970  0.82550  Biso   1.000  H
  C142     1.0000 0.71305  0.84703  0.73290  Biso   1.000  C
  C143     1.0000 0.71035  0.80447  0.67560  Biso   1.000  C
  H76      1.0000 0.73720  0.80200  0.63910  Biso   1.000  H
  C144     1.0000 0.66835  0.76545  0.67170  Biso   1.000  C
  C145     1.0000 0.75483  0.89171  0.73150  Biso   1.000  C
  C146     1.0000 0.34785  0.54720  0.40930  Biso   1.000  C
  H77      1.0000 0.34470  0.58290  0.43580  Biso   1.000  H
  C147     1.0000 0.35133  0.54820  0.33077  Biso   1.000  C
  H78      1.0000 0.35340  0.58420  0.30480  Biso   1.000  H
  C148     1.0000 0.35748  0.49720  0.20270  Biso   1.000  C
  C149     1.0000 0.40728  0.50610  0.17400  Biso   1.000  C
  H79      1.0000 0.43780  0.50930  0.20920  Biso   1.000  H
  C150     1.0000 0.41238  0.51020  0.09370  Biso   1.000  C
  H80      1.0000 0.44640  0.51620  0.07400  Biso   1.000  H
  C151     1.0000 0.36766  0.50530  0.04220  Biso   1.000  C
  C152     1.0000 0.31786  0.49640  0.07090  Biso   1.000  C
  H81      1.0000 0.28730  0.49320  0.03570  Biso   1.000  H
  C153     1.0000 0.31277  0.49230  0.15120  Biso   1.000  C
  C154     1.0000 0.37060  0.50760  0.95570  Biso   1.000  C
  C155     1.0000 0.26660  0.47490  0.18580  Biso   1.000  C
  C156     1.0000 0.17510  0.39870  0.19770  Biso   1.000  C
  H82      1.0000 0.15530  0.36960  0.16600  Biso   1.000  H
  H83      1.0000 0.15840  0.43650  0.18880  Biso   1.000  H
  H84      1.0000 0.17450  0.38850  0.25330  Biso   1.000  H
  Zn11     1.0000 0.85255  0.93301  0.68355  Biso   1.000  Zn
  S7       1.0000 0.73770  0.09900  0.17210  Biso   1.000  S
  O49      1.0000 0.96375  0.93274  0.79520  Biso   1.000  O
  O50      1.0000 0.91573  0.88484  0.70100  Biso   1.000  O
  O51      1.0000 0.25410  0.56720  0.77930  Biso   1.000  O
  O52      1.0000 0.29308  0.61882  0.68950  Biso   1.000  O
  O53      1.0000 0.84832  0.95150  0.57200  Biso   1.000  O
  O54      1.0000 0.73050  0.11590  0.08210  Biso   1.000  O
  O55      1.0000 0.76870  0.14760  0.21880  Biso   1.000  O
  C157     1.0000 0.95670  0.89330  0.74440  Biso   1.000  C
  C158     1.0000 0.00047  0.85030  0.74040  Biso   1.000  C
  C159     1.0000 0.04699  0.85590  0.78800  Biso   1.000  C
  H85      1.0000 0.05070  0.88680  0.82450  Biso   1.000  H
  C160     1.0000 0.08806  0.81640  0.78230  Biso   1.000  C
  H86      1.0000 0.11990  0.82020  0.81490  Biso   1.000  H
  C161     1.0000 0.08260  0.77120  0.72900  Biso   1.000  C
  C162     1.0000 0.03610  0.76560  0.68140  Biso   1.000  C
  C163     1.0000 0.99500  0.80510  0.68710  Biso   1.000  C
  H87      1.0000 0.96320  0.80130  0.65460  Biso   1.000  H
  C164     1.0000 0.12906  0.73100  0.72519  Biso   1.000  C
  C165     1.0000 0.13176  0.68840  0.78250  Biso   1.000  C
  H88      1.0000 0.10490  0.68600  0.81900  Biso   1.000  H
  C166     1.0000 0.17376  0.64942  0.78640  Biso   1.000  C
  H89      1.0000 0.17560  0.62030  0.82550  Biso   1.000  H
  C167     1.0000 0.21305  0.65297  0.73290  Biso   1.000  C
  C168     1.0000 0.21035  0.69553  0.67560  Biso   1.000  C
  H90      1.0000 0.23720  0.69800  0.63910  Biso   1.000  H
  C169     1.0000 0.16835  0.73455  0.67170  Biso   1.000  C
  C170     1.0000 0.25483  0.60829  0.73150  Biso   1.000  C
  C171     1.0000 0.84785  0.95280  0.40930  Biso   1.000  C
  H91      1.0000 0.84470  0.91710  0.43580  Biso   1.000  H
  C172     1.0000 0.85133  0.95180  0.33077  Biso   1.000  C
  H92      1.0000 0.85340  0.91580  0.30480  Biso   1.000  H
  C173     1.0000 0.85748  0.00280  0.20270  Biso   1.000  C
  C174     1.0000 0.90728  0.99390  0.17400  Biso   1.000  C
  H93      1.0000 0.93780  0.99070  0.20920  Biso   1.000  H
  C175     1.0000 0.91238  0.98980  0.09370  Biso   1.000  C
  H94      1.0000 0.94640  0.98380  0.07400  Biso   1.000  H
  C176     1.0000 0.86766  0.99470  0.04220  Biso   1.000  C
  C177     1.0000 0.81786  0.00360  0.07090  Biso   1.000  C
  H95      1.0000 0.78730  0.00680  0.03570  Biso   1.000  H
  C178     1.0000 0.81277  0.00770  0.15120  Biso   1.000  C
  C179     1.0000 0.87060  0.99240  0.95570  Biso   1.000  C
  C180     1.0000 0.76660  0.02510  0.18580  Biso   1.000  C
  C181     1.0000 0.67510  0.10130  0.19770  Biso   1.000  C
  H96      1.0000 0.65530  0.13040  0.16600  Biso   1.000  H
  H97      1.0000 0.65840  0.06350  0.18880  Biso   1.000  H
  H98      1.0000 0.67450  0.11150  0.25330  Biso   1.000  H
  Zn12     1.0000 0.35255  0.43301  0.68355  Biso   1.000  Zn
  S8       1.0000 0.23770  0.59900  0.17210  Biso   1.000  S
  O56      1.0000 0.46375  0.43274  0.79520  Biso   1.000  O
  O57      1.0000 0.41573  0.38484  0.70100  Biso   1.000  O
  O58      1.0000 0.75410  0.06720  0.77930  Biso   1.000  O
  O59      1.0000 0.79308  0.11882  0.68950  Biso   1.000  O
  O60      1.0000 0.34832  0.45150  0.57200  Biso   1.000  O
  O61      1.0000 0.23050  0.61590  0.08210  Biso   1.000  O
  O62      1.0000 0.26870  0.64760  0.21880  Biso   1.000  O
  C182     1.0000 0.45670  0.39330  0.74440  Biso   1.000  C
  C183     1.0000 0.50047  0.35030  0.74040  Biso   1.000  C
  C184     1.0000 0.54699  0.35590  0.78800  Biso   1.000  C
  H99      1.0000 0.55070  0.38680  0.82450  Biso   1.000  H
  C185     1.0000 0.58806  0.31640  0.78230  Biso   1.000  C
  H100     1.0000 0.61990  0.32020  0.81490  Biso   1.000  H
  C186     1.0000 0.58260  0.27120  0.72900  Biso   1.000  C
  C187     1.0000 0.53610  0.26560  0.68140  Biso   1.000  C
  C188     1.0000 0.49500  0.30510  0.68710  Biso   1.000  C
  H101     1.0000 0.46320  0.30130  0.65460  Biso   1.000  H
  C189     1.0000 0.62906  0.23100  0.72519  Biso   1.000  C
  C190     1.0000 0.63176  0.18840  0.78250  Biso   1.000  C
  H102     1.0000 0.60490  0.18600  0.81900  Biso   1.000  H
  C191     1.0000 0.67376  0.14942  0.78640  Biso   1.000  C
  H103     1.0000 0.67560  0.12030  0.82550  Biso   1.000  H
  C192     1.0000 0.71305  0.15297  0.73290  Biso   1.000  C
  C193     1.0000 0.71035  0.19553  0.67560  Biso   1.000  C
  H104     1.0000 0.73720  0.19800  0.63910  Biso   1.000  H
  C194     1.0000 0.66835  0.23455  0.67170  Biso   1.000  C
  C195     1.0000 0.75483  0.10829  0.73150  Biso   1.000  C
  C196     1.0000 0.34785  0.45280  0.40930  Biso   1.000  C
  H105     1.0000 0.34470  0.41710  0.43580  Biso   1.000  H
  C197     1.0000 0.35133  0.45180  0.33077  Biso   1.000  C
  H106     1.0000 0.35340  0.41580  0.30480  Biso   1.000  H
  C198     1.0000 0.35748  0.50280  0.20270  Biso   1.000  C
  C199     1.0000 0.40728  0.49390  0.17400  Biso   1.000  C
  H107     1.0000 0.43780  0.49070  0.20920  Biso   1.000  H
  C200     1.0000 0.41238  0.48980  0.09370  Biso   1.000  C
  H108     1.0000 0.44640  0.48380  0.07400  Biso   1.000  H
  C201     1.0000 0.36766  0.49470  0.04220  Biso   1.000  C
  C202     1.0000 0.31786  0.50360  0.07090  Biso   1.000  C
  H109     1.0000 0.28730  0.50680  0.03570  Biso   1.000  H
  C203     1.0000 0.31277  0.50770  0.15120  Biso   1.000  C
  C204     1.0000 0.37060  0.49240  0.95570  Biso   1.000  C
  C205     1.0000 0.26660  0.52510  0.18580  Biso   1.000  C
  C206     1.0000 0.17510  0.60130  0.19770  Biso   1.000  C
  H110     1.0000 0.15530  0.63040  0.16600  Biso   1.000  H
  H111     1.0000 0.15840  0.56350  0.18880  Biso   1.000  H
  H112     1.0000 0.17450  0.61150  0.25330  Biso   1.000  H
  Zn13     1.0000 0.91941  0.00000  0.81549  Biso   1.000  Zn
  Zn14     1.0000 0.79218  0.00000  0.81615  Biso   1.000  Zn
  O63      1.0000 0.85452  0.00000  0.74910  Biso   1.000  O
  O64      1.0000 0.82560  0.00000  0.91530  Biso   1.000  O
  O65      1.0000 0.91600  0.00000  0.92810  Biso   1.000  O
  C207     1.0000 0.84795  0.00000  0.53867  Biso   1.000  C
  C208     1.0000 0.84863  0.00000  0.45081  Biso   1.000  C
  C209     1.0000 0.85194  0.00000  0.28916  Biso   1.000  C
  Zn15     1.0000 0.41941  0.50000  0.81549  Biso   1.000  Zn
  Zn16     1.0000 0.29218  0.50000  0.81615  Biso   1.000  Zn
  O66      1.0000 0.35452  0.50000  0.74910  Biso   1.000  O
  O67      1.0000 0.32560  0.50000  0.91530  Biso   1.000  O
  O68      1.0000 0.41600  0.50000  0.92810  Biso   1.000  O
  C210     1.0000 0.34795  0.50000  0.53867  Biso   1.000  C
  C211     1.0000 0.34863  0.50000  0.45081  Biso   1.000  C
  C212     1.0000 0.35194  0.50000  0.28916  Biso   1.000  C
