data_image0
_cell_length_a       40.537
_cell_length_b       10.192
_cell_length_c       18.2312
_cell_angle_alpha    90
_cell_angle_beta     95.188
_cell_angle_gamma    90

_symmetry_space_group_name_H-M    "P 1"
_symmetry_int_tables_number       1

loop_
  _symmetry_equiv_pos_as_xyz
  'x, y, z'

loop_
  _atom_site_label
  _atom_site_occupancy
  _atom_site_fract_x
  _atom_site_fract_y
  _atom_site_fract_z
  _atom_site_thermal_displace_type
  _atom_site_B_iso_or_equiv
  _atom_site_type_symbol
  Cd1      1.0000 0.66300  0.20986  0.72892  Biso   1.000  Cd
  Cd2      1.0000 0.83750  0.36213  0.77079  Biso   1.000  Cd
  Cd3      1.0000 0.75041  0.28616  0.74979  Biso   1.000  Cd
  O1       1.0000 0.72815  0.32690  0.63650  Biso   1.000  O
  O2       1.0000 0.67413  0.35890  0.64290  Biso   1.000  O
  O3       1.0000 0.71470  0.65290  0.30010  Biso   1.000  O
  O4       1.0000 0.66310  0.72490  0.32260  Biso   1.000  O
  C1       1.0000 0.69800  0.45510  0.54330  Biso   1.000  C
  C2       1.0000 0.72490  0.45480  0.49940  Biso   1.000  C
  H1       1.0000 0.74470  0.40860  0.51450  Biso   1.000  H
  C3       1.0000 0.72170  0.52280  0.43460  Biso   1.000  C
  H2       1.0000 0.73970  0.52420  0.40470  Biso   1.000  H
  C4       1.0000 0.69450  0.58600  0.41230  Biso   1.000  C
  C5       1.0000 0.66780  0.58710  0.45950  Biso   1.000  C
  H3       1.0000 0.64830  0.63600  0.44580  Biso   1.000  H
  C6       1.0000 0.67060  0.51890  0.52270  Biso   1.000  C
  H4       1.0000 0.65260  0.51680  0.55270  Biso   1.000  H
  C7       1.0000 0.70140  0.37130  0.61320  Biso   1.000  C
  C8       1.0000 0.68980  0.66750  0.33990  Biso   1.000  C
  O5       1.0000 0.66608  0.34350  0.82540  Biso   1.000  O
  O6       1.0000 0.71516  0.41850  0.80350  Biso   1.000  O
  O7       1.0000 0.67413  0.72270  0.14230  Biso   1.000  O
  O8       1.0000 0.72814  0.74220  0.13620  Biso   1.000  O
  C9       1.0000 0.69310  0.48110  0.91200  Biso   1.000  C
  C10      1.0000 0.66700  0.48650  0.95350  Biso   1.000  C
  H5       1.0000 0.64690  0.44400  0.93670  Biso   1.000  H
  C11      1.0000 0.66930  0.55240  0.01930  Biso   1.000  C
  H6       1.0000 0.65100  0.55030  0.04850  Biso   1.000  H
  C12      1.0000 0.69810  0.62340  0.04490  Biso   1.000  C
  C13      1.0000 0.72340  0.61470  0.00470  Biso   1.000  C
  H7       1.0000 0.74380  0.65300  0.02330  Biso   1.000  H
  C14      1.0000 0.72200  0.55300  0.93630  Biso   1.000  C
  H8       1.0000 0.74000  0.55820  0.90670  Biso   1.000  H
  C15      1.0000 0.69160  0.41320  0.84050  Biso   1.000  C
  C16      1.0000 0.69900  0.69840  0.11430  Biso   1.000  C
  O9       1.0000 0.78651  0.45850  0.73700  Biso   1.000  O
  O10      1.0000 0.81685  0.56530  0.82300  Biso   1.000  O
  O11      1.0000 0.68350  0.00370  0.67710  Biso   1.000  O
  O12      1.0000 0.71313  0.11270  0.76300  Biso   1.000  O
  C17      1.0000 0.76950  0.67820  0.76460  Biso   1.000  C
  C18      1.0000 0.74850  0.67560  0.70300  Biso   1.000  C
  H9       1.0000 0.74660  0.60360  0.66980  Biso   1.000  H
  C19      1.0000 0.72880  0.79790  0.69290  Biso   1.000  C
  H10      1.0000 0.71380  0.80280  0.64980  Biso   1.000  H
  C20      1.0000 0.72970  0.90020  0.73690  Biso   1.000  C
  C21      1.0000 0.75390  0.88590  0.79800  Biso   1.000  C
  H11      1.0000 0.75640  0.95800  0.83100  Biso   1.000  H
  C22      1.0000 0.77290  0.78620  0.81350  Biso   1.000  C
  H12      1.0000 0.78830  0.78520  0.85590  Biso   1.000  H
  C23      1.0000 0.79180  0.55570  0.77680  Biso   1.000  C
  C24      1.0000 0.70710  0.00650  0.72360  Biso   1.000  C
  Cu1      1.0000 0.48436  0.08270  0.55980  Biso   1.000  Cu
  O13      1.0000 0.52170  0.19210  0.55010  Biso   1.000  O
  N1       1.0000 0.61200  0.20300  0.67030  Biso   1.000  N
  N2       1.0000 0.51180  0.96300  0.62500  Biso   1.000  N
  C25      1.0000 0.59240  0.09700  0.67280  Biso   1.000  C
  H13      1.0000 0.60070  0.02200  0.69910  Biso   1.000  H
  C26      1.0000 0.55970  0.09370  0.63740  Biso   1.000  C
  C27      1.0000 0.54960  0.19900  0.58570  Biso   1.000  C
  C28      1.0000 0.57410  0.30550  0.57920  Biso   1.000  C
  C29      1.0000 0.60250  0.30430  0.62470  Biso   1.000  C
  H14      1.0000 0.61660  0.37870  0.62470  Biso   1.000  H
  C30      1.0000 0.56390  0.42400  0.53420  Biso   1.000  C
  H15      1.0000 0.57320  0.50310  0.55910  Biso   1.000  H
  H16      1.0000 0.53970  0.43050  0.52860  Biso   1.000  H
  H17      1.0000 0.57220  0.41700  0.48560  Biso   1.000  H
  C31      1.0000 0.54010  0.98650  0.65090  Biso   1.000  C
  H18      1.0000 0.54990  0.92320  0.68440  Biso   1.000  H
  C32      1.0000 0.49640  0.83840  0.65930  Biso   1.000  C
  H19      1.0000 0.51250  0.78100  0.68890  Biso   1.000  H
  C33      1.0000 0.47140  0.91060  0.70410  Biso   1.000  C
  H20      1.0000 0.47110  0.87010  0.75340  Biso   1.000  H
  H21      1.0000 0.47780  0.00390  0.71070  Biso   1.000  H
  C34      1.0000 0.43690  0.90050  0.66180  Biso   1.000  C
  H22      1.0000 0.42200  0.84600  0.68930  Biso   1.000  H
  H23      1.0000 0.42690  0.98870  0.65410  Biso   1.000  H
  C35      1.0000 0.44240  0.83650  0.58770  Biso   1.000  C
  C36      1.0000 0.41190  0.76290  0.56760  Biso   1.000  C
  H24      1.0000 0.39320  0.80840  0.58670  Biso   1.000  H
  H25      1.0000 0.41390  0.67460  0.58880  Biso   1.000  H
  H26      1.0000 0.40820  0.75660  0.51380  Biso   1.000  H
  C37      1.0000 0.47410  0.76970  0.60390  Biso   1.000  C
  C38      1.0000 0.46990  0.63110  0.63570  Biso   1.000  C
  H27      1.0000 0.48500  0.62010  0.68040  Biso   1.000  H
  H28      1.0000 0.47490  0.56530  0.59910  Biso   1.000  H
  H29      1.0000 0.44700  0.61980  0.64770  Biso   1.000  H
  C39      1.0000 0.49020  0.74900  0.53130  Biso   1.000  C
  H30      1.0000 0.50860  0.81040  0.52880  Biso   1.000  H
  H31      1.0000 0.47370  0.76370  0.48950  Biso   1.000  H
  H32      1.0000 0.49860  0.65860  0.52950  Biso   1.000  H
  Cu2      1.0000 0.99701  0.55220  0.01710  Biso   1.000  Cu
  C40      1.0000 0.00630  0.77300  0.21370  Biso   1.000  C
  C41      1.0000 0.97350  0.83600  0.09280  Biso   1.000  C
  C42      1.0000 0.96620  0.96600  0.13110  Biso   1.000  C
  H33      1.0000 0.94250  0.98600  0.12270  Biso   1.000  H
  H34      1.0000 0.97900  0.03670  0.11090  Biso   1.000  H
  H35      1.0000 0.97240  0.95800  0.18410  Biso   1.000  H
  C43      1.0000 0.99940  0.87000  0.03880  Biso   1.000  C
  H36      1.0000 0.98830  0.88030  0.98910  Biso   1.000  H
  H37      1.0000 0.01570  0.79860  0.03870  Biso   1.000  H
  H38      1.0000 0.01060  0.95150  0.05420  Biso   1.000  H
  O14      1.0000 0.98060  0.44500  0.93710  Biso   1.000  O
  N3       1.0000 0.89060  0.39900  0.82550  Biso   1.000  N
  N4       1.0000 0.95480  0.64220  0.01630  Biso   1.000  N
  C44      1.0000 0.89510  0.47800  0.87710  Biso   1.000  C
  H39      1.0000 0.87630  0.52700  0.88920  Biso   1.000  H
  C45      1.0000 0.92640  0.50520  0.92120  Biso   1.000  C
  C46      1.0000 0.95170  0.41600  0.90660  Biso   1.000  C
  C47      1.0000 0.94560  0.31700  0.85870  Biso   1.000  C
  C48      1.0000 0.91320  0.31900  0.81870  Biso   1.000  C
  H40      1.0000 0.90870  0.25210  0.78300  Biso   1.000  H
  C49      1.0000 0.97300  0.22100  0.85200  Biso   1.000  C
  H41      1.0000 0.96400  0.14080  0.82740  Biso   1.000  H
  H42      1.0000 0.98330  0.19850  0.90080  Biso   1.000  H
  H43      1.0000 0.98950  0.25930  0.82230  Biso   1.000  H
  C50      1.0000 0.93070  0.61900  0.96330  Biso   1.000  C
  H44      1.0000 0.91480  0.68660  0.95320  Biso   1.000  H
  C51      1.0000 0.94320  0.77600  0.04770  Biso   1.000  C
  H45      1.0000 0.92890  0.83540  0.01460  Biso   1.000  H
  C52      1.0000 0.92770  0.70300  0.10960  Biso   1.000  C
  H46      1.0000 0.91710  0.62090  0.09040  Biso   1.000  H
  H47      1.0000 0.91060  0.75830  0.12990  Biso   1.000  H
  C53      1.0000 0.95560  0.67200  0.16970  Biso   1.000  C
  H48      1.0000 0.95690  0.57660  0.17900  Biso   1.000  H
  H49      1.0000 0.95160  0.71730  0.21620  Biso   1.000  H
  C54      1.0000 0.98810  0.72200  0.14100  Biso   1.000  C
  H50      1.0000 0.99050  0.81870  0.24230  Biso   1.000  H
  H51      1.0000 0.02380  0.83400  0.20250  Biso   1.000  H
  H52      1.0000 0.01600  0.69900  0.24230  Biso   1.000  H
  O15      1.0000 0.03120  0.41150  0.02320  Biso   1.000  O
  N5       1.0000 0.11490  0.37300  0.16070  Biso   1.000  N
  N6       1.0000 0.01570  0.64900  0.10100  Biso   1.000  N
  C55      1.0000 0.09720  0.48100  0.16870  Biso   1.000  C
  H53      1.0000 0.10450  0.54500  0.20450  Biso   1.000  H
  C56      1.0000 0.06580  0.50100  0.12110  Biso   1.000  C
  C57      1.0000 0.05730  0.40700  0.06640  Biso   1.000  C
  C58      1.0000 0.07950  0.29200  0.05460  Biso   1.000  C
  C59      1.0000 0.10700  0.29000  0.10480  Biso   1.000  C
  H54      1.0000 0.12240  0.22160  0.09900  Biso   1.000  H
  C60      1.0000 0.06540  0.19300  0.99920  Biso   1.000  C
  H55      1.0000 0.04200  0.21350  0.98540  Biso   1.000  H
  H56      1.0000 0.06730  0.10540  0.02070  Biso   1.000  H
  H57      1.0000 0.07770  0.19710  0.95540  Biso   1.000  H
  C61      1.0000 0.04650  0.61800  0.13670  Biso   1.000  C
  H58      1.0000 0.05570  0.67660  0.17370  Biso   1.000  H
  O16      1.0000 0.46620  0.22600  0.49960  Biso   1.000  O
  N7       1.0000 0.38420  0.18400  0.34550  Biso   1.000  N
  N8       1.0000 0.44410  0.95740  0.53470  Biso   1.000  N
  C62      1.0000 0.39430  0.07800  0.38390  Biso   1.000  C
  H59      1.0000 0.38450  0.99500  0.37330  Biso   1.000  H
  C63      1.0000 0.42000  0.09300  0.44070  Biso   1.000  C
  C64      1.0000 0.43570  0.21400  0.45620  Biso   1.000  C
  C65      1.0000 0.43240  0.31700  0.39940  Biso   1.000  C
  C66      1.0000 0.40590  0.30700  0.34840  Biso   1.000  C
  H60      1.0000 0.40080  0.37670  0.31450  Biso   1.000  H
  C67      1.0000 0.44630  0.45200  0.41310  Biso   1.000  C
  H61      1.0000 0.46420  0.44880  0.45320  Biso   1.000  H
  H62      1.0000 0.42880  0.51110  0.42700  Biso   1.000  H
  H63      1.0000 0.45520  0.48500  0.36830  Biso   1.000  H
  C68      1.0000 0.42440  0.97740  0.48330  Biso   1.000  C
  H64      1.0000 0.40970  0.90710  0.46940  Biso   1.000  H
  Cd4      1.0000 0.16300  0.70986  0.72892  Biso   1.000  Cd
  Cd5      1.0000 0.33750  0.86213  0.77079  Biso   1.000  Cd
  Cd6      1.0000 0.25041  0.78616  0.74979  Biso   1.000  Cd
  O17      1.0000 0.22815  0.82690  0.63650  Biso   1.000  O
  O18      1.0000 0.17413  0.85890  0.64290  Biso   1.000  O
  O19      1.0000 0.21470  0.15290  0.30010  Biso   1.000  O
  O20      1.0000 0.16310  0.22490  0.32260  Biso   1.000  O
  C69      1.0000 0.19800  0.95510  0.54330  Biso   1.000  C
  C70      1.0000 0.22490  0.95480  0.49940  Biso   1.000  C
  H65      1.0000 0.24470  0.90860  0.51450  Biso   1.000  H
  C71      1.0000 0.22170  0.02280  0.43460  Biso   1.000  C
  H66      1.0000 0.23970  0.02420  0.40470  Biso   1.000  H
  C72      1.0000 0.19450  0.08600  0.41230  Biso   1.000  C
  C73      1.0000 0.16780  0.08710  0.45950  Biso   1.000  C
  H67      1.0000 0.14830  0.13600  0.44580  Biso   1.000  H
  C74      1.0000 0.17060  0.01890  0.52270  Biso   1.000  C
  H68      1.0000 0.15260  0.01680  0.55270  Biso   1.000  H
  C75      1.0000 0.20140  0.87130  0.61320  Biso   1.000  C
  C76      1.0000 0.18980  0.16750  0.33990  Biso   1.000  C
  O21      1.0000 0.16608  0.84350  0.82540  Biso   1.000  O
  O22      1.0000 0.21516  0.91850  0.80350  Biso   1.000  O
  O23      1.0000 0.17413  0.22270  0.14230  Biso   1.000  O
  O24      1.0000 0.22814  0.24220  0.13620  Biso   1.000  O
  C77      1.0000 0.19310  0.98110  0.91200  Biso   1.000  C
  C78      1.0000 0.16700  0.98650  0.95350  Biso   1.000  C
  H69      1.0000 0.14690  0.94400  0.93670  Biso   1.000  H
  C79      1.0000 0.16930  0.05240  0.01930  Biso   1.000  C
  H70      1.0000 0.15100  0.05030  0.04850  Biso   1.000  H
  C80      1.0000 0.19810  0.12340  0.04490  Biso   1.000  C
  C81      1.0000 0.22340  0.11470  0.00470  Biso   1.000  C
  H71      1.0000 0.24380  0.15300  0.02330  Biso   1.000  H
  C82      1.0000 0.22200  0.05300  0.93630  Biso   1.000  C
  H72      1.0000 0.24000  0.05820  0.90670  Biso   1.000  H
  C83      1.0000 0.19160  0.91320  0.84050  Biso   1.000  C
  C84      1.0000 0.19900  0.19840  0.11430  Biso   1.000  C
  O25      1.0000 0.28651  0.95850  0.73700  Biso   1.000  O
  O26      1.0000 0.31685  0.06530  0.82300  Biso   1.000  O
  O27      1.0000 0.18350  0.50370  0.67710  Biso   1.000  O
  O28      1.0000 0.21313  0.61270  0.76300  Biso   1.000  O
  C85      1.0000 0.26950  0.17820  0.76460  Biso   1.000  C
  C86      1.0000 0.24850  0.17560  0.70300  Biso   1.000  C
  H73      1.0000 0.24660  0.10360  0.66980  Biso   1.000  H
  C87      1.0000 0.22880  0.29790  0.69290  Biso   1.000  C
  H74      1.0000 0.21380  0.30280  0.64980  Biso   1.000  H
  C88      1.0000 0.22970  0.40020  0.73690  Biso   1.000  C
  C89      1.0000 0.25390  0.38590  0.79800  Biso   1.000  C
  H75      1.0000 0.25640  0.45800  0.83100  Biso   1.000  H
  C90      1.0000 0.27290  0.28620  0.81350  Biso   1.000  C
  H76      1.0000 0.28830  0.28520  0.85590  Biso   1.000  H
  C91      1.0000 0.29180  0.05570  0.77680  Biso   1.000  C
  C92      1.0000 0.20710  0.50650  0.72360  Biso   1.000  C
  Cu3      1.0000 0.98436  0.58270  0.55980  Biso   1.000  Cu
  O29      1.0000 0.02170  0.69210  0.55010  Biso   1.000  O
  N9       1.0000 0.11200  0.70300  0.67030  Biso   1.000  N
  N10      1.0000 0.01180  0.46300  0.62500  Biso   1.000  N
  C93      1.0000 0.09240  0.59700  0.67280  Biso   1.000  C
  H77      1.0000 0.10070  0.52200  0.69910  Biso   1.000  H
  C94      1.0000 0.05970  0.59370  0.63740  Biso   1.000  C
  C95      1.0000 0.04960  0.69900  0.58570  Biso   1.000  C
  C96      1.0000 0.07410  0.80550  0.57920  Biso   1.000  C
  C97      1.0000 0.10250  0.80430  0.62470  Biso   1.000  C
  H78      1.0000 0.11660  0.87870  0.62470  Biso   1.000  H
  C98      1.0000 0.06390  0.92400  0.53420  Biso   1.000  C
  H79      1.0000 0.07320  0.00310  0.55910  Biso   1.000  H
  H80      1.0000 0.03970  0.93050  0.52860  Biso   1.000  H
  H81      1.0000 0.07220  0.91700  0.48560  Biso   1.000  H
  C99      1.0000 0.04010  0.48650  0.65090  Biso   1.000  C
  H82      1.0000 0.04990  0.42320  0.68440  Biso   1.000  H
  C100     1.0000 0.99640  0.33840  0.65930  Biso   1.000  C
  H83      1.0000 0.01250  0.28100  0.68890  Biso   1.000  H
  C101     1.0000 0.97140  0.41060  0.70410  Biso   1.000  C
  H84      1.0000 0.97110  0.37010  0.75340  Biso   1.000  H
  H85      1.0000 0.97780  0.50390  0.71070  Biso   1.000  H
  C102     1.0000 0.93690  0.40050  0.66180  Biso   1.000  C
  H86      1.0000 0.92200  0.34600  0.68930  Biso   1.000  H
  H87      1.0000 0.92690  0.48870  0.65410  Biso   1.000  H
  C103     1.0000 0.94240  0.33650  0.58770  Biso   1.000  C
  C104     1.0000 0.91190  0.26290  0.56760  Biso   1.000  C
  H88      1.0000 0.89320  0.30840  0.58670  Biso   1.000  H
  H89      1.0000 0.91390  0.17460  0.58880  Biso   1.000  H
  H90      1.0000 0.90820  0.25660  0.51380  Biso   1.000  H
  C105     1.0000 0.97410  0.26970  0.60390  Biso   1.000  C
  C106     1.0000 0.96990  0.13110  0.63570  Biso   1.000  C
  H91      1.0000 0.98500  0.12010  0.68040  Biso   1.000  H
  H92      1.0000 0.97490  0.06530  0.59910  Biso   1.000  H
  H93      1.0000 0.94700  0.11980  0.64770  Biso   1.000  H
  C107     1.0000 0.99020  0.24900  0.53130  Biso   1.000  C
  H94      1.0000 0.00860  0.31040  0.52880  Biso   1.000  H
  H95      1.0000 0.97370  0.26370  0.48950  Biso   1.000  H
  H96      1.0000 0.99860  0.15860  0.52950  Biso   1.000  H
  Cu4      1.0000 0.49701  0.05220  0.01710  Biso   1.000  Cu
  C108     1.0000 0.50630  0.27300  0.21370  Biso   1.000  C
  C109     1.0000 0.47350  0.33600  0.09280  Biso   1.000  C
  C110     1.0000 0.46620  0.46600  0.13110  Biso   1.000  C
  H97      1.0000 0.44250  0.48600  0.12270  Biso   1.000  H
  H98      1.0000 0.47900  0.53670  0.11090  Biso   1.000  H
  H99      1.0000 0.47240  0.45800  0.18410  Biso   1.000  H
  C111     1.0000 0.49940  0.37000  0.03880  Biso   1.000  C
  H100     1.0000 0.48830  0.38030  0.98910  Biso   1.000  H
  H101     1.0000 0.51570  0.29860  0.03870  Biso   1.000  H
  H102     1.0000 0.51060  0.45150  0.05420  Biso   1.000  H
  O30      1.0000 0.48060  0.94500  0.93710  Biso   1.000  O
  N11      1.0000 0.39060  0.89900  0.82550  Biso   1.000  N
  N12      1.0000 0.45480  0.14220  0.01630  Biso   1.000  N
  C112     1.0000 0.39510  0.97800  0.87710  Biso   1.000  C
  H103     1.0000 0.37630  0.02700  0.88920  Biso   1.000  H
  C113     1.0000 0.42640  0.00520  0.92120  Biso   1.000  C
  C114     1.0000 0.45170  0.91600  0.90660  Biso   1.000  C
  C115     1.0000 0.44560  0.81700  0.85870  Biso   1.000  C
  C116     1.0000 0.41320  0.81900  0.81870  Biso   1.000  C
  H104     1.0000 0.40870  0.75210  0.78300  Biso   1.000  H
  C117     1.0000 0.47300  0.72100  0.85200  Biso   1.000  C
  H105     1.0000 0.46400  0.64080  0.82740  Biso   1.000  H
  H106     1.0000 0.48330  0.69850  0.90080  Biso   1.000  H
  H107     1.0000 0.48950  0.75930  0.82230  Biso   1.000  H
  C118     1.0000 0.43070  0.11900  0.96330  Biso   1.000  C
  H108     1.0000 0.41480  0.18660  0.95320  Biso   1.000  H
  C119     1.0000 0.44320  0.27600  0.04770  Biso   1.000  C
  H109     1.0000 0.42890  0.33540  0.01460  Biso   1.000  H
  C120     1.0000 0.42770  0.20300  0.10960  Biso   1.000  C
  H110     1.0000 0.41710  0.12090  0.09040  Biso   1.000  H
  H111     1.0000 0.41060  0.25830  0.12990  Biso   1.000  H
  C121     1.0000 0.45560  0.17200  0.16970  Biso   1.000  C
  H112     1.0000 0.45690  0.07660  0.17900  Biso   1.000  H
  H113     1.0000 0.45160  0.21730  0.21620  Biso   1.000  H
  C122     1.0000 0.48810  0.22200  0.14100  Biso   1.000  C
  H114     1.0000 0.49050  0.31870  0.24230  Biso   1.000  H
  H115     1.0000 0.52380  0.33400  0.20250  Biso   1.000  H
  H116     1.0000 0.51600  0.19900  0.24230  Biso   1.000  H
  O31      1.0000 0.53120  0.91150  0.02320  Biso   1.000  O
  N13      1.0000 0.61490  0.87300  0.16070  Biso   1.000  N
  N14      1.0000 0.51570  0.14900  0.10100  Biso   1.000  N
  C123     1.0000 0.59720  0.98100  0.16870  Biso   1.000  C
  H117     1.0000 0.60450  0.04500  0.20450  Biso   1.000  H
  C124     1.0000 0.56580  0.00100  0.12110  Biso   1.000  C
  C125     1.0000 0.55730  0.90700  0.06640  Biso   1.000  C
  C126     1.0000 0.57950  0.79200  0.05460  Biso   1.000  C
  C127     1.0000 0.60700  0.79000  0.10480  Biso   1.000  C
  H118     1.0000 0.62240  0.72160  0.09900  Biso   1.000  H
  C128     1.0000 0.56540  0.69300  0.99920  Biso   1.000  C
  H119     1.0000 0.54200  0.71350  0.98540  Biso   1.000  H
  H120     1.0000 0.56730  0.60540  0.02070  Biso   1.000  H
  H121     1.0000 0.57770  0.69710  0.95540  Biso   1.000  H
  C129     1.0000 0.54650  0.11800  0.13670  Biso   1.000  C
  H122     1.0000 0.55570  0.17660  0.17370  Biso   1.000  H
  O32      1.0000 0.96620  0.72600  0.49960  Biso   1.000  O
  N15      1.0000 0.88420  0.68400  0.34550  Biso   1.000  N
  N16      1.0000 0.94410  0.45740  0.53470  Biso   1.000  N
  C130     1.0000 0.89430  0.57800  0.38390  Biso   1.000  C
  H123     1.0000 0.88450  0.49500  0.37330  Biso   1.000  H
  C131     1.0000 0.92000  0.59300  0.44070  Biso   1.000  C
  C132     1.0000 0.93570  0.71400  0.45620  Biso   1.000  C
  C133     1.0000 0.93240  0.81700  0.39940  Biso   1.000  C
  C134     1.0000 0.90590  0.80700  0.34840  Biso   1.000  C
  H124     1.0000 0.90080  0.87670  0.31450  Biso   1.000  H
  C135     1.0000 0.94630  0.95200  0.41310  Biso   1.000  C
  H125     1.0000 0.96420  0.94880  0.45320  Biso   1.000  H
  H126     1.0000 0.92880  0.01110  0.42700  Biso   1.000  H
  H127     1.0000 0.95520  0.98500  0.36830  Biso   1.000  H
  C136     1.0000 0.92440  0.47740  0.48330  Biso   1.000  C
  H128     1.0000 0.90970  0.40710  0.46940  Biso   1.000  H
  Cd7      1.0000 0.33700  0.20986  0.27108  Biso   1.000  Cd
  Cd8      1.0000 0.16250  0.36213  0.22921  Biso   1.000  Cd
  Cd9      1.0000 0.24959  0.28616  0.25021  Biso   1.000  Cd
  O33      1.0000 0.27185  0.32690  0.36350  Biso   1.000  O
  O34      1.0000 0.32587  0.35890  0.35710  Biso   1.000  O
  O35      1.0000 0.28530  0.65290  0.69990  Biso   1.000  O
  O36      1.0000 0.33690  0.72490  0.67740  Biso   1.000  O
  C137     1.0000 0.30200  0.45510  0.45670  Biso   1.000  C
  C138     1.0000 0.27510  0.45480  0.50060  Biso   1.000  C
  H129     1.0000 0.25530  0.40860  0.48550  Biso   1.000  H
  C139     1.0000 0.27830  0.52280  0.56540  Biso   1.000  C
  H130     1.0000 0.26030  0.52420  0.59530  Biso   1.000  H
  C140     1.0000 0.30550  0.58600  0.58770  Biso   1.000  C
  C141     1.0000 0.33220  0.58710  0.54050  Biso   1.000  C
  H131     1.0000 0.35170  0.63600  0.55420  Biso   1.000  H
  C142     1.0000 0.32940  0.51890  0.47730  Biso   1.000  C
  H132     1.0000 0.34740  0.51680  0.44730  Biso   1.000  H
  C143     1.0000 0.29860  0.37130  0.38680  Biso   1.000  C
  C144     1.0000 0.31020  0.66750  0.66010  Biso   1.000  C
  O37      1.0000 0.33392  0.34350  0.17460  Biso   1.000  O
  O38      1.0000 0.28484  0.41850  0.19650  Biso   1.000  O
  O39      1.0000 0.32587  0.72270  0.85770  Biso   1.000  O
  O40      1.0000 0.27186  0.74220  0.86380  Biso   1.000  O
  C145     1.0000 0.30690  0.48110  0.08800  Biso   1.000  C
  C146     1.0000 0.33300  0.48650  0.04650  Biso   1.000  C
  H133     1.0000 0.35310  0.44400  0.06330  Biso   1.000  H
  C147     1.0000 0.33070  0.55240  0.98070  Biso   1.000  C
  H134     1.0000 0.34900  0.55030  0.95150  Biso   1.000  H
  C148     1.0000 0.30190  0.62340  0.95510  Biso   1.000  C
  C149     1.0000 0.27660  0.61470  0.99530  Biso   1.000  C
  H135     1.0000 0.25620  0.65300  0.97670  Biso   1.000  H
  C150     1.0000 0.27800  0.55300  0.06370  Biso   1.000  C
  H136     1.0000 0.26000  0.55820  0.09330  Biso   1.000  H
  C151     1.0000 0.30840  0.41320  0.15950  Biso   1.000  C
  C152     1.0000 0.30100  0.69840  0.88570  Biso   1.000  C
  O41      1.0000 0.21349  0.45850  0.26300  Biso   1.000  O
  O42      1.0000 0.18315  0.56530  0.17700  Biso   1.000  O
  O43      1.0000 0.31650  0.00370  0.32290  Biso   1.000  O
  O44      1.0000 0.28687  0.11270  0.23700  Biso   1.000  O
  C153     1.0000 0.23050  0.67820  0.23540  Biso   1.000  C
  C154     1.0000 0.25150  0.67560  0.29700  Biso   1.000  C
  H137     1.0000 0.25340  0.60360  0.33020  Biso   1.000  H
  C155     1.0000 0.27120  0.79790  0.30710  Biso   1.000  C
  H138     1.0000 0.28620  0.80280  0.35020  Biso   1.000  H
  C156     1.0000 0.27030  0.90020  0.26310  Biso   1.000  C
  C157     1.0000 0.24610  0.88590  0.20200  Biso   1.000  C
  H139     1.0000 0.24360  0.95800  0.16900  Biso   1.000  H
  C158     1.0000 0.22710  0.78620  0.18650  Biso   1.000  C
  H140     1.0000 0.21170  0.78520  0.14410  Biso   1.000  H
  C159     1.0000 0.20820  0.55570  0.22320  Biso   1.000  C
  C160     1.0000 0.29290  0.00650  0.27640  Biso   1.000  C
  Cu5      1.0000 0.51564  0.08270  0.44020  Biso   1.000  Cu
  O45      1.0000 0.47830  0.19210  0.44990  Biso   1.000  O
  N17      1.0000 0.38800  0.20300  0.32970  Biso   1.000  N
  N18      1.0000 0.48820  0.96300  0.37500  Biso   1.000  N
  C161     1.0000 0.40760  0.09700  0.32720  Biso   1.000  C
  H141     1.0000 0.39930  0.02200  0.30090  Biso   1.000  H
  C162     1.0000 0.44030  0.09370  0.36260  Biso   1.000  C
  C163     1.0000 0.45040  0.19900  0.41430  Biso   1.000  C
  C164     1.0000 0.42590  0.30550  0.42080  Biso   1.000  C
  C165     1.0000 0.39750  0.30430  0.37530  Biso   1.000  C
  H142     1.0000 0.38340  0.37870  0.37530  Biso   1.000  H
  C166     1.0000 0.43610  0.42400  0.46580  Biso   1.000  C
  H143     1.0000 0.42680  0.50310  0.44090  Biso   1.000  H
  H144     1.0000 0.46030  0.43050  0.47140  Biso   1.000  H
  H145     1.0000 0.42780  0.41700  0.51440  Biso   1.000  H
  C167     1.0000 0.45990  0.98650  0.34910  Biso   1.000  C
  H146     1.0000 0.45010  0.92320  0.31560  Biso   1.000  H
  C168     1.0000 0.50360  0.83840  0.34070  Biso   1.000  C
  H147     1.0000 0.48750  0.78100  0.31110  Biso   1.000  H
  C169     1.0000 0.52860  0.91060  0.29590  Biso   1.000  C
  H148     1.0000 0.52890  0.87010  0.24660  Biso   1.000  H
  H149     1.0000 0.52220  0.00390  0.28930  Biso   1.000  H
  C170     1.0000 0.56310  0.90050  0.33820  Biso   1.000  C
  H150     1.0000 0.57800  0.84600  0.31070  Biso   1.000  H
  H151     1.0000 0.57310  0.98870  0.34590  Biso   1.000  H
  C171     1.0000 0.55760  0.83650  0.41230  Biso   1.000  C
  C172     1.0000 0.58810  0.76290  0.43240  Biso   1.000  C
  H152     1.0000 0.60680  0.80840  0.41330  Biso   1.000  H
  H153     1.0000 0.58610  0.67460  0.41120  Biso   1.000  H
  H154     1.0000 0.59180  0.75660  0.48620  Biso   1.000  H
  C173     1.0000 0.52590  0.76970  0.39610  Biso   1.000  C
  C174     1.0000 0.53010  0.63110  0.36430  Biso   1.000  C
  H155     1.0000 0.51500  0.62010  0.31960  Biso   1.000  H
  H156     1.0000 0.52510  0.56530  0.40090  Biso   1.000  H
  H157     1.0000 0.55300  0.61980  0.35230  Biso   1.000  H
  C175     1.0000 0.50980  0.74900  0.46870  Biso   1.000  C
  H158     1.0000 0.49140  0.81040  0.47120  Biso   1.000  H
  H159     1.0000 0.52630  0.76370  0.51050  Biso   1.000  H
  H160     1.0000 0.50140  0.65860  0.47050  Biso   1.000  H
  Cu6      1.0000 0.00299  0.55220  0.98290  Biso   1.000  Cu
  C176     1.0000 0.99370  0.77300  0.78630  Biso   1.000  C
  C177     1.0000 0.02650  0.83600  0.90720  Biso   1.000  C
  C178     1.0000 0.03380  0.96600  0.86890  Biso   1.000  C
  H161     1.0000 0.05750  0.98600  0.87730  Biso   1.000  H
  H162     1.0000 0.02100  0.03670  0.88910  Biso   1.000  H
  H163     1.0000 0.02760  0.95800  0.81590  Biso   1.000  H
  C179     1.0000 0.00060  0.87000  0.96120  Biso   1.000  C
  H164     1.0000 0.01170  0.88030  0.01090  Biso   1.000  H
  H165     1.0000 0.98430  0.79860  0.96130  Biso   1.000  H
  H166     1.0000 0.98940  0.95150  0.94580  Biso   1.000  H
  O46      1.0000 0.01940  0.44500  0.06290  Biso   1.000  O
  N19      1.0000 0.10940  0.39900  0.17450  Biso   1.000  N
  N20      1.0000 0.04520  0.64220  0.98370  Biso   1.000  N
  C180     1.0000 0.10490  0.47800  0.12290  Biso   1.000  C
  H167     1.0000 0.12370  0.52700  0.11080  Biso   1.000  H
  C181     1.0000 0.07360  0.50520  0.07880  Biso   1.000  C
  C182     1.0000 0.04830  0.41600  0.09340  Biso   1.000  C
  C183     1.0000 0.05440  0.31700  0.14130  Biso   1.000  C
  C184     1.0000 0.08680  0.31900  0.18130  Biso   1.000  C
  H168     1.0000 0.09130  0.25210  0.21700  Biso   1.000  H
  C185     1.0000 0.02700  0.22100  0.14800  Biso   1.000  C
  H169     1.0000 0.03600  0.14080  0.17260  Biso   1.000  H
  H170     1.0000 0.01670  0.19850  0.09920  Biso   1.000  H
  H171     1.0000 0.01050  0.25930  0.17770  Biso   1.000  H
  C186     1.0000 0.06930  0.61900  0.03670  Biso   1.000  C
  H172     1.0000 0.08520  0.68660  0.04680  Biso   1.000  H
  C187     1.0000 0.05680  0.77600  0.95230  Biso   1.000  C
  H173     1.0000 0.07110  0.83540  0.98540  Biso   1.000  H
  C188     1.0000 0.07230  0.70300  0.89040  Biso   1.000  C
  H174     1.0000 0.08290  0.62090  0.90960  Biso   1.000  H
  H175     1.0000 0.08940  0.75830  0.87010  Biso   1.000  H
  C189     1.0000 0.04440  0.67200  0.83030  Biso   1.000  C
  H176     1.0000 0.04310  0.57660  0.82100  Biso   1.000  H
  H177     1.0000 0.04840  0.71730  0.78380  Biso   1.000  H
  C190     1.0000 0.01190  0.72200  0.85900  Biso   1.000  C
  H178     1.0000 0.00950  0.81870  0.75770  Biso   1.000  H
  H179     1.0000 0.97620  0.83400  0.79750  Biso   1.000  H
  H180     1.0000 0.98400  0.69900  0.75770  Biso   1.000  H
  O47      1.0000 0.96880  0.41150  0.97680  Biso   1.000  O
  N21      1.0000 0.88510  0.37300  0.83930  Biso   1.000  N
  N22      1.0000 0.98430  0.64900  0.89900  Biso   1.000  N
  C191     1.0000 0.90280  0.48100  0.83130  Biso   1.000  C
  H181     1.0000 0.89550  0.54500  0.79550  Biso   1.000  H
  C192     1.0000 0.93420  0.50100  0.87890  Biso   1.000  C
  C193     1.0000 0.94270  0.40700  0.93360  Biso   1.000  C
  C194     1.0000 0.92050  0.29200  0.94540  Biso   1.000  C
  C195     1.0000 0.89300  0.29000  0.89520  Biso   1.000  C
  H182     1.0000 0.87760  0.22160  0.90100  Biso   1.000  H
  C196     1.0000 0.93460  0.19300  0.00080  Biso   1.000  C
  H183     1.0000 0.95800  0.21350  0.01460  Biso   1.000  H
  H184     1.0000 0.93270  0.10540  0.97930  Biso   1.000  H
  H185     1.0000 0.92230  0.19710  0.04460  Biso   1.000  H
  C197     1.0000 0.95350  0.61800  0.86330  Biso   1.000  C
  H186     1.0000 0.94430  0.67660  0.82630  Biso   1.000  H
  O48      1.0000 0.53380  0.22600  0.50040  Biso   1.000  O
  N23      1.0000 0.61580  0.18400  0.65450  Biso   1.000  N
  N24      1.0000 0.55590  0.95740  0.46530  Biso   1.000  N
  C198     1.0000 0.60570  0.07800  0.61610  Biso   1.000  C
  H187     1.0000 0.61550  0.99500  0.62670  Biso   1.000  H
  C199     1.0000 0.58000  0.09300  0.55930  Biso   1.000  C
  C200     1.0000 0.56430  0.21400  0.54380  Biso   1.000  C
  C201     1.0000 0.56760  0.31700  0.60060  Biso   1.000  C
  C202     1.0000 0.59410  0.30700  0.65160  Biso   1.000  C
  H188     1.0000 0.59920  0.37670  0.68550  Biso   1.000  H
  C203     1.0000 0.55370  0.45200  0.58690  Biso   1.000  C
  H189     1.0000 0.53580  0.44880  0.54680  Biso   1.000  H
  H190     1.0000 0.57120  0.51110  0.57300  Biso   1.000  H
  H191     1.0000 0.54480  0.48500  0.63170  Biso   1.000  H
  C204     1.0000 0.57560  0.97740  0.51670  Biso   1.000  C
  H192     1.0000 0.59030  0.90710  0.53060  Biso   1.000  H
  Cd10     1.0000 0.83700  0.70986  0.27108  Biso   1.000  Cd
  Cd11     1.0000 0.66250  0.86213  0.22921  Biso   1.000  Cd
  Cd12     1.0000 0.74959  0.78616  0.25021  Biso   1.000  Cd
  O49      1.0000 0.77185  0.82690  0.36350  Biso   1.000  O
  O50      1.0000 0.82587  0.85890  0.35710  Biso   1.000  O
  O51      1.0000 0.78530  0.15290  0.69990  Biso   1.000  O
  O52      1.0000 0.83690  0.22490  0.67740  Biso   1.000  O
  C205     1.0000 0.80200  0.95510  0.45670  Biso   1.000  C
  C206     1.0000 0.77510  0.95480  0.50060  Biso   1.000  C
  H193     1.0000 0.75530  0.90860  0.48550  Biso   1.000  H
  C207     1.0000 0.77830  0.02280  0.56540  Biso   1.000  C
  H194     1.0000 0.76030  0.02420  0.59530  Biso   1.000  H
  C208     1.0000 0.80550  0.08600  0.58770  Biso   1.000  C
  C209     1.0000 0.83220  0.08710  0.54050  Biso   1.000  C
  H195     1.0000 0.85170  0.13600  0.55420  Biso   1.000  H
  C210     1.0000 0.82940  0.01890  0.47730  Biso   1.000  C
  H196     1.0000 0.84740  0.01680  0.44730  Biso   1.000  H
  C211     1.0000 0.79860  0.87130  0.38680  Biso   1.000  C
  C212     1.0000 0.81020  0.16750  0.66010  Biso   1.000  C
  O53      1.0000 0.83392  0.84350  0.17460  Biso   1.000  O
  O54      1.0000 0.78484  0.91850  0.19650  Biso   1.000  O
  O55      1.0000 0.82587  0.22270  0.85770  Biso   1.000  O
  O56      1.0000 0.77186  0.24220  0.86380  Biso   1.000  O
  C213     1.0000 0.80690  0.98110  0.08800  Biso   1.000  C
  C214     1.0000 0.83300  0.98650  0.04650  Biso   1.000  C
  H197     1.0000 0.85310  0.94400  0.06330  Biso   1.000  H
  C215     1.0000 0.83070  0.05240  0.98070  Biso   1.000  C
  H198     1.0000 0.84900  0.05030  0.95150  Biso   1.000  H
  C216     1.0000 0.80190  0.12340  0.95510  Biso   1.000  C
  C217     1.0000 0.77660  0.11470  0.99530  Biso   1.000  C
  H199     1.0000 0.75620  0.15300  0.97670  Biso   1.000  H
  C218     1.0000 0.77800  0.05300  0.06370  Biso   1.000  C
  H200     1.0000 0.76000  0.05820  0.09330  Biso   1.000  H
  C219     1.0000 0.80840  0.91320  0.15950  Biso   1.000  C
  C220     1.0000 0.80100  0.19840  0.88570  Biso   1.000  C
  O57      1.0000 0.71349  0.95850  0.26300  Biso   1.000  O
  O58      1.0000 0.68315  0.06530  0.17700  Biso   1.000  O
  O59      1.0000 0.81650  0.50370  0.32290  Biso   1.000  O
  O60      1.0000 0.78687  0.61270  0.23700  Biso   1.000  O
  C221     1.0000 0.73050  0.17820  0.23540  Biso   1.000  C
  C222     1.0000 0.75150  0.17560  0.29700  Biso   1.000  C
  H201     1.0000 0.75340  0.10360  0.33020  Biso   1.000  H
  C223     1.0000 0.77120  0.29790  0.30710  Biso   1.000  C
  H202     1.0000 0.78620  0.30280  0.35020  Biso   1.000  H
  C224     1.0000 0.77030  0.40020  0.26310  Biso   1.000  C
  C225     1.0000 0.74610  0.38590  0.20200  Biso   1.000  C
  H203     1.0000 0.74360  0.45800  0.16900  Biso   1.000  H
  C226     1.0000 0.72710  0.28620  0.18650  Biso   1.000  C
  H204     1.0000 0.71170  0.28520  0.14410  Biso   1.000  H
  C227     1.0000 0.70820  0.05570  0.22320  Biso   1.000  C
  C228     1.0000 0.79290  0.50650  0.27640  Biso   1.000  C
  Cu7      1.0000 0.01564  0.58270  0.44020  Biso   1.000  Cu
  O61      1.0000 0.97830  0.69210  0.44990  Biso   1.000  O
  N25      1.0000 0.88800  0.70300  0.32970  Biso   1.000  N
  N26      1.0000 0.98820  0.46300  0.37500  Biso   1.000  N
  C229     1.0000 0.90760  0.59700  0.32720  Biso   1.000  C
  H205     1.0000 0.89930  0.52200  0.30090  Biso   1.000  H
  C230     1.0000 0.94030  0.59370  0.36260  Biso   1.000  C
  C231     1.0000 0.95040  0.69900  0.41430  Biso   1.000  C
  C232     1.0000 0.92590  0.80550  0.42080  Biso   1.000  C
  C233     1.0000 0.89750  0.80430  0.37530  Biso   1.000  C
  H206     1.0000 0.88340  0.87870  0.37530  Biso   1.000  H
  C234     1.0000 0.93610  0.92400  0.46580  Biso   1.000  C
  H207     1.0000 0.92680  0.00310  0.44090  Biso   1.000  H
  H208     1.0000 0.96030  0.93050  0.47140  Biso   1.000  H
  H209     1.0000 0.92780  0.91700  0.51440  Biso   1.000  H
  C235     1.0000 0.95990  0.48650  0.34910  Biso   1.000  C
  H210     1.0000 0.95010  0.42320  0.31560  Biso   1.000  H
  C236     1.0000 0.00360  0.33840  0.34070  Biso   1.000  C
  H211     1.0000 0.98750  0.28100  0.31110  Biso   1.000  H
  C237     1.0000 0.02860  0.41060  0.29590  Biso   1.000  C
  H212     1.0000 0.02890  0.37010  0.24660  Biso   1.000  H
  H213     1.0000 0.02220  0.50390  0.28930  Biso   1.000  H
  C238     1.0000 0.06310  0.40050  0.33820  Biso   1.000  C
  H214     1.0000 0.07800  0.34600  0.31070  Biso   1.000  H
  H215     1.0000 0.07310  0.48870  0.34590  Biso   1.000  H
  C239     1.0000 0.05760  0.33650  0.41230  Biso   1.000  C
  C240     1.0000 0.08810  0.26290  0.43240  Biso   1.000  C
  H216     1.0000 0.10680  0.30840  0.41330  Biso   1.000  H
  H217     1.0000 0.08610  0.17460  0.41120  Biso   1.000  H
  H218     1.0000 0.09180  0.25660  0.48620  Biso   1.000  H
  C241     1.0000 0.02590  0.26970  0.39610  Biso   1.000  C
  C242     1.0000 0.03010  0.13110  0.36430  Biso   1.000  C
  H219     1.0000 0.01500  0.12010  0.31960  Biso   1.000  H
  H220     1.0000 0.02510  0.06530  0.40090  Biso   1.000  H
  H221     1.0000 0.05300  0.11980  0.35230  Biso   1.000  H
  C243     1.0000 0.00980  0.24900  0.46870  Biso   1.000  C
  H222     1.0000 0.99140  0.31040  0.47120  Biso   1.000  H
  H223     1.0000 0.02630  0.26370  0.51050  Biso   1.000  H
  H224     1.0000 0.00140  0.15860  0.47050  Biso   1.000  H
  Cu8      1.0000 0.50299  0.05220  0.98290  Biso   1.000  Cu
  C244     1.0000 0.49370  0.27300  0.78630  Biso   1.000  C
  C245     1.0000 0.52650  0.33600  0.90720  Biso   1.000  C
  C246     1.0000 0.53380  0.46600  0.86890  Biso   1.000  C
  H225     1.0000 0.55750  0.48600  0.87730  Biso   1.000  H
  H226     1.0000 0.52100  0.53670  0.88910  Biso   1.000  H
  H227     1.0000 0.52760  0.45800  0.81590  Biso   1.000  H
  C247     1.0000 0.50060  0.37000  0.96120  Biso   1.000  C
  H228     1.0000 0.51170  0.38030  0.01090  Biso   1.000  H
  H229     1.0000 0.48430  0.29860  0.96130  Biso   1.000  H
  H230     1.0000 0.48940  0.45150  0.94580  Biso   1.000  H
  O62      1.0000 0.51940  0.94500  0.06290  Biso   1.000  O
  N27      1.0000 0.60940  0.89900  0.17450  Biso   1.000  N
  N28      1.0000 0.54520  0.14220  0.98370  Biso   1.000  N
  C248     1.0000 0.60490  0.97800  0.12290  Biso   1.000  C
  H231     1.0000 0.62370  0.02700  0.11080  Biso   1.000  H
  C249     1.0000 0.57360  0.00520  0.07880  Biso   1.000  C
  C250     1.0000 0.54830  0.91600  0.09340  Biso   1.000  C
  C251     1.0000 0.55440  0.81700  0.14130  Biso   1.000  C
  C252     1.0000 0.58680  0.81900  0.18130  Biso   1.000  C
  H232     1.0000 0.59130  0.75210  0.21700  Biso   1.000  H
  C253     1.0000 0.52700  0.72100  0.14800  Biso   1.000  C
  H233     1.0000 0.53600  0.64080  0.17260  Biso   1.000  H
  H234     1.0000 0.51670  0.69850  0.09920  Biso   1.000  H
  H235     1.0000 0.51050  0.75930  0.17770  Biso   1.000  H
  C254     1.0000 0.56930  0.11900  0.03670  Biso   1.000  C
  H236     1.0000 0.58520  0.18660  0.04680  Biso   1.000  H
  C255     1.0000 0.55680  0.27600  0.95230  Biso   1.000  C
  H237     1.0000 0.57110  0.33540  0.98540  Biso   1.000  H
  C256     1.0000 0.57230  0.20300  0.89040  Biso   1.000  C
  H238     1.0000 0.58290  0.12090  0.90960  Biso   1.000  H
  H239     1.0000 0.58940  0.25830  0.87010  Biso   1.000  H
  C257     1.0000 0.54440  0.17200  0.83030  Biso   1.000  C
  H240     1.0000 0.54310  0.07660  0.82100  Biso   1.000  H
  H241     1.0000 0.54840  0.21730  0.78380  Biso   1.000  H
  C258     1.0000 0.51190  0.22200  0.85900  Biso   1.000  C
  H242     1.0000 0.50950  0.31870  0.75770  Biso   1.000  H
  H243     1.0000 0.47620  0.33400  0.79750  Biso   1.000  H
  H244     1.0000 0.48400  0.19900  0.75770  Biso   1.000  H
  O63      1.0000 0.46880  0.91150  0.97680  Biso   1.000  O
  N29      1.0000 0.38510  0.87300  0.83930  Biso   1.000  N
  N30      1.0000 0.48430  0.14900  0.89900  Biso   1.000  N
  C259     1.0000 0.40280  0.98100  0.83130  Biso   1.000  C
  H245     1.0000 0.39550  0.04500  0.79550  Biso   1.000  H
  C260     1.0000 0.43420  0.00100  0.87890  Biso   1.000  C
  C261     1.0000 0.44270  0.90700  0.93360  Biso   1.000  C
  C262     1.0000 0.42050  0.79200  0.94540  Biso   1.000  C
  C263     1.0000 0.39300  0.79000  0.89520  Biso   1.000  C
  H246     1.0000 0.37760  0.72160  0.90100  Biso   1.000  H
  C264     1.0000 0.43460  0.69300  0.00080  Biso   1.000  C
  H247     1.0000 0.45800  0.71350  0.01460  Biso   1.000  H
  H248     1.0000 0.43270  0.60540  0.97930  Biso   1.000  H
  H249     1.0000 0.42230  0.69710  0.04460  Biso   1.000  H
  C265     1.0000 0.45350  0.11800  0.86330  Biso   1.000  C
  H250     1.0000 0.44430  0.17660  0.82630  Biso   1.000  H
  O64      1.0000 0.03380  0.72600  0.50040  Biso   1.000  O
  N31      1.0000 0.11580  0.68400  0.65450  Biso   1.000  N
  N32      1.0000 0.05590  0.45740  0.46530  Biso   1.000  N
  C266     1.0000 0.10570  0.57800  0.61610  Biso   1.000  C
  H251     1.0000 0.11550  0.49500  0.62670  Biso   1.000  H
  C267     1.0000 0.08000  0.59300  0.55930  Biso   1.000  C
  C268     1.0000 0.06430  0.71400  0.54380  Biso   1.000  C
  C269     1.0000 0.06760  0.81700  0.60060  Biso   1.000  C
  C270     1.0000 0.09410  0.80700  0.65160  Biso   1.000  C
  H252     1.0000 0.09920  0.87670  0.68550  Biso   1.000  H
  C271     1.0000 0.05370  0.95200  0.58690  Biso   1.000  C
  H253     1.0000 0.03580  0.94880  0.54680  Biso   1.000  H
  H254     1.0000 0.07120  0.01110  0.57300  Biso   1.000  H
  H255     1.0000 0.04480  0.98500  0.63170  Biso   1.000  H
  C272     1.0000 0.07560  0.47740  0.51670  Biso   1.000  C
  H256     1.0000 0.09030  0.40710  0.53060  Biso   1.000  H
