data_image0
_cell_length_a       12.9197
_cell_length_b       12.9197
_cell_length_c       9.8491
_cell_angle_alpha    90
_cell_angle_beta     90
_cell_angle_gamma    90

_symmetry_space_group_name_H-M    "P 1"
_symmetry_int_tables_number       1

loop_
  _symmetry_equiv_pos_as_xyz
  'x, y, z'

loop_
  _atom_site_label
  _atom_site_occupancy
  _atom_site_fract_x
  _atom_site_fract_y
  _atom_site_fract_z
  _atom_site_thermal_displace_type
  _atom_site_B_iso_or_equiv
  _atom_site_type_symbol
  O1       1.0000 0.60990  0.88890  0.93070  Biso   1.000  O
  P1       1.0000 0.63710  0.86630  0.77870  Biso   1.000  P
  Co1      1.0000 0.86409  0.94522  0.63135  Biso   1.000  Co
  P2       1.0000 0.82401  0.92776  0.31620  Biso   1.000  P
  O2       1.0000 0.78830  0.91370  0.46310  Biso   1.000  O
  O3       1.0000 0.84490  0.04170  0.28500  Biso   1.000  O
  O4       1.0000 0.91860  0.86060  0.28520  Biso   1.000  O
  O5       1.0000 0.74480  0.88920  0.75180  Biso   1.000  O
  O6       1.0000 0.73460  0.89490  0.21980  Biso   1.000  O
  O7       1.0000 0.56300  0.94000  0.80100  Biso   1.000  O
  O8       1.0000 0.39010  0.11110  0.93070  Biso   1.000  O
  P3       1.0000 0.36290  0.13370  0.77870  Biso   1.000  P
  Co2      1.0000 0.13591  0.05478  0.63135  Biso   1.000  Co
  P4       1.0000 0.17599  0.07224  0.31620  Biso   1.000  P
  O9       1.0000 0.21170  0.08630  0.46310  Biso   1.000  O
  O10      1.0000 0.15510  0.95830  0.28500  Biso   1.000  O
  O11      1.0000 0.08140  0.13940  0.28520  Biso   1.000  O
  O12      1.0000 0.25520  0.11080  0.75180  Biso   1.000  O
  O13      1.0000 0.26540  0.10510  0.21980  Biso   1.000  O
  O14      1.0000 0.43700  0.06000  0.80100  Biso   1.000  O
  O15      1.0000 0.88890  0.39010  0.06930  Biso   1.000  O
  P5       1.0000 0.86630  0.36290  0.22130  Biso   1.000  P
  Co3      1.0000 0.94522  0.13591  0.36865  Biso   1.000  Co
  P6       1.0000 0.92776  0.17599  0.68380  Biso   1.000  P
  O16      1.0000 0.91370  0.21170  0.53690  Biso   1.000  O
  O17      1.0000 0.04170  0.15510  0.71500  Biso   1.000  O
  O18      1.0000 0.86060  0.08140  0.71480  Biso   1.000  O
  O19      1.0000 0.88920  0.25520  0.24820  Biso   1.000  O
  O20      1.0000 0.89490  0.26540  0.78020  Biso   1.000  O
  O21      1.0000 0.94000  0.43700  0.19900  Biso   1.000  O
  O22      1.0000 0.11110  0.60990  0.06930  Biso   1.000  O
  P7       1.0000 0.13370  0.63710  0.22130  Biso   1.000  P
  Co4      1.0000 0.05478  0.86409  0.36865  Biso   1.000  Co
  P8       1.0000 0.07224  0.82401  0.68380  Biso   1.000  P
  O23      1.0000 0.08630  0.78830  0.53690  Biso   1.000  O
  O24      1.0000 0.95830  0.84490  0.71500  Biso   1.000  O
  O25      1.0000 0.13940  0.91860  0.71480  Biso   1.000  O
  O26      1.0000 0.11080  0.74480  0.24820  Biso   1.000  O
  O27      1.0000 0.10510  0.73460  0.78020  Biso   1.000  O
  O28      1.0000 0.06000  0.56300  0.19900  Biso   1.000  O
  O29      1.0000 0.10990  0.61110  0.43070  Biso   1.000  O
  P9       1.0000 0.13710  0.63370  0.27870  Biso   1.000  P
  Co5      1.0000 0.36409  0.55478  0.13135  Biso   1.000  Co
  P10      1.0000 0.32401  0.57224  0.81620  Biso   1.000  P
  O30      1.0000 0.28830  0.58630  0.96310  Biso   1.000  O
  O31      1.0000 0.34490  0.45830  0.78500  Biso   1.000  O
  O32      1.0000 0.41860  0.63940  0.78520  Biso   1.000  O
  O33      1.0000 0.24480  0.61080  0.25180  Biso   1.000  O
  O34      1.0000 0.23460  0.60510  0.71980  Biso   1.000  O
  O35      1.0000 0.06300  0.56000  0.30100  Biso   1.000  O
  O36      1.0000 0.89010  0.38890  0.43070  Biso   1.000  O
  P11      1.0000 0.86290  0.36630  0.27870  Biso   1.000  P
  Co6      1.0000 0.63591  0.44522  0.13135  Biso   1.000  Co
  P12      1.0000 0.67599  0.42776  0.81620  Biso   1.000  P
  O37      1.0000 0.71170  0.41370  0.96310  Biso   1.000  O
  O38      1.0000 0.65510  0.54170  0.78500  Biso   1.000  O
  O39      1.0000 0.58140  0.36060  0.78520  Biso   1.000  O
  O40      1.0000 0.75520  0.38920  0.25180  Biso   1.000  O
  O41      1.0000 0.76540  0.39490  0.71980  Biso   1.000  O
  O42      1.0000 0.93700  0.44000  0.30100  Biso   1.000  O
  O43      1.0000 0.38890  0.10990  0.56930  Biso   1.000  O
  P13      1.0000 0.36630  0.13710  0.72130  Biso   1.000  P
  Co7      1.0000 0.44522  0.36409  0.86865  Biso   1.000  Co
  P14      1.0000 0.42776  0.32401  0.18380  Biso   1.000  P
  O44      1.0000 0.41370  0.28830  0.03690  Biso   1.000  O
  O45      1.0000 0.54170  0.34490  0.21500  Biso   1.000  O
  O46      1.0000 0.36060  0.41860  0.21480  Biso   1.000  O
  O47      1.0000 0.38920  0.24480  0.74820  Biso   1.000  O
  O48      1.0000 0.39490  0.23460  0.28020  Biso   1.000  O
  O49      1.0000 0.44000  0.06300  0.69900  Biso   1.000  O
  O50      1.0000 0.61110  0.89010  0.56930  Biso   1.000  O
  P15      1.0000 0.63370  0.86290  0.72130  Biso   1.000  P
  Co8      1.0000 0.55478  0.63591  0.86865  Biso   1.000  Co
  P16      1.0000 0.57224  0.67599  0.18380  Biso   1.000  P
  O51      1.0000 0.58630  0.71170  0.03690  Biso   1.000  O
  O52      1.0000 0.45830  0.65510  0.21500  Biso   1.000  O
  O53      1.0000 0.63940  0.58140  0.21480  Biso   1.000  O
  O54      1.0000 0.61080  0.75520  0.74820  Biso   1.000  O
  O55      1.0000 0.60510  0.76540  0.28020  Biso   1.000  O
  O56      1.0000 0.56000  0.93700  0.69900  Biso   1.000  O
