data_image0
_cell_length_a       17.144
_cell_length_b       17.144
_cell_length_c       14.514
_cell_angle_alpha    90
_cell_angle_beta     90
_cell_angle_gamma    120

_symmetry_space_group_name_H-M    "P 1"
_symmetry_int_tables_number       1

loop_
  _symmetry_equiv_pos_as_xyz
  'x, y, z'

loop_
  _atom_site_label
  _atom_site_occupancy
  _atom_site_fract_x
  _atom_site_fract_y
  _atom_site_fract_z
  _atom_site_thermal_displace_type
  _atom_site_B_iso_or_equiv
  _atom_site_type_symbol
  O1       1.0000 0.34664  0.52532  0.65180  Biso   1.000  O
  C1       1.0000 0.41310  0.44910  0.52980  Biso   1.000  C
  H1       1.0000 0.35390  0.41410  0.54970  Biso   1.000  H
  C2       1.0000 0.23150  0.33690  0.77490  Biso   1.000  C
  H2       1.0000 0.29080  0.36710  0.79560  Biso   1.000  H
  C3       1.0000 0.18400  0.24150  0.77020  Biso   1.000  C
  H3       1.0000 0.21500  0.21090  0.78180  Biso   1.000  H
  O2       1.0000 0.47468  0.82132  0.65180  Biso   1.000  O
  C4       1.0000 0.55090  0.96400  0.52980  Biso   1.000  C
  H4       1.0000 0.58590  0.93980  0.54970  Biso   1.000  H
  C5       1.0000 0.66310  0.89460  0.77490  Biso   1.000  C
  H5       1.0000 0.63290  0.92370  0.79560  Biso   1.000  H
  C6       1.0000 0.75850  0.94250  0.77020  Biso   1.000  C
  H6       1.0000 0.78910  0.00410  0.78180  Biso   1.000  H
  O3       1.0000 0.17868  0.65336  0.65180  Biso   1.000  O
  C7       1.0000 0.03600  0.58690  0.52980  Biso   1.000  C
  H7       1.0000 0.06020  0.64610  0.54970  Biso   1.000  H
  C8       1.0000 0.10540  0.76850  0.77490  Biso   1.000  C
  H8       1.0000 0.07630  0.70920  0.79560  Biso   1.000  H
  C9       1.0000 0.05750  0.81600  0.77020  Biso   1.000  C
  H9       1.0000 0.99590  0.78500  0.78180  Biso   1.000  H
  O4       1.0000 0.65336  0.47468  0.15180  Biso   1.000  O
  C10      1.0000 0.58690  0.55090  0.02980  Biso   1.000  C
  H10      1.0000 0.64610  0.58590  0.04970  Biso   1.000  H
  C11      1.0000 0.76850  0.66310  0.27490  Biso   1.000  C
  H11      1.0000 0.70920  0.63290  0.29560  Biso   1.000  H
  C12      1.0000 0.81600  0.75850  0.27020  Biso   1.000  C
  H12      1.0000 0.78500  0.78910  0.28180  Biso   1.000  H
  O5       1.0000 0.52532  0.17868  0.15180  Biso   1.000  O
  C13      1.0000 0.44910  0.03600  0.02980  Biso   1.000  C
  H13      1.0000 0.41410  0.06020  0.04970  Biso   1.000  H
  C14      1.0000 0.33690  0.10540  0.27490  Biso   1.000  C
  H14      1.0000 0.36710  0.07630  0.29560  Biso   1.000  H
  C15      1.0000 0.24150  0.05750  0.27020  Biso   1.000  C
  H15      1.0000 0.21090  0.99590  0.28180  Biso   1.000  H
  O6       1.0000 0.82132  0.34664  0.15180  Biso   1.000  O
  C16      1.0000 0.96400  0.41310  0.02980  Biso   1.000  C
  H16      1.0000 0.93980  0.35390  0.04970  Biso   1.000  H
  C17      1.0000 0.89460  0.23150  0.27490  Biso   1.000  C
  H17      1.0000 0.92370  0.29080  0.29560  Biso   1.000  H
  C18      1.0000 0.94250  0.18400  0.27020  Biso   1.000  C
  H18      1.0000 0.00410  0.21500  0.28180  Biso   1.000  H
  O7       1.0000 0.52532  0.34664  0.34820  Biso   1.000  O
  C19      1.0000 0.44910  0.41310  0.47020  Biso   1.000  C
  H19      1.0000 0.41410  0.35390  0.45030  Biso   1.000  H
  C20      1.0000 0.33690  0.23150  0.22510  Biso   1.000  C
  H20      1.0000 0.36710  0.29080  0.20440  Biso   1.000  H
  C21      1.0000 0.24150  0.18400  0.22980  Biso   1.000  C
  H21      1.0000 0.21090  0.21500  0.21820  Biso   1.000  H
  O8       1.0000 0.82132  0.47468  0.34820  Biso   1.000  O
  C22      1.0000 0.96400  0.55090  0.47020  Biso   1.000  C
  H22      1.0000 0.93980  0.58590  0.45030  Biso   1.000  H
  C23      1.0000 0.89460  0.66310  0.22510  Biso   1.000  C
  H23      1.0000 0.92370  0.63290  0.20440  Biso   1.000  H
  C24      1.0000 0.94250  0.75850  0.22980  Biso   1.000  C
  H24      1.0000 0.00410  0.78910  0.21820  Biso   1.000  H
  O9       1.0000 0.65336  0.17868  0.34820  Biso   1.000  O
  C25      1.0000 0.58690  0.03600  0.47020  Biso   1.000  C
  H25      1.0000 0.64610  0.06020  0.45030  Biso   1.000  H
  C26      1.0000 0.76850  0.10540  0.22510  Biso   1.000  C
  H26      1.0000 0.70920  0.07630  0.20440  Biso   1.000  H
  C27      1.0000 0.81600  0.05750  0.22980  Biso   1.000  C
  H27      1.0000 0.78500  0.99590  0.21820  Biso   1.000  H
  O10      1.0000 0.47468  0.65336  0.84820  Biso   1.000  O
  C28      1.0000 0.55090  0.58690  0.97020  Biso   1.000  C
  H28      1.0000 0.58590  0.64610  0.95030  Biso   1.000  H
  C29      1.0000 0.66310  0.76850  0.72510  Biso   1.000  C
  H29      1.0000 0.63290  0.70920  0.70440  Biso   1.000  H
  C30      1.0000 0.75850  0.81600  0.72980  Biso   1.000  C
  H30      1.0000 0.78910  0.78500  0.71820  Biso   1.000  H
  O11      1.0000 0.17868  0.52532  0.84820  Biso   1.000  O
  C31      1.0000 0.03600  0.44910  0.97020  Biso   1.000  C
  H31      1.0000 0.06020  0.41410  0.95030  Biso   1.000  H
  C32      1.0000 0.10540  0.33690  0.72510  Biso   1.000  C
  H32      1.0000 0.07630  0.36710  0.70440  Biso   1.000  H
  C33      1.0000 0.05750  0.24150  0.72980  Biso   1.000  C
  H33      1.0000 0.99590  0.21090  0.71820  Biso   1.000  H
  O12      1.0000 0.34664  0.82132  0.84820  Biso   1.000  O
  C34      1.0000 0.41310  0.96400  0.97020  Biso   1.000  C
  H34      1.0000 0.35390  0.93980  0.95030  Biso   1.000  H
  C35      1.0000 0.23150  0.89460  0.72510  Biso   1.000  C
  H35      1.0000 0.29080  0.92370  0.70440  Biso   1.000  H
  C36      1.0000 0.18400  0.94250  0.72980  Biso   1.000  C
  H36      1.0000 0.21500  0.00410  0.71820  Biso   1.000  H
  O13      1.0000 0.65336  0.47468  0.34820  Biso   1.000  O
  C37      1.0000 0.58690  0.55090  0.47020  Biso   1.000  C
  H37      1.0000 0.64610  0.58590  0.45030  Biso   1.000  H
  C38      1.0000 0.76850  0.66310  0.22510  Biso   1.000  C
  H38      1.0000 0.70920  0.63290  0.20440  Biso   1.000  H
  C39      1.0000 0.81600  0.75850  0.22980  Biso   1.000  C
  H39      1.0000 0.78500  0.78910  0.21820  Biso   1.000  H
  O14      1.0000 0.52532  0.17868  0.34820  Biso   1.000  O
  C40      1.0000 0.44910  0.03600  0.47020  Biso   1.000  C
  H40      1.0000 0.41410  0.06020  0.45030  Biso   1.000  H
  C41      1.0000 0.33690  0.10540  0.22510  Biso   1.000  C
  H41      1.0000 0.36710  0.07630  0.20440  Biso   1.000  H
  C42      1.0000 0.24150  0.05750  0.22980  Biso   1.000  C
  H42      1.0000 0.21090  0.99590  0.21820  Biso   1.000  H
  O15      1.0000 0.82132  0.34664  0.34820  Biso   1.000  O
  C43      1.0000 0.96400  0.41310  0.47020  Biso   1.000  C
  H43      1.0000 0.93980  0.35390  0.45030  Biso   1.000  H
  C44      1.0000 0.89460  0.23150  0.22510  Biso   1.000  C
  H44      1.0000 0.92370  0.29080  0.20440  Biso   1.000  H
  C45      1.0000 0.94250  0.18400  0.22980  Biso   1.000  C
  H45      1.0000 0.00410  0.21500  0.21820  Biso   1.000  H
  O16      1.0000 0.34664  0.52532  0.84820  Biso   1.000  O
  C46      1.0000 0.41310  0.44910  0.97020  Biso   1.000  C
  H46      1.0000 0.35390  0.41410  0.95030  Biso   1.000  H
  C47      1.0000 0.23150  0.33690  0.72510  Biso   1.000  C
  H47      1.0000 0.29080  0.36710  0.70440  Biso   1.000  H
  C48      1.0000 0.18400  0.24150  0.72980  Biso   1.000  C
  H48      1.0000 0.21500  0.21090  0.71820  Biso   1.000  H
  O17      1.0000 0.47468  0.82132  0.84820  Biso   1.000  O
  C49      1.0000 0.55090  0.96400  0.97020  Biso   1.000  C
  H49      1.0000 0.58590  0.93980  0.95030  Biso   1.000  H
  C50      1.0000 0.66310  0.89460  0.72510  Biso   1.000  C
  H50      1.0000 0.63290  0.92370  0.70440  Biso   1.000  H
  C51      1.0000 0.75850  0.94250  0.72980  Biso   1.000  C
  H51      1.0000 0.78910  0.00410  0.71820  Biso   1.000  H
  O18      1.0000 0.17868  0.65336  0.84820  Biso   1.000  O
  C52      1.0000 0.03600  0.58690  0.97020  Biso   1.000  C
  H52      1.0000 0.06020  0.64610  0.95030  Biso   1.000  H
  C53      1.0000 0.10540  0.76850  0.72510  Biso   1.000  C
  H53      1.0000 0.07630  0.70920  0.70440  Biso   1.000  H
  C54      1.0000 0.05750  0.81600  0.72980  Biso   1.000  C
  H54      1.0000 0.99590  0.78500  0.71820  Biso   1.000  H
  O19      1.0000 0.47468  0.65336  0.65180  Biso   1.000  O
  C55      1.0000 0.55090  0.58690  0.52980  Biso   1.000  C
  H55      1.0000 0.58590  0.64610  0.54970  Biso   1.000  H
  C56      1.0000 0.66310  0.76850  0.77490  Biso   1.000  C
  H56      1.0000 0.63290  0.70920  0.79560  Biso   1.000  H
  C57      1.0000 0.75850  0.81600  0.77020  Biso   1.000  C
  H57      1.0000 0.78910  0.78500  0.78180  Biso   1.000  H
  O20      1.0000 0.17868  0.52532  0.65180  Biso   1.000  O
  C58      1.0000 0.03600  0.44910  0.52980  Biso   1.000  C
  H58      1.0000 0.06020  0.41410  0.54970  Biso   1.000  H
  C59      1.0000 0.10540  0.33690  0.77490  Biso   1.000  C
  H59      1.0000 0.07630  0.36710  0.79560  Biso   1.000  H
  C60      1.0000 0.05750  0.24150  0.77020  Biso   1.000  C
  H60      1.0000 0.99590  0.21090  0.78180  Biso   1.000  H
  O21      1.0000 0.34664  0.82132  0.65180  Biso   1.000  O
  C61      1.0000 0.41310  0.96400  0.52980  Biso   1.000  C
  H61      1.0000 0.35390  0.93980  0.54970  Biso   1.000  H
  C62      1.0000 0.23150  0.89460  0.77490  Biso   1.000  C
  H62      1.0000 0.29080  0.92370  0.79560  Biso   1.000  H
  C63      1.0000 0.18400  0.94250  0.77020  Biso   1.000  C
  H63      1.0000 0.21500  0.00410  0.78180  Biso   1.000  H
  O22      1.0000 0.52532  0.34664  0.15180  Biso   1.000  O
  C64      1.0000 0.44910  0.41310  0.02980  Biso   1.000  C
  H64      1.0000 0.41410  0.35390  0.04970  Biso   1.000  H
  C65      1.0000 0.33690  0.23150  0.27490  Biso   1.000  C
  H65      1.0000 0.36710  0.29080  0.29560  Biso   1.000  H
  C66      1.0000 0.24150  0.18400  0.27020  Biso   1.000  C
  H66      1.0000 0.21090  0.21500  0.28180  Biso   1.000  H
  O23      1.0000 0.82132  0.47468  0.15180  Biso   1.000  O
  C67      1.0000 0.96400  0.55090  0.02980  Biso   1.000  C
  H67      1.0000 0.93980  0.58590  0.04970  Biso   1.000  H
  C68      1.0000 0.89460  0.66310  0.27490  Biso   1.000  C
  H68      1.0000 0.92370  0.63290  0.29560  Biso   1.000  H
  C69      1.0000 0.94250  0.75850  0.27020  Biso   1.000  C
  H69      1.0000 0.00410  0.78910  0.28180  Biso   1.000  H
  O24      1.0000 0.65336  0.17868  0.15180  Biso   1.000  O
  C70      1.0000 0.58690  0.03600  0.02980  Biso   1.000  C
  H70      1.0000 0.64610  0.06020  0.04970  Biso   1.000  H
  C71      1.0000 0.76850  0.10540  0.27490  Biso   1.000  C
  H71      1.0000 0.70920  0.07630  0.29560  Biso   1.000  H
  C72      1.0000 0.81600  0.05750  0.27020  Biso   1.000  C
  H72      1.0000 0.78500  0.99590  0.28180  Biso   1.000  H
  Fe1      1.0000 0.26445  0.52891  0.75000  Biso   1.000  Fe
  N1       1.0000 0.19200  0.38400  0.75000  Biso   1.000  N
  C73      1.0000 0.09725  0.19450  0.75000  Biso   1.000  C
  C74      1.0000 0.04735  0.09470  0.75000  Biso   1.000  C
  Fe2      1.0000 0.47109  0.73555  0.75000  Biso   1.000  Fe
  N2       1.0000 0.61600  0.80800  0.75000  Biso   1.000  N
  C75      1.0000 0.80550  0.90275  0.75000  Biso   1.000  C
  C76      1.0000 0.90530  0.95265  0.75000  Biso   1.000  C
  Fe3      1.0000 0.26445  0.73555  0.75000  Biso   1.000  Fe
  N3       1.0000 0.19200  0.80800  0.75000  Biso   1.000  N
  C77      1.0000 0.09725  0.90275  0.75000  Biso   1.000  C
  C78      1.0000 0.04735  0.95265  0.75000  Biso   1.000  C
  Fe4      1.0000 0.73555  0.47109  0.25000  Biso   1.000  Fe
  N4       1.0000 0.80800  0.61600  0.25000  Biso   1.000  N
  C79      1.0000 0.90275  0.80550  0.25000  Biso   1.000  C
  C80      1.0000 0.95265  0.90530  0.25000  Biso   1.000  C
  Fe5      1.0000 0.52891  0.26445  0.25000  Biso   1.000  Fe
  N5       1.0000 0.38400  0.19200  0.25000  Biso   1.000  N
  C81      1.0000 0.19450  0.09725  0.25000  Biso   1.000  C
  C82      1.0000 0.09470  0.04735  0.25000  Biso   1.000  C
  Fe6      1.0000 0.73555  0.26445  0.25000  Biso   1.000  Fe
  N6       1.0000 0.80800  0.19200  0.25000  Biso   1.000  N
  C83      1.0000 0.90275  0.09725  0.25000  Biso   1.000  C
  C84      1.0000 0.95265  0.04735  0.25000  Biso   1.000  C
  O25      1.0000 0.33333  0.66667  0.75000  Biso   1.000  O
  O26      1.0000 0.66667  0.33333  0.25000  Biso   1.000  O
  C85      1.0000 0.42527  0.57473  0.62620  Biso   1.000  C
  C86      1.0000 0.46380  0.53620  0.56000  Biso   1.000  C
  C87      1.0000 0.42527  0.85054  0.62620  Biso   1.000  C
  C88      1.0000 0.46380  0.92760  0.56000  Biso   1.000  C
  C89      1.0000 0.14946  0.57473  0.62620  Biso   1.000  C
  C90      1.0000 0.07240  0.53620  0.56000  Biso   1.000  C
  C91      1.0000 0.57473  0.42527  0.12620  Biso   1.000  C
  C92      1.0000 0.53620  0.46380  0.06000  Biso   1.000  C
  C93      1.0000 0.57473  0.14946  0.12620  Biso   1.000  C
  C94      1.0000 0.53620  0.07240  0.06000  Biso   1.000  C
  C95      1.0000 0.85054  0.42527  0.12620  Biso   1.000  C
  C96      1.0000 0.92760  0.46380  0.06000  Biso   1.000  C
  C97      1.0000 0.57473  0.42527  0.37380  Biso   1.000  C
  C98      1.0000 0.53620  0.46380  0.44000  Biso   1.000  C
  C99      1.0000 0.85054  0.42527  0.37380  Biso   1.000  C
  C100     1.0000 0.92760  0.46380  0.44000  Biso   1.000  C
  C101     1.0000 0.57473  0.14946  0.37380  Biso   1.000  C
  C102     1.0000 0.53620  0.07240  0.44000  Biso   1.000  C
  C103     1.0000 0.42527  0.57473  0.87380  Biso   1.000  C
  C104     1.0000 0.46380  0.53620  0.94000  Biso   1.000  C
  C105     1.0000 0.14946  0.57473  0.87380  Biso   1.000  C
  C106     1.0000 0.07240  0.53620  0.94000  Biso   1.000  C
  C107     1.0000 0.42527  0.85054  0.87380  Biso   1.000  C
  C108     1.0000 0.46380  0.92760  0.94000  Biso   1.000  C
  C109     1.0000 0.09370  0.04685  0.75000  Biso   1.000  C
  H73      1.0000 0.15630  0.07815  0.75000  Biso   1.000  H
  C110     1.0000 0.95315  0.04685  0.75000  Biso   1.000  C
  H74      1.0000 0.92185  0.07815  0.75000  Biso   1.000  H
  C111     1.0000 0.95315  0.90630  0.75000  Biso   1.000  C
  H75      1.0000 0.92185  0.84370  0.75000  Biso   1.000  H
  C112     1.0000 0.90630  0.95315  0.25000  Biso   1.000  C
  H76      1.0000 0.84370  0.92185  0.25000  Biso   1.000  H
  C113     1.0000 0.04685  0.95315  0.25000  Biso   1.000  C
  H77      1.0000 0.07815  0.92185  0.25000  Biso   1.000  H
  C114     1.0000 0.04685  0.09370  0.25000  Biso   1.000  C
  H78      1.0000 0.07815  0.15630  0.25000  Biso   1.000  H
