data_image0
_cell_length_a       16.49
_cell_length_b       16.49
_cell_length_c       15.356
_cell_angle_alpha    90
_cell_angle_beta     90
_cell_angle_gamma    120

_symmetry_space_group_name_H-M    "P 1"
_symmetry_int_tables_number       1

loop_
  _symmetry_equiv_pos_as_xyz
  'x, y, z'

loop_
  _atom_site_label
  _atom_site_occupancy
  _atom_site_fract_x
  _atom_site_fract_y
  _atom_site_fract_z
  _atom_site_thermal_displace_type
  _atom_site_B_iso_or_equiv
  _atom_site_type_symbol
  O1       1.0000 0.34560  0.51890  0.65650  Biso   1.000  O
  C1       1.0000 0.40960  0.44770  0.53090  Biso   1.000  C
  H1       1.0000 0.34760  0.41260  0.54880  Biso   1.000  H
  H2       1.0000 0.14830  0.36190  0.78700  Biso   1.000  H
  O2       1.0000 0.48110  0.82670  0.65650  Biso   1.000  O
  C2       1.0000 0.55230  0.96190  0.53090  Biso   1.000  C
  H3       1.0000 0.58740  0.93500  0.54880  Biso   1.000  H
  H4       1.0000 0.63810  0.78640  0.78700  Biso   1.000  H
  O3       1.0000 0.17330  0.65440  0.65650  Biso   1.000  O
  C3       1.0000 0.03810  0.59040  0.53090  Biso   1.000  C
  H5       1.0000 0.06500  0.65240  0.54880  Biso   1.000  H
  H6       1.0000 0.21360  0.85170  0.78700  Biso   1.000  H
  O4       1.0000 0.65440  0.48110  0.15650  Biso   1.000  O
  C4       1.0000 0.59040  0.55230  0.03090  Biso   1.000  C
  H7       1.0000 0.65240  0.58740  0.04880  Biso   1.000  H
  H8       1.0000 0.85170  0.63810  0.28700  Biso   1.000  H
  O5       1.0000 0.51890  0.17330  0.15650  Biso   1.000  O
  C5       1.0000 0.44770  0.03810  0.03090  Biso   1.000  C
  H9       1.0000 0.41260  0.06500  0.04880  Biso   1.000  H
  H10      1.0000 0.36190  0.21360  0.28700  Biso   1.000  H
  O6       1.0000 0.82670  0.34560  0.15650  Biso   1.000  O
  C6       1.0000 0.96190  0.40960  0.03090  Biso   1.000  C
  H11      1.0000 0.93500  0.34760  0.04880  Biso   1.000  H
  H12      1.0000 0.78640  0.14830  0.28700  Biso   1.000  H
  O7       1.0000 0.51890  0.34560  0.34350  Biso   1.000  O
  C7       1.0000 0.44770  0.40960  0.46910  Biso   1.000  C
  H13      1.0000 0.41260  0.34760  0.45120  Biso   1.000  H
  H14      1.0000 0.36190  0.14830  0.21300  Biso   1.000  H
  O8       1.0000 0.82670  0.48110  0.34350  Biso   1.000  O
  C8       1.0000 0.96190  0.55230  0.46910  Biso   1.000  C
  H15      1.0000 0.93500  0.58740  0.45120  Biso   1.000  H
  H16      1.0000 0.78640  0.63810  0.21300  Biso   1.000  H
  O9       1.0000 0.65440  0.17330  0.34350  Biso   1.000  O
  C9       1.0000 0.59040  0.03810  0.46910  Biso   1.000  C
  H17      1.0000 0.65240  0.06500  0.45120  Biso   1.000  H
  H18      1.0000 0.85170  0.21360  0.21300  Biso   1.000  H
  O10      1.0000 0.48110  0.65440  0.84350  Biso   1.000  O
  C10      1.0000 0.55230  0.59040  0.96910  Biso   1.000  C
  H19      1.0000 0.58740  0.65240  0.95120  Biso   1.000  H
  H20      1.0000 0.63810  0.85170  0.71300  Biso   1.000  H
  O11      1.0000 0.17330  0.51890  0.84350  Biso   1.000  O
  C11      1.0000 0.03810  0.44770  0.96910  Biso   1.000  C
  H21      1.0000 0.06500  0.41260  0.95120  Biso   1.000  H
  H22      1.0000 0.21360  0.36190  0.71300  Biso   1.000  H
  O12      1.0000 0.34560  0.82670  0.84350  Biso   1.000  O
  C12      1.0000 0.40960  0.96190  0.96910  Biso   1.000  C
  H23      1.0000 0.34760  0.93500  0.95120  Biso   1.000  H
  H24      1.0000 0.14830  0.78640  0.71300  Biso   1.000  H
  O13      1.0000 0.65440  0.48110  0.34350  Biso   1.000  O
  C13      1.0000 0.59040  0.55230  0.46910  Biso   1.000  C
  H25      1.0000 0.65240  0.58740  0.45120  Biso   1.000  H
  H26      1.0000 0.85170  0.63810  0.21300  Biso   1.000  H
  O14      1.0000 0.51890  0.17330  0.34350  Biso   1.000  O
  C14      1.0000 0.44770  0.03810  0.46910  Biso   1.000  C
  H27      1.0000 0.41260  0.06500  0.45120  Biso   1.000  H
  H28      1.0000 0.36190  0.21360  0.21300  Biso   1.000  H
  O15      1.0000 0.82670  0.34560  0.34350  Biso   1.000  O
  C15      1.0000 0.96190  0.40960  0.46910  Biso   1.000  C
  H29      1.0000 0.93500  0.34760  0.45120  Biso   1.000  H
  H30      1.0000 0.78640  0.14830  0.21300  Biso   1.000  H
  O16      1.0000 0.34560  0.51890  0.84350  Biso   1.000  O
  C16      1.0000 0.40960  0.44770  0.96910  Biso   1.000  C
  H31      1.0000 0.34760  0.41260  0.95120  Biso   1.000  H
  H32      1.0000 0.14830  0.36190  0.71300  Biso   1.000  H
  O17      1.0000 0.48110  0.82670  0.84350  Biso   1.000  O
  C17      1.0000 0.55230  0.96190  0.96910  Biso   1.000  C
  H33      1.0000 0.58740  0.93500  0.95120  Biso   1.000  H
  H34      1.0000 0.63810  0.78640  0.71300  Biso   1.000  H
  O18      1.0000 0.17330  0.65440  0.84350  Biso   1.000  O
  C18      1.0000 0.03810  0.59040  0.96910  Biso   1.000  C
  H35      1.0000 0.06500  0.65240  0.95120  Biso   1.000  H
  H36      1.0000 0.21360  0.85170  0.71300  Biso   1.000  H
  O19      1.0000 0.48110  0.65440  0.65650  Biso   1.000  O
  C19      1.0000 0.55230  0.59040  0.53090  Biso   1.000  C
  H37      1.0000 0.58740  0.65240  0.54880  Biso   1.000  H
  H38      1.0000 0.63810  0.85170  0.78700  Biso   1.000  H
  O20      1.0000 0.17330  0.51890  0.65650  Biso   1.000  O
  C20      1.0000 0.03810  0.44770  0.53090  Biso   1.000  C
  H39      1.0000 0.06500  0.41260  0.54880  Biso   1.000  H
  H40      1.0000 0.21360  0.36190  0.78700  Biso   1.000  H
  O21      1.0000 0.34560  0.82670  0.65650  Biso   1.000  O
  C21      1.0000 0.40960  0.96190  0.53090  Biso   1.000  C
  H41      1.0000 0.34760  0.93500  0.54880  Biso   1.000  H
  H42      1.0000 0.14830  0.78640  0.78700  Biso   1.000  H
  O22      1.0000 0.51890  0.34560  0.15650  Biso   1.000  O
  C22      1.0000 0.44770  0.40960  0.03090  Biso   1.000  C
  H43      1.0000 0.41260  0.34760  0.04880  Biso   1.000  H
  H44      1.0000 0.36190  0.14830  0.28700  Biso   1.000  H
  O23      1.0000 0.82670  0.48110  0.15650  Biso   1.000  O
  C23      1.0000 0.96190  0.55230  0.03090  Biso   1.000  C
  H45      1.0000 0.93500  0.58740  0.04880  Biso   1.000  H
  H46      1.0000 0.78640  0.63810  0.28700  Biso   1.000  H
  O24      1.0000 0.65440  0.17330  0.15650  Biso   1.000  O
  C24      1.0000 0.59040  0.03810  0.03090  Biso   1.000  C
  H47      1.0000 0.65240  0.06500  0.04880  Biso   1.000  H
  H48      1.0000 0.85170  0.21360  0.28700  Biso   1.000  H
  Fe1      1.0000 0.26663  0.53327  0.75000  Biso   1.000  Fe
  N1       1.0000 0.19220  0.38440  0.75000  Biso   1.000  N
  C25      1.0000 0.09530  0.19060  0.75000  Biso   1.000  C
  C26      1.0000 0.04245  0.08490  0.75000  Biso   1.000  C
  Fe2      1.0000 0.46673  0.73337  0.75000  Biso   1.000  Fe
  N2       1.0000 0.61560  0.80780  0.75000  Biso   1.000  N
  C27      1.0000 0.80940  0.90470  0.75000  Biso   1.000  C
  C28      1.0000 0.91510  0.95755  0.75000  Biso   1.000  C
  Fe3      1.0000 0.26663  0.73337  0.75000  Biso   1.000  Fe
  N3       1.0000 0.19220  0.80780  0.75000  Biso   1.000  N
  C29      1.0000 0.09530  0.90470  0.75000  Biso   1.000  C
  C30      1.0000 0.04245  0.95755  0.75000  Biso   1.000  C
  Fe4      1.0000 0.73337  0.46673  0.25000  Biso   1.000  Fe
  N4       1.0000 0.80780  0.61560  0.25000  Biso   1.000  N
  C31      1.0000 0.90470  0.80940  0.25000  Biso   1.000  C
  C32      1.0000 0.95755  0.91510  0.25000  Biso   1.000  C
  Fe5      1.0000 0.53327  0.26663  0.25000  Biso   1.000  Fe
  N5       1.0000 0.38440  0.19220  0.25000  Biso   1.000  N
  C33      1.0000 0.19060  0.09530  0.25000  Biso   1.000  C
  C34      1.0000 0.08490  0.04245  0.25000  Biso   1.000  C
  Fe6      1.0000 0.73337  0.26663  0.25000  Biso   1.000  Fe
  N6       1.0000 0.80780  0.19220  0.25000  Biso   1.000  N
  C35      1.0000 0.90470  0.09530  0.25000  Biso   1.000  C
  C36      1.0000 0.95755  0.04245  0.25000  Biso   1.000  C
  O25      1.0000 0.33333  0.66667  0.75000  Biso   1.000  O
  O26      1.0000 0.66667  0.33333  0.25000  Biso   1.000  O
  C37      1.0000 0.42740  0.57260  0.63090  Biso   1.000  C
  C38      1.0000 0.46510  0.53490  0.56260  Biso   1.000  C
  C39      1.0000 0.42740  0.85480  0.63090  Biso   1.000  C
  C40      1.0000 0.46510  0.93020  0.56260  Biso   1.000  C
  C41      1.0000 0.14520  0.57260  0.63090  Biso   1.000  C
  C42      1.0000 0.06980  0.53490  0.56260  Biso   1.000  C
  C43      1.0000 0.57260  0.42740  0.13090  Biso   1.000  C
  C44      1.0000 0.53490  0.46510  0.06260  Biso   1.000  C
  C45      1.0000 0.57260  0.14520  0.13090  Biso   1.000  C
  C46      1.0000 0.53490  0.06980  0.06260  Biso   1.000  C
  C47      1.0000 0.85480  0.42740  0.13090  Biso   1.000  C
  C48      1.0000 0.93020  0.46510  0.06260  Biso   1.000  C
  C49      1.0000 0.57260  0.42740  0.36910  Biso   1.000  C
  C50      1.0000 0.53490  0.46510  0.43740  Biso   1.000  C
  C51      1.0000 0.85480  0.42740  0.36910  Biso   1.000  C
  C52      1.0000 0.93020  0.46510  0.43740  Biso   1.000  C
  C53      1.0000 0.57260  0.14520  0.36910  Biso   1.000  C
  C54      1.0000 0.53490  0.06980  0.43740  Biso   1.000  C
  C55      1.0000 0.42740  0.57260  0.86910  Biso   1.000  C
  C56      1.0000 0.46510  0.53490  0.93740  Biso   1.000  C
  C57      1.0000 0.14520  0.57260  0.86910  Biso   1.000  C
  C58      1.0000 0.06980  0.53490  0.93740  Biso   1.000  C
  C59      1.0000 0.42740  0.85480  0.86910  Biso   1.000  C
  C60      1.0000 0.46510  0.93020  0.93740  Biso   1.000  C
  C61      1.0000 0.23910  0.33600  0.75000  Biso   1.000  C
  H49      1.0000 0.30420  0.36870  0.75000  Biso   1.000  H
  C62      1.0000 0.19210  0.23970  0.75000  Biso   1.000  C
  H50      1.0000 0.22530  0.20780  0.75000  Biso   1.000  H
  C63      1.0000 0.66400  0.90310  0.75000  Biso   1.000  C
  H51      1.0000 0.63130  0.93550  0.75000  Biso   1.000  H
  C64      1.0000 0.76030  0.95240  0.75000  Biso   1.000  C
  H52      1.0000 0.79220  0.01750  0.75000  Biso   1.000  H
  C65      1.0000 0.09690  0.76090  0.75000  Biso   1.000  C
  H53      1.0000 0.06450  0.69580  0.75000  Biso   1.000  H
  C66      1.0000 0.04760  0.80790  0.75000  Biso   1.000  C
  H54      1.0000 0.98250  0.77470  0.75000  Biso   1.000  H
  C67      1.0000 0.76090  0.66400  0.25000  Biso   1.000  C
  H55      1.0000 0.69580  0.63130  0.25000  Biso   1.000  H
  C68      1.0000 0.80790  0.76030  0.25000  Biso   1.000  C
  H56      1.0000 0.77470  0.79220  0.25000  Biso   1.000  H
  C69      1.0000 0.33600  0.09690  0.25000  Biso   1.000  C
  H57      1.0000 0.36870  0.06450  0.25000  Biso   1.000  H
  C70      1.0000 0.23970  0.04760  0.25000  Biso   1.000  C
  H58      1.0000 0.20780  0.98250  0.25000  Biso   1.000  H
  C71      1.0000 0.90310  0.23910  0.25000  Biso   1.000  C
  H59      1.0000 0.93550  0.30420  0.25000  Biso   1.000  H
  C72      1.0000 0.95240  0.19210  0.25000  Biso   1.000  C
  H60      1.0000 0.01750  0.22530  0.25000  Biso   1.000  H
  C73      1.0000 0.33600  0.23910  0.25000  Biso   1.000  C
  H61      1.0000 0.36870  0.30420  0.25000  Biso   1.000  H
  C74      1.0000 0.23970  0.19210  0.25000  Biso   1.000  C
  H62      1.0000 0.20780  0.22530  0.25000  Biso   1.000  H
  C75      1.0000 0.90310  0.66400  0.25000  Biso   1.000  C
  H63      1.0000 0.93550  0.63130  0.25000  Biso   1.000  H
  C76      1.0000 0.95240  0.76030  0.25000  Biso   1.000  C
  H64      1.0000 0.01750  0.79220  0.25000  Biso   1.000  H
  C77      1.0000 0.76090  0.09690  0.25000  Biso   1.000  C
  H65      1.0000 0.69580  0.06450  0.25000  Biso   1.000  H
  C78      1.0000 0.80790  0.04760  0.25000  Biso   1.000  C
  H66      1.0000 0.77470  0.98250  0.25000  Biso   1.000  H
  C79      1.0000 0.66400  0.76090  0.75000  Biso   1.000  C
  H67      1.0000 0.63130  0.69580  0.75000  Biso   1.000  H
  C80      1.0000 0.76030  0.80790  0.75000  Biso   1.000  C
  H68      1.0000 0.79220  0.77470  0.75000  Biso   1.000  H
  C81      1.0000 0.09690  0.33600  0.75000  Biso   1.000  C
  H69      1.0000 0.06450  0.36870  0.75000  Biso   1.000  H
  C82      1.0000 0.04760  0.23970  0.75000  Biso   1.000  C
  H70      1.0000 0.98250  0.20780  0.75000  Biso   1.000  H
  C83      1.0000 0.23910  0.90310  0.75000  Biso   1.000  C
  H71      1.0000 0.30420  0.93550  0.75000  Biso   1.000  H
  C84      1.0000 0.19210  0.95240  0.75000  Biso   1.000  C
  H72      1.0000 0.22530  0.01750  0.75000  Biso   1.000  H
  N7       1.0000 0.00000  0.00000  0.75000  Biso   1.000  N
  N8       1.0000 0.00000  0.00000  0.25000  Biso   1.000  N
  C85      1.0000 0.16815  0.33630  0.67370  Biso   1.000  C
  H73      1.0000 0.18460  0.36920  0.62150  Biso   1.000  H
  C86      1.0000 0.11980  0.23960  0.67210  Biso   1.000  C
  H74      1.0000 0.10385  0.20770  0.61930  Biso   1.000  H
  C87      1.0000 0.66370  0.83185  0.67370  Biso   1.000  C
  H75      1.0000 0.63080  0.81540  0.62150  Biso   1.000  H
  C88      1.0000 0.76040  0.88020  0.67210  Biso   1.000  C
  H76      1.0000 0.79230  0.89615  0.61930  Biso   1.000  H
  C89      1.0000 0.16815  0.83185  0.67370  Biso   1.000  C
  H77      1.0000 0.18460  0.81540  0.62150  Biso   1.000  H
  C90      1.0000 0.11980  0.88020  0.67210  Biso   1.000  C
  H78      1.0000 0.10385  0.89615  0.61930  Biso   1.000  H
  C91      1.0000 0.83185  0.66370  0.17370  Biso   1.000  C
  H79      1.0000 0.81540  0.63080  0.12150  Biso   1.000  H
  C92      1.0000 0.88020  0.76040  0.17210  Biso   1.000  C
  H80      1.0000 0.89615  0.79230  0.11930  Biso   1.000  H
  C93      1.0000 0.33630  0.16815  0.17370  Biso   1.000  C
  H81      1.0000 0.36920  0.18460  0.12150  Biso   1.000  H
  C94      1.0000 0.23960  0.11980  0.17210  Biso   1.000  C
  H82      1.0000 0.20770  0.10385  0.11930  Biso   1.000  H
  C95      1.0000 0.83185  0.16815  0.17370  Biso   1.000  C
  H83      1.0000 0.81540  0.18460  0.12150  Biso   1.000  H
  C96      1.0000 0.88020  0.11980  0.17210  Biso   1.000  C
  H84      1.0000 0.89615  0.10385  0.11930  Biso   1.000  H
  C97      1.0000 0.33630  0.16815  0.32630  Biso   1.000  C
  H85      1.0000 0.36920  0.18460  0.37850  Biso   1.000  H
  C98      1.0000 0.23960  0.11980  0.32790  Biso   1.000  C
  H86      1.0000 0.20770  0.10385  0.38070  Biso   1.000  H
  C99      1.0000 0.83185  0.66370  0.32630  Biso   1.000  C
  H87      1.0000 0.81540  0.63080  0.37850  Biso   1.000  H
  C100     1.0000 0.88020  0.76040  0.32790  Biso   1.000  C
  H88      1.0000 0.89615  0.79230  0.38070  Biso   1.000  H
  C101     1.0000 0.83185  0.16815  0.32630  Biso   1.000  C
  H89      1.0000 0.81540  0.18460  0.37850  Biso   1.000  H
  C102     1.0000 0.88020  0.11980  0.32790  Biso   1.000  C
  H90      1.0000 0.89615  0.10385  0.38070  Biso   1.000  H
  C103     1.0000 0.66370  0.83185  0.82630  Biso   1.000  C
  H91      1.0000 0.63080  0.81540  0.87850  Biso   1.000  H
  C104     1.0000 0.76040  0.88020  0.82790  Biso   1.000  C
  H92      1.0000 0.79230  0.89615  0.88070  Biso   1.000  H
  C105     1.0000 0.16815  0.33630  0.82630  Biso   1.000  C
  H93      1.0000 0.18460  0.36920  0.87850  Biso   1.000  H
  C106     1.0000 0.11980  0.23960  0.82790  Biso   1.000  C
  H94      1.0000 0.10385  0.20770  0.88070  Biso   1.000  H
  C107     1.0000 0.16815  0.83185  0.82630  Biso   1.000  C
  H95      1.0000 0.18460  0.81540  0.87850  Biso   1.000  H
  C108     1.0000 0.11980  0.88020  0.82790  Biso   1.000  C
  H96      1.0000 0.10385  0.89615  0.88070  Biso   1.000  H
