data_image0
_cell_length_a       24.972
_cell_length_b       24.972
_cell_length_c       9.858
_cell_angle_alpha    90
_cell_angle_beta     90
_cell_angle_gamma    120

_symmetry_space_group_name_H-M    "P 1"
_symmetry_int_tables_number       1

loop_
  _symmetry_equiv_pos_as_xyz
  'x, y, z'

loop_
  _atom_site_label
  _atom_site_occupancy
  _atom_site_fract_x
  _atom_site_fract_y
  _atom_site_fract_z
  _atom_site_thermal_displace_type
  _atom_site_B_iso_or_equiv
  _atom_site_type_symbol
  O1       1.0000 0.43080  0.76920  0.48770  Biso   1.000  O
  O2       1.0000 0.44530  0.68800  0.39370  Biso   1.000  O
  O3       1.0000 0.55320  0.42620  0.87450  Biso   1.000  O
  O4       1.0000 0.61320  0.47220  0.68300  Biso   1.000  O
  C1       1.0000 0.45080  0.70470  0.62520  Biso   1.000  C
  C2       1.0000 0.47360  0.66280  0.62270  Biso   1.000  C
  C3       1.0000 0.43670  0.72460  0.49190  Biso   1.000  C
  C4       1.0000 0.51280  0.60240  0.77700  Biso   1.000  C
  C5       1.0000 0.48760  0.55380  0.86910  Biso   1.000  C
  C6       1.0000 0.50950  0.51250  0.87480  Biso   1.000  C
  C7       1.0000 0.55660  0.51970  0.78820  Biso   1.000  C
  C8       1.0000 0.58180  0.56830  0.69580  Biso   1.000  C
  C9       1.0000 0.55990  0.60960  0.69000  Biso   1.000  C
  C10      1.0000 0.57540  0.47300  0.78700  Biso   1.000  C
  O5       1.0000 0.42080  0.69840  0.39210  Biso   1.000  O
  O6       1.0000 0.23080  0.66160  0.48770  Biso   1.000  O
  O7       1.0000 0.31200  0.75730  0.39370  Biso   1.000  O
  O8       1.0000 0.57380  0.12700  0.87450  Biso   1.000  O
  O9       1.0000 0.52780  0.14100  0.68300  Biso   1.000  O
  C11      1.0000 0.29530  0.74610  0.62520  Biso   1.000  C
  C12      1.0000 0.33720  0.81080  0.62270  Biso   1.000  C
  C13      1.0000 0.27540  0.71210  0.49190  Biso   1.000  C
  C14      1.0000 0.39760  0.91040  0.77700  Biso   1.000  C
  C15      1.0000 0.44620  0.93380  0.86910  Biso   1.000  C
  C16      1.0000 0.48750  0.99700  0.87480  Biso   1.000  C
  C17      1.0000 0.48030  0.03690  0.78820  Biso   1.000  C
  C18      1.0000 0.43170  0.01350  0.69580  Biso   1.000  C
  C19      1.0000 0.39040  0.95030  0.69000  Biso   1.000  C
  C20      1.0000 0.52700  0.10240  0.78700  Biso   1.000  C
  O10      1.0000 0.30160  0.72240  0.39210  Biso   1.000  O
  O11      1.0000 0.33840  0.56920  0.48770  Biso   1.000  O
  O12      1.0000 0.24270  0.55470  0.39370  Biso   1.000  O
  O13      1.0000 0.87300  0.44680  0.87450  Biso   1.000  O
  O14      1.0000 0.85900  0.38680  0.68300  Biso   1.000  O
  C21      1.0000 0.25390  0.54920  0.62520  Biso   1.000  C
  C22      1.0000 0.18920  0.52640  0.62270  Biso   1.000  C
  C23      1.0000 0.28790  0.56330  0.49190  Biso   1.000  C
  C24      1.0000 0.08960  0.48720  0.77700  Biso   1.000  C
  C25      1.0000 0.06620  0.51240  0.86910  Biso   1.000  C
  C26      1.0000 0.00300  0.49050  0.87480  Biso   1.000  C
  C27      1.0000 0.96310  0.44340  0.78820  Biso   1.000  C
  C28      1.0000 0.98650  0.41820  0.69580  Biso   1.000  C
  C29      1.0000 0.04970  0.44010  0.69000  Biso   1.000  C
  C30      1.0000 0.89760  0.42460  0.78700  Biso   1.000  C
  O15      1.0000 0.27760  0.57920  0.39210  Biso   1.000  O
  O16      1.0000 0.43080  0.76920  0.01230  Biso   1.000  O
  O17      1.0000 0.44530  0.68800  0.10630  Biso   1.000  O
  O18      1.0000 0.55320  0.42620  0.62550  Biso   1.000  O
  O19      1.0000 0.61320  0.47220  0.81700  Biso   1.000  O
  C31      1.0000 0.45080  0.70470  0.87480  Biso   1.000  C
  C32      1.0000 0.47360  0.66280  0.87730  Biso   1.000  C
  C33      1.0000 0.43670  0.72460  0.00810  Biso   1.000  C
  C34      1.0000 0.51280  0.60240  0.72300  Biso   1.000  C
  C35      1.0000 0.48760  0.55380  0.63090  Biso   1.000  C
  C36      1.0000 0.50950  0.51250  0.62520  Biso   1.000  C
  C37      1.0000 0.55660  0.51970  0.71180  Biso   1.000  C
  C38      1.0000 0.58180  0.56830  0.80420  Biso   1.000  C
  C39      1.0000 0.55990  0.60960  0.81000  Biso   1.000  C
  C40      1.0000 0.57540  0.47300  0.71300  Biso   1.000  C
  O20      1.0000 0.42080  0.69840  0.10790  Biso   1.000  O
  O21      1.0000 0.23080  0.66160  0.01230  Biso   1.000  O
  O22      1.0000 0.31200  0.75730  0.10630  Biso   1.000  O
  O23      1.0000 0.57380  0.12700  0.62550  Biso   1.000  O
  O24      1.0000 0.52780  0.14100  0.81700  Biso   1.000  O
  C41      1.0000 0.29530  0.74610  0.87480  Biso   1.000  C
  C42      1.0000 0.33720  0.81080  0.87730  Biso   1.000  C
  C43      1.0000 0.27540  0.71210  0.00810  Biso   1.000  C
  C44      1.0000 0.39760  0.91040  0.72300  Biso   1.000  C
  C45      1.0000 0.44620  0.93380  0.63090  Biso   1.000  C
  C46      1.0000 0.48750  0.99700  0.62520  Biso   1.000  C
  C47      1.0000 0.48030  0.03690  0.71180  Biso   1.000  C
  C48      1.0000 0.43170  0.01350  0.80420  Biso   1.000  C
  C49      1.0000 0.39040  0.95030  0.81000  Biso   1.000  C
  C50      1.0000 0.52700  0.10240  0.71300  Biso   1.000  C
  O25      1.0000 0.30160  0.72240  0.10790  Biso   1.000  O
  O26      1.0000 0.33840  0.56920  0.01230  Biso   1.000  O
  O27      1.0000 0.24270  0.55470  0.10630  Biso   1.000  O
  O28      1.0000 0.87300  0.44680  0.62550  Biso   1.000  O
  O29      1.0000 0.85900  0.38680  0.81700  Biso   1.000  O
  C51      1.0000 0.25390  0.54920  0.87480  Biso   1.000  C
  C52      1.0000 0.18920  0.52640  0.87730  Biso   1.000  C
  C53      1.0000 0.28790  0.56330  0.00810  Biso   1.000  C
  C54      1.0000 0.08960  0.48720  0.72300  Biso   1.000  C
  C55      1.0000 0.06620  0.51240  0.63090  Biso   1.000  C
  C56      1.0000 0.00300  0.49050  0.62520  Biso   1.000  C
  C57      1.0000 0.96310  0.44340  0.71180  Biso   1.000  C
  C58      1.0000 0.98650  0.41820  0.80420  Biso   1.000  C
  C59      1.0000 0.04970  0.44010  0.81000  Biso   1.000  C
  C60      1.0000 0.89760  0.42460  0.71300  Biso   1.000  C
  O30      1.0000 0.27760  0.57920  0.10790  Biso   1.000  O
  O31      1.0000 0.76920  0.43080  0.51230  Biso   1.000  O
  O32      1.0000 0.68800  0.44530  0.60630  Biso   1.000  O
  O33      1.0000 0.42620  0.55320  0.12550  Biso   1.000  O
  O34      1.0000 0.47220  0.61320  0.31700  Biso   1.000  O
  C61      1.0000 0.70470  0.45080  0.37480  Biso   1.000  C
  C62      1.0000 0.66280  0.47360  0.37730  Biso   1.000  C
  C63      1.0000 0.72460  0.43670  0.50810  Biso   1.000  C
  C64      1.0000 0.60240  0.51280  0.22300  Biso   1.000  C
  C65      1.0000 0.55380  0.48760  0.13090  Biso   1.000  C
  C66      1.0000 0.51250  0.50950  0.12520  Biso   1.000  C
  C67      1.0000 0.51970  0.55660  0.21180  Biso   1.000  C
  C68      1.0000 0.56830  0.58180  0.30420  Biso   1.000  C
  C69      1.0000 0.60960  0.55990  0.31000  Biso   1.000  C
  C70      1.0000 0.47300  0.57540  0.21300  Biso   1.000  C
  O35      1.0000 0.69840  0.42080  0.60790  Biso   1.000  O
  O36      1.0000 0.66160  0.23080  0.51230  Biso   1.000  O
  O37      1.0000 0.75730  0.31200  0.60630  Biso   1.000  O
  O38      1.0000 0.12700  0.57380  0.12550  Biso   1.000  O
  O39      1.0000 0.14100  0.52780  0.31700  Biso   1.000  O
  C71      1.0000 0.74610  0.29530  0.37480  Biso   1.000  C
  C72      1.0000 0.81080  0.33720  0.37730  Biso   1.000  C
  C73      1.0000 0.71210  0.27540  0.50810  Biso   1.000  C
  C74      1.0000 0.91040  0.39760  0.22300  Biso   1.000  C
  C75      1.0000 0.93380  0.44620  0.13090  Biso   1.000  C
  C76      1.0000 0.99700  0.48750  0.12520  Biso   1.000  C
  C77      1.0000 0.03690  0.48030  0.21180  Biso   1.000  C
  C78      1.0000 0.01350  0.43170  0.30420  Biso   1.000  C
  C79      1.0000 0.95030  0.39040  0.31000  Biso   1.000  C
  C80      1.0000 0.10240  0.52700  0.21300  Biso   1.000  C
  O40      1.0000 0.72240  0.30160  0.60790  Biso   1.000  O
  O41      1.0000 0.56920  0.33840  0.51230  Biso   1.000  O
  O42      1.0000 0.55470  0.24270  0.60630  Biso   1.000  O
  O43      1.0000 0.44680  0.87300  0.12550  Biso   1.000  O
  O44      1.0000 0.38680  0.85900  0.31700  Biso   1.000  O
  C81      1.0000 0.54920  0.25390  0.37480  Biso   1.000  C
  C82      1.0000 0.52640  0.18920  0.37730  Biso   1.000  C
  C83      1.0000 0.56330  0.28790  0.50810  Biso   1.000  C
  C84      1.0000 0.48720  0.08960  0.22300  Biso   1.000  C
  C85      1.0000 0.51240  0.06620  0.13090  Biso   1.000  C
  C86      1.0000 0.49050  0.00300  0.12520  Biso   1.000  C
  C87      1.0000 0.44340  0.96310  0.21180  Biso   1.000  C
  C88      1.0000 0.41820  0.98650  0.30420  Biso   1.000  C
  C89      1.0000 0.44010  0.04970  0.31000  Biso   1.000  C
  C90      1.0000 0.42460  0.89760  0.21300  Biso   1.000  C
  O45      1.0000 0.57920  0.27760  0.60790  Biso   1.000  O
  O46      1.0000 0.76920  0.43080  0.98770  Biso   1.000  O
  O47      1.0000 0.68800  0.44530  0.89370  Biso   1.000  O
  O48      1.0000 0.42620  0.55320  0.37450  Biso   1.000  O
  O49      1.0000 0.47220  0.61320  0.18300  Biso   1.000  O
  C91      1.0000 0.70470  0.45080  0.12520  Biso   1.000  C
  C92      1.0000 0.66280  0.47360  0.12270  Biso   1.000  C
  C93      1.0000 0.72460  0.43670  0.99190  Biso   1.000  C
  C94      1.0000 0.60240  0.51280  0.27700  Biso   1.000  C
  C95      1.0000 0.55380  0.48760  0.36910  Biso   1.000  C
  C96      1.0000 0.51250  0.50950  0.37480  Biso   1.000  C
  C97      1.0000 0.51970  0.55660  0.28820  Biso   1.000  C
  C98      1.0000 0.56830  0.58180  0.19580  Biso   1.000  C
  C99      1.0000 0.60960  0.55990  0.19000  Biso   1.000  C
  C100     1.0000 0.47300  0.57540  0.28700  Biso   1.000  C
  O50      1.0000 0.69840  0.42080  0.89210  Biso   1.000  O
  O51      1.0000 0.66160  0.23080  0.98770  Biso   1.000  O
  O52      1.0000 0.75730  0.31200  0.89370  Biso   1.000  O
  O53      1.0000 0.12700  0.57380  0.37450  Biso   1.000  O
  O54      1.0000 0.14100  0.52780  0.18300  Biso   1.000  O
  C101     1.0000 0.74610  0.29530  0.12520  Biso   1.000  C
  C102     1.0000 0.81080  0.33720  0.12270  Biso   1.000  C
  C103     1.0000 0.71210  0.27540  0.99190  Biso   1.000  C
  C104     1.0000 0.91040  0.39760  0.27700  Biso   1.000  C
  C105     1.0000 0.93380  0.44620  0.36910  Biso   1.000  C
  C106     1.0000 0.99700  0.48750  0.37480  Biso   1.000  C
  C107     1.0000 0.03690  0.48030  0.28820  Biso   1.000  C
  C108     1.0000 0.01350  0.43170  0.19580  Biso   1.000  C
  C109     1.0000 0.95030  0.39040  0.19000  Biso   1.000  C
  C110     1.0000 0.10240  0.52700  0.28700  Biso   1.000  C
  O55      1.0000 0.72240  0.30160  0.89210  Biso   1.000  O
  O56      1.0000 0.56920  0.33840  0.98770  Biso   1.000  O
  O57      1.0000 0.55470  0.24270  0.89370  Biso   1.000  O
  O58      1.0000 0.44680  0.87300  0.37450  Biso   1.000  O
  O59      1.0000 0.38680  0.85900  0.18300  Biso   1.000  O
  C111     1.0000 0.54920  0.25390  0.12520  Biso   1.000  C
  C112     1.0000 0.52640  0.18920  0.12270  Biso   1.000  C
  C113     1.0000 0.56330  0.28790  0.99190  Biso   1.000  C
  C114     1.0000 0.48720  0.08960  0.27700  Biso   1.000  C
  C115     1.0000 0.51240  0.06620  0.36910  Biso   1.000  C
  C116     1.0000 0.49050  0.00300  0.37480  Biso   1.000  C
  C117     1.0000 0.44340  0.96310  0.28820  Biso   1.000  C
  C118     1.0000 0.41820  0.98650  0.19580  Biso   1.000  C
  C119     1.0000 0.44010  0.04970  0.19000  Biso   1.000  C
  C120     1.0000 0.42460  0.89760  0.28700  Biso   1.000  C
  O60      1.0000 0.57920  0.27760  0.89210  Biso   1.000  O
  Sm1      1.0000 0.39828  0.77145  0.25000  Biso   1.000  Sm
  Sm2      1.0000 0.22855  0.62683  0.25000  Biso   1.000  Sm
  Sm3      1.0000 0.37317  0.60172  0.25000  Biso   1.000  Sm
  Sm4      1.0000 0.77145  0.39828  0.75000  Biso   1.000  Sm
  Sm5      1.0000 0.62683  0.22855  0.75000  Biso   1.000  Sm
  Sm6      1.0000 0.60172  0.37317  0.75000  Biso   1.000  Sm
  O61      1.0000 0.33333  0.66667  0.18800  Biso   1.000  O
  O62      1.0000 0.33333  0.66667  0.31200  Biso   1.000  O
  O63      1.0000 0.66667  0.33333  0.81200  Biso   1.000  O
  O64      1.0000 0.66667  0.33333  0.68800  Biso   1.000  O
  C121     1.0000 0.43930  0.72380  0.75000  Biso   1.000  C
  C122     1.0000 0.48820  0.64490  0.75000  Biso   1.000  C
  C123     1.0000 0.27620  0.71550  0.75000  Biso   1.000  C
  C124     1.0000 0.35510  0.84330  0.75000  Biso   1.000  C
  C125     1.0000 0.28450  0.56070  0.75000  Biso   1.000  C
  C126     1.0000 0.15670  0.51180  0.75000  Biso   1.000  C
  C127     1.0000 0.72380  0.43930  0.25000  Biso   1.000  C
  C128     1.0000 0.64490  0.48820  0.25000  Biso   1.000  C
  C129     1.0000 0.71550  0.27620  0.25000  Biso   1.000  C
  C130     1.0000 0.84330  0.35510  0.25000  Biso   1.000  C
  C131     1.0000 0.56070  0.28450  0.25000  Biso   1.000  C
  C132     1.0000 0.51180  0.15670  0.25000  Biso   1.000  C
