data_image0
_cell_length_a       14.8292
_cell_length_b       17.9234
_cell_length_c       29.9062
_cell_angle_alpha    96.836
_cell_angle_beta     93.529
_cell_angle_gamma    110.142

_symmetry_space_group_name_H-M    "P 1"
_symmetry_int_tables_number       1

loop_
  _symmetry_equiv_pos_as_xyz
  'x, y, z'

loop_
  _atom_site_label
  _atom_site_occupancy
  _atom_site_fract_x
  _atom_site_fract_y
  _atom_site_fract_z
  _atom_site_thermal_displace_type
  _atom_site_B_iso_or_equiv
  _atom_site_type_symbol
  Zn1      1.0000 0.05321  0.34642  0.90657  Biso   1.000  Zn
  Zn2      1.0000 0.72081  0.75356  0.56225  Biso   1.000  Zn
  Zn3      1.0000 0.17624  0.15736  0.74141  Biso   1.000  Zn
  Zn4      1.0000 0.78230  0.34870  0.39974  Biso   1.000  Zn
  Zn5      1.0000 0.46039  0.17410  0.21640  Biso   1.000  Zn
  I1       1.0000 0.79051  0.46472  0.35837  Biso   1.000  I
  I2       1.0000 0.64202  0.26340  0.43759  Biso   1.000  I
  I3       1.0000 0.52856  0.25762  0.29362  Biso   1.000  I
  I4       1.0000 0.47792  0.04063  0.18856  Biso   1.000  I
  N1       1.0000 0.94330  0.26920  0.85900  Biso   1.000  N
  C1       1.0000 0.87200  0.29190  0.84560  Biso   1.000  C
  H1       1.0000 0.87450  0.34420  0.85760  Biso   1.000  H
  C2       1.0000 0.79380  0.24480  0.81510  Biso   1.000  C
  H2       1.0000 0.74070  0.26150  0.80890  Biso   1.000  H
  C3       1.0000 0.79530  0.17090  0.79320  Biso   1.000  C
  C4       1.0000 0.87340  0.14550  0.80720  Biso   1.000  C
  H3       1.0000 0.87690  0.09570  0.79420  Biso   1.000  H
  C5       1.0000 0.94230  0.19670  0.84000  Biso   1.000  C
  H4       1.0000 0.99330  0.18010  0.85020  Biso   1.000  H
  N2       1.0000 0.69590  0.83310  0.61080  Biso   1.000  N
  C6       1.0000 0.75800  0.86750  0.64890  Biso   1.000  C
  H5       1.0000 0.81130  0.85090  0.65490  Biso   1.000  H
  C7       1.0000 0.74460  0.92640  0.67890  Biso   1.000  C
  H6       1.0000 0.79040  0.95150  0.70480  Biso   1.000  H
  C8       1.0000 0.66500  0.94970  0.67200  Biso   1.000  C
  C9       1.0000 0.60220  0.91170  0.63300  Biso   1.000  C
  H7       1.0000 0.54670  0.92530  0.62660  Biso   1.000  H
  C10      1.0000 0.61980  0.85500  0.60380  Biso   1.000  C
  H8       1.0000 0.57580  0.83020  0.57730  Biso   1.000  H
  N3       1.0000 0.29670  0.12300  0.73810  Biso   1.000  N
  C11      1.0000 0.37260  0.16530  0.76680  Biso   1.000  C
  H9       1.0000 0.36720  0.20420  0.79000  Biso   1.000  H
  C12      1.0000 0.46120  0.15460  0.76420  Biso   1.000  C
  H10      1.0000 0.51510  0.18470  0.78580  Biso   1.000  H
  C13      1.0000 0.46900  0.10060  0.73030  Biso   1.000  C
  C14      1.0000 0.39120  0.05830  0.70150  Biso   1.000  C
  H11      1.0000 0.39500  0.01970  0.67770  Biso   1.000  H
  C15      1.0000 0.30360  0.07050  0.70630  Biso   1.000  C
  H12      1.0000 0.24830  0.03950  0.68580  Biso   1.000  H
  C16      1.0000 0.71680  0.11850  0.75950  Biso   1.000  C
  N4       1.0000 0.72560  0.05510  0.73510  Biso   1.000  N
  C17      1.0000 0.65150  0.01370  0.70410  Biso   1.000  C
  N5       1.0000 0.56900  0.02760  0.69830  Biso   1.000  N
  C18      1.0000 0.56530  0.08830  0.72710  Biso   1.000  C
  N6       1.0000 0.63720  0.14010  0.75650  Biso   1.000  N
  N7       1.0000 0.58670  0.65890  0.55360  Biso   1.000  N
  C19      1.0000 0.52930  0.63480  0.51520  Biso   1.000  C
  H13      1.0000 0.54720  0.66120  0.48970  Biso   1.000  H
  C20      1.0000 0.44280  0.57070  0.51230  Biso   1.000  C
  H14      1.0000 0.40160  0.55350  0.48460  Biso   1.000  H
  C21      1.0000 0.41560  0.53150  0.54880  Biso   1.000  C
  C22      1.0000 0.47600  0.55940  0.58870  Biso   1.000  C
  H15      1.0000 0.46030  0.53370  0.61460  Biso   1.000  H
  C23      1.0000 0.56130  0.62630  0.59060  Biso   1.000  C
  H16      1.0000 0.60100  0.64850  0.61850  Biso   1.000  H
  N8       1.0000 0.90510  0.38070  0.44510  Biso   1.000  N
  C24      1.0000 0.99090  0.44190  0.44180  Biso   1.000  C
  H17      1.0000 0.99110  0.47890  0.42160  Biso   1.000  H
  C25      1.0000 0.07370  0.45080  0.46610  Biso   1.000  C
  H18      1.0000 0.13160  0.49210  0.46160  Biso   1.000  H
  C26      1.0000 0.07610  0.40020  0.49810  Biso   1.000  C
  C27      1.0000 0.98870  0.33860  0.50320  Biso   1.000  C
  H19      1.0000 0.98640  0.30220  0.52410  Biso   1.000  H
  C28      1.0000 0.90490  0.33330  0.47570  Biso   1.000  C
  H20      1.0000 0.84520  0.29350  0.47960  Biso   1.000  H
  N9       1.0000 0.19610  0.22050  0.68680  Biso   1.000  N
  C29      1.0000 0.26760  0.28300  0.68990  Biso   1.000  C
  H21      1.0000 0.31220  0.29770  0.71650  Biso   1.000  H
  C30      1.0000 0.28610  0.33240  0.65710  Biso   1.000  C
  H22      1.0000 0.34050  0.38100  0.66150  Biso   1.000  H
  C31      1.0000 0.22140  0.30890  0.61600  Biso   1.000  C
  C32      1.0000 0.14140  0.23970  0.61280  Biso   1.000  C
  H23      1.0000 0.09480  0.22270  0.58690  Biso   1.000  H
  C33      1.0000 0.13100  0.19550  0.64860  Biso   1.000  C
  H24      1.0000 0.07740  0.14670  0.64650  Biso   1.000  H
  C34      1.0000 0.32160  0.46500  0.54830  Biso   1.000  C
  N10      1.0000 0.24830  0.46260  0.52060  Biso   1.000  N
  C35      1.0000 0.16270  0.40370  0.52590  Biso   1.000  C
  N11      1.0000 0.15320  0.35270  0.55420  Biso   1.000  N
  C36      1.0000 0.23380  0.36140  0.58070  Biso   1.000  C
  N12      1.0000 0.31930  0.41530  0.57840  Biso   1.000  N
  N13      1.0000 0.81790  0.27200  0.35330  Biso   1.000  N
  C37      1.0000 0.75070  0.20690  0.32900  Biso   1.000  C
  H25      1.0000 0.68620  0.19030  0.33650  Biso   1.000  H
  C38      1.0000 0.77450  0.16270  0.29220  Biso   1.000  C
  H26      1.0000 0.72500  0.11910  0.27390  Biso   1.000  H
  C39      1.0000 0.86760  0.18190  0.28280  Biso   1.000  C
  C40      1.0000 0.93500  0.25180  0.30750  Biso   1.000  C
  H27      1.0000 0.99970  0.27060  0.30010  Biso   1.000  H
  C41      1.0000 0.90850  0.29270  0.34190  Biso   1.000  C
  H28      1.0000 0.95660  0.33880  0.35900  Biso   1.000  H
  N14      1.0000 0.64510  0.87660  0.08380  Biso   1.000  N
  C42      1.0000 0.73480  0.87630  0.08640  Biso   1.000  C
  H29      1.0000 0.75010  0.84020  0.06490  Biso   1.000  H
  C43      1.0000 0.80870  0.92800  0.12010  Biso   1.000  C
  H30      1.0000 0.87200  0.92610  0.12190  Biso   1.000  H
  C44      1.0000 0.78470  0.98160  0.15040  Biso   1.000  C
  C45      1.0000 0.68920  0.98180  0.14800  Biso   1.000  C
  H31      1.0000 0.67170  0.01800  0.16840  Biso   1.000  H
  C46      1.0000 0.62230  0.92710  0.11460  Biso   1.000  C
  H32      1.0000 0.55730  0.92490  0.11320  Biso   1.000  H
  N15      1.0000 0.31400  0.15700  0.20980  Biso   1.000  N
  C47      1.0000 0.25120  0.09970  0.18040  Biso   1.000  C
  H33      1.0000 0.27380  0.06600  0.16070  Biso   1.000  H
  C48      1.0000 0.15300  0.08670  0.17680  Biso   1.000  C
  H34      1.0000 0.10980  0.04650  0.15420  Biso   1.000  H
  C49      1.0000 0.12000  0.13150  0.20570  Biso   1.000  C
  C50      1.0000 0.18690  0.19770  0.23680  Biso   1.000  C
  H35      1.0000 0.16660  0.23310  0.25650  Biso   1.000  H
  C51      1.0000 0.28260  0.20600  0.23600  Biso   1.000  C
  H36      1.0000 0.32930  0.24990  0.25540  Biso   1.000  H
  C52      1.0000 0.89650  0.13770  0.24540  Biso   1.000  C
  N16      1.0000 0.99050  0.16020  0.24080  Biso   1.000  N
  C53      1.0000 0.01460  0.11600  0.20880  Biso   1.000  C
  N17      1.0000 0.95210  0.05650  0.17780  Biso   1.000  N
  C54      1.0000 0.85760  0.04010  0.18430  Biso   1.000  C
  N18      1.0000 0.82760  0.07930  0.21820  Biso   1.000  N
  N19      1.0000 0.51300  0.24380  0.16770  Biso   1.000  N
  C55      1.0000 0.58300  0.23220  0.14190  Biso   1.000  C
  H37      1.0000 0.60310  0.18840  0.14570  Biso   1.000  H
  C56      1.0000 0.62260  0.27940  0.11210  Biso   1.000  C
  H38      1.0000 0.67450  0.27230  0.09720  Biso   1.000  H
  C57      1.0000 0.58820  0.33870  0.10300  Biso   1.000  C
  C58      1.0000 0.52020  0.34940  0.12770  Biso   1.000  C
  H39      1.0000 0.49730  0.39170  0.12320  Biso   1.000  H
  C59      1.0000 0.48320  0.30170  0.15860  Biso   1.000  C
  H40      1.0000 0.43340  0.31050  0.17450  Biso   1.000  H
  N20      1.0000 0.96240  0.38270  0.94820  Biso   1.000  N
  C60      1.0000 0.93850  0.44660  0.94470  Biso   1.000  C
  H41      1.0000 0.97290  0.48340  0.92590  Biso   1.000  H
  C61      1.0000 0.86850  0.46260  0.96610  Biso   1.000  C
  H42      1.0000 0.85420  0.50940  0.96250  Biso   1.000  H
  C62      1.0000 0.81820  0.40970  0.99330  Biso   1.000  C
  C63      1.0000 0.84440  0.34500  0.99930  Biso   1.000  C
  H43      1.0000 0.81350  0.30920  0.01930  Biso   1.000  H
  C64      1.0000 0.91650  0.33270  0.97590  Biso   1.000  C
  H44      1.0000 0.93400  0.28740  0.97950  Biso   1.000  H
  N21      1.0000 0.57710  0.70600  0.02490  Biso   1.000  N
  C65      1.0000 0.56300  0.66950  0.06120  Biso   1.000  C
  H45      1.0000 0.53820  0.69270  0.08560  Biso   1.000  H
  C66      1.0000 0.58200  0.59660  0.06630  Biso   1.000  C
  H46      1.0000 0.57040  0.57060  0.09240  Biso   1.000  H
  C67      1.0000 0.61790  0.56940  0.02830  Biso   1.000  C
  C68      1.0000 0.63420  0.60990  0.99250  Biso   1.000  C
  H47      1.0000 0.66020  0.59070  0.96720  Biso   1.000  H
  C69      1.0000 0.61400  0.67770  0.99260  Biso   1.000  C
  H48      1.0000 0.62680  0.70560  0.96730  Biso   1.000  H
  C70      1.0000 0.63250  0.39050  0.06920  Biso   1.000  C
  N22      1.0000 0.70130  0.37360  0.04670  Biso   1.000  N
  C71      1.0000 0.73940  0.42370  0.01780  Biso   1.000  C
  N23      1.0000 0.71340  0.48520  0.00930  Biso   1.000  N
  C72      1.0000 0.64650  0.49690  0.03500  Biso   1.000  C
  N24      1.0000 0.60350  0.45010  0.06460  Biso   1.000  N
  I5       1.0000 0.12670  0.27300  0.94960  Biso   1.000  I
  I6       1.0000 0.14010  0.47440  0.86680  Biso   1.000  I
  I7       1.0000 0.74020  0.81930  0.49060  Biso   1.000  I
  I8       1.0000 0.83900  0.70010  0.60140  Biso   1.000  I
  I9       1.0000 0.21250  0.26710  0.81201  Biso   1.000  I
  I10      1.0000 0.02150  0.04250  0.72232  Biso   1.000  I
  Zn6      1.0000 0.56650  0.82050  0.01820  Biso   1.000  Zn
  I11      1.0000 0.39550  0.80160  0.03750  Biso   1.000  I
  I12      1.0000 0.64910  0.88480  0.95250  Biso   1.000  I
  I13      1.0000 0.11950  0.24830  0.95250  Biso   1.000  I
  I14      1.0000 0.13800  0.45070  0.87000  Biso   1.000  I
  I15      1.0000 0.74330  0.81050  0.48990  Biso   1.000  I
  I16      1.0000 0.83980  0.70250  0.60080  Biso   1.000  I
  I17      1.0000 0.18600  0.23100  0.81110  Biso   1.000  I
  I18      1.0000 0.01900  0.01500  0.70920  Biso   1.000  I
  Zn7      1.0000 0.54240  0.81140  0.03090  Biso   1.000  Zn
  I19      1.0000 0.38360  0.78010  0.06580  Biso   1.000  I
  I20      1.0000 0.59000  0.87700  0.96100  Biso   1.000  I
  Zn8      1.0000 0.52500  0.79640  0.04580  Biso   1.000  Zn
  I21      1.0000 0.37820  0.75270  0.09490  Biso   1.000  I
  I22      1.0000 0.52930  0.85960  0.97790  Biso   1.000  I
  Zn9      1.0000 0.94679  0.65358  0.09343  Biso   1.000  Zn
  Zn10     1.0000 0.27919  0.24644  0.43775  Biso   1.000  Zn
  Zn11     1.0000 0.82376  0.84264  0.25859  Biso   1.000  Zn
  Zn12     1.0000 0.21770  0.65130  0.60026  Biso   1.000  Zn
  Zn13     1.0000 0.53961  0.82590  0.78360  Biso   1.000  Zn
  I23      1.0000 0.20949  0.53528  0.64163  Biso   1.000  I
  I24      1.0000 0.35798  0.73660  0.56241  Biso   1.000  I
  I25      1.0000 0.47144  0.74238  0.70638  Biso   1.000  I
  I26      1.0000 0.52208  0.95937  0.81144  Biso   1.000  I
  N25      1.0000 0.05670  0.73080  0.14100  Biso   1.000  N
  C73      1.0000 0.12800  0.70810  0.15440  Biso   1.000  C
  H49      1.0000 0.12550  0.65580  0.14240  Biso   1.000  H
  C74      1.0000 0.20620  0.75520  0.18490  Biso   1.000  C
  H50      1.0000 0.25930  0.73850  0.19110  Biso   1.000  H
  C75      1.0000 0.20470  0.82910  0.20680  Biso   1.000  C
  C76      1.0000 0.12660  0.85450  0.19280  Biso   1.000  C
  H51      1.0000 0.12310  0.90430  0.20580  Biso   1.000  H
  C77      1.0000 0.05770  0.80330  0.16000  Biso   1.000  C
  H52      1.0000 0.00670  0.81990  0.14980  Biso   1.000  H
  N26      1.0000 0.30410  0.16690  0.38920  Biso   1.000  N
  C78      1.0000 0.24200  0.13250  0.35110  Biso   1.000  C
  H53      1.0000 0.18870  0.14910  0.34510  Biso   1.000  H
  C79      1.0000 0.25540  0.07360  0.32110  Biso   1.000  C
  H54      1.0000 0.20960  0.04850  0.29520  Biso   1.000  H
  C80      1.0000 0.33500  0.05030  0.32800  Biso   1.000  C
  C81      1.0000 0.39780  0.08830  0.36700  Biso   1.000  C
  H55      1.0000 0.45330  0.07470  0.37340  Biso   1.000  H
  C82      1.0000 0.38020  0.14500  0.39620  Biso   1.000  C
  H56      1.0000 0.42420  0.16980  0.42270  Biso   1.000  H
  N27      1.0000 0.70330  0.87700  0.26190  Biso   1.000  N
  C83      1.0000 0.62740  0.83470  0.23320  Biso   1.000  C
  H57      1.0000 0.63280  0.79580  0.21000  Biso   1.000  H
  C84      1.0000 0.53880  0.84540  0.23580  Biso   1.000  C
  H58      1.0000 0.48490  0.81530  0.21420  Biso   1.000  H
  C85      1.0000 0.53100  0.89940  0.26970  Biso   1.000  C
  C86      1.0000 0.60880  0.94170  0.29850  Biso   1.000  C
  H59      1.0000 0.60500  0.98030  0.32230  Biso   1.000  H
  C87      1.0000 0.69640  0.92950  0.29370  Biso   1.000  C
  H60      1.0000 0.75170  0.96050  0.31420  Biso   1.000  H
  C88      1.0000 0.28320  0.88150  0.24050  Biso   1.000  C
  N28      1.0000 0.27440  0.94490  0.26490  Biso   1.000  N
  C89      1.0000 0.34850  0.98630  0.29590  Biso   1.000  C
  N29      1.0000 0.43100  0.97240  0.30170  Biso   1.000  N
  C90      1.0000 0.43470  0.91170  0.27290  Biso   1.000  C
  N30      1.0000 0.36280  0.85990  0.24350  Biso   1.000  N
  N31      1.0000 0.41330  0.34110  0.44640  Biso   1.000  N
  C91      1.0000 0.47070  0.36520  0.48480  Biso   1.000  C
  H61      1.0000 0.45280  0.33880  0.51030  Biso   1.000  H
  C92      1.0000 0.55720  0.42930  0.48770  Biso   1.000  C
  H62      1.0000 0.59840  0.44650  0.51540  Biso   1.000  H
  C93      1.0000 0.58440  0.46850  0.45120  Biso   1.000  C
  C94      1.0000 0.52400  0.44060  0.41130  Biso   1.000  C
  H63      1.0000 0.53970  0.46630  0.38540  Biso   1.000  H
  C95      1.0000 0.43870  0.37370  0.40940  Biso   1.000  C
  H64      1.0000 0.39900  0.35150  0.38150  Biso   1.000  H
  N32      1.0000 0.09490  0.61930  0.55490  Biso   1.000  N
  C96      1.0000 0.00910  0.55810  0.55820  Biso   1.000  C
  H65      1.0000 0.00890  0.52110  0.57840  Biso   1.000  H
  C97      1.0000 0.92630  0.54920  0.53390  Biso   1.000  C
  H66      1.0000 0.86840  0.50790  0.53840  Biso   1.000  H
  C98      1.0000 0.92390  0.59980  0.50190  Biso   1.000  C
  C99      1.0000 0.01130  0.66140  0.49680  Biso   1.000  C
  H67      1.0000 0.01360  0.69780  0.47590  Biso   1.000  H
  C100     1.0000 0.09510  0.66670  0.52430  Biso   1.000  C
  H68      1.0000 0.15480  0.70650  0.52040  Biso   1.000  H
  N33      1.0000 0.80390  0.77950  0.31320  Biso   1.000  N
  C101     1.0000 0.73240  0.71700  0.31010  Biso   1.000  C
  H69      1.0000 0.68780  0.70230  0.28350  Biso   1.000  H
  C102     1.0000 0.71390  0.66760  0.34290  Biso   1.000  C
  H70      1.0000 0.65950  0.61900  0.33850  Biso   1.000  H
  C103     1.0000 0.77860  0.69110  0.38400  Biso   1.000  C
  C104     1.0000 0.85860  0.76030  0.38720  Biso   1.000  C
  H71      1.0000 0.90520  0.77730  0.41310  Biso   1.000  H
  C105     1.0000 0.86900  0.80450  0.35140  Biso   1.000  C
  H72      1.0000 0.92260  0.85330  0.35350  Biso   1.000  H
  C106     1.0000 0.67840  0.53500  0.45170  Biso   1.000  C
  N34      1.0000 0.75170  0.53740  0.47940  Biso   1.000  N
  C107     1.0000 0.83730  0.59630  0.47410  Biso   1.000  C
  N35      1.0000 0.84680  0.64730  0.44580  Biso   1.000  N
  C108     1.0000 0.76620  0.63860  0.41930  Biso   1.000  C
  N36      1.0000 0.68070  0.58470  0.42160  Biso   1.000  N
  N37      1.0000 0.18210  0.72800  0.64670  Biso   1.000  N
  C109     1.0000 0.24930  0.79310  0.67100  Biso   1.000  C
  H73      1.0000 0.31380  0.80970  0.66350  Biso   1.000  H
  C110     1.0000 0.22550  0.83730  0.70780  Biso   1.000  C
  H74      1.0000 0.27500  0.88090  0.72610  Biso   1.000  H
  C111     1.0000 0.13240  0.81810  0.71720  Biso   1.000  C
  C112     1.0000 0.06500  0.74820  0.69250  Biso   1.000  C
  H75      1.0000 0.00030  0.72940  0.69990  Biso   1.000  H
  C113     1.0000 0.09150  0.70730  0.65810  Biso   1.000  C
  H76      1.0000 0.04340  0.66120  0.64100  Biso   1.000  H
  N38      1.0000 0.35490  0.12340  0.91620  Biso   1.000  N
  C114     1.0000 0.26520  0.12370  0.91360  Biso   1.000  C
  H77      1.0000 0.24990  0.15980  0.93510  Biso   1.000  H
  C115     1.0000 0.19130  0.07200  0.87990  Biso   1.000  C
  H78      1.0000 0.12800  0.07390  0.87810  Biso   1.000  H
  C116     1.0000 0.21530  0.01840  0.84960  Biso   1.000  C
  C117     1.0000 0.31080  0.01820  0.85200  Biso   1.000  C
  H79      1.0000 0.32830  0.98200  0.83160  Biso   1.000  H
  C118     1.0000 0.37770  0.07290  0.88540  Biso   1.000  C
  H80      1.0000 0.44270  0.07510  0.88680  Biso   1.000  H
  N39      1.0000 0.68600  0.84300  0.79020  Biso   1.000  N
  C119     1.0000 0.74880  0.90030  0.81960  Biso   1.000  C
  H81      1.0000 0.72620  0.93400  0.83930  Biso   1.000  H
  C120     1.0000 0.84700  0.91330  0.82320  Biso   1.000  C
  H82      1.0000 0.89020  0.95350  0.84580  Biso   1.000  H
  C121     1.0000 0.88000  0.86850  0.79430  Biso   1.000  C
  C122     1.0000 0.81310  0.80230  0.76320  Biso   1.000  C
  H83      1.0000 0.83340  0.76690  0.74350  Biso   1.000  H
  C123     1.0000 0.71740  0.79400  0.76400  Biso   1.000  C
  H84      1.0000 0.67070  0.75010  0.74460  Biso   1.000  H
  C124     1.0000 0.10350  0.86230  0.75460  Biso   1.000  C
  N40      1.0000 0.00950  0.83980  0.75920  Biso   1.000  N
  C125     1.0000 0.98540  0.88400  0.79120  Biso   1.000  C
  N41      1.0000 0.04790  0.94350  0.82220  Biso   1.000  N
  C126     1.0000 0.14240  0.95990  0.81570  Biso   1.000  C
  N42      1.0000 0.17240  0.92070  0.78180  Biso   1.000  N
  N43      1.0000 0.48700  0.75620  0.83230  Biso   1.000  N
  C127     1.0000 0.41700  0.76780  0.85810  Biso   1.000  C
  H85      1.0000 0.39690  0.81160  0.85430  Biso   1.000  H
  C128     1.0000 0.37740  0.72060  0.88790  Biso   1.000  C
  H86      1.0000 0.32550  0.72770  0.90280  Biso   1.000  H
  C129     1.0000 0.41180  0.66130  0.89700  Biso   1.000  C
  C130     1.0000 0.47980  0.65060  0.87230  Biso   1.000  C
  H87      1.0000 0.50270  0.60830  0.87680  Biso   1.000  H
  C131     1.0000 0.51680  0.69830  0.84140  Biso   1.000  C
  H88      1.0000 0.56660  0.68950  0.82550  Biso   1.000  H
  N44      1.0000 0.03760  0.61730  0.05180  Biso   1.000  N
  C132     1.0000 0.06150  0.55340  0.05530  Biso   1.000  C
  H89      1.0000 0.02710  0.51660  0.07410  Biso   1.000  H
  C133     1.0000 0.13150  0.53740  0.03390  Biso   1.000  C
  H90      1.0000 0.14580  0.49060  0.03750  Biso   1.000  H
  C134     1.0000 0.18180  0.59030  0.00670  Biso   1.000  C
  C135     1.0000 0.15560  0.65500  0.00070  Biso   1.000  C
  H91      1.0000 0.18650  0.69080  0.98070  Biso   1.000  H
  C136     1.0000 0.08350  0.66730  0.02410  Biso   1.000  C
  H92      1.0000 0.06600  0.71260  0.02050  Biso   1.000  H
  N45      1.0000 0.42290  0.29400  0.97510  Biso   1.000  N
  C137     1.0000 0.43700  0.33050  0.93880  Biso   1.000  C
  H93      1.0000 0.46180  0.30730  0.91440  Biso   1.000  H
  C138     1.0000 0.41800  0.40340  0.93370  Biso   1.000  C
  H94      1.0000 0.42960  0.42940  0.90760  Biso   1.000  H
  C139     1.0000 0.38210  0.43060  0.97170  Biso   1.000  C
  C140     1.0000 0.36580  0.39010  0.00750  Biso   1.000  C
  H95      1.0000 0.33980  0.40930  0.03280  Biso   1.000  H
  C141     1.0000 0.38600  0.32230  0.00740  Biso   1.000  C
  H96      1.0000 0.37320  0.29440  0.03270  Biso   1.000  H
  C142     1.0000 0.36750  0.60950  0.93080  Biso   1.000  C
  N46      1.0000 0.29870  0.62640  0.95330  Biso   1.000  N
  C143     1.0000 0.26060  0.57630  0.98220  Biso   1.000  C
  N47      1.0000 0.28660  0.51480  0.99070  Biso   1.000  N
  C144     1.0000 0.35350  0.50310  0.96500  Biso   1.000  C
  N48      1.0000 0.39650  0.54990  0.93540  Biso   1.000  N
  I27      1.0000 0.87330  0.72700  0.05040  Biso   1.000  I
  I28      1.0000 0.85990  0.52560  0.13320  Biso   1.000  I
  I29      1.0000 0.25980  0.18070  0.50940  Biso   1.000  I
  I30      1.0000 0.16100  0.29990  0.39860  Biso   1.000  I
  I31      1.0000 0.78750  0.73290  0.18799  Biso   1.000  I
  I32      1.0000 0.97850  0.95750  0.27768  Biso   1.000  I
  Zn14     1.0000 0.43350  0.17950  0.98180  Biso   1.000  Zn
  I33      1.0000 0.60450  0.19840  0.96250  Biso   1.000  I
  I34      1.0000 0.35090  0.11520  0.04750  Biso   1.000  I
  I35      1.0000 0.88050  0.75170  0.04750  Biso   1.000  I
  I36      1.0000 0.86200  0.54930  0.13000  Biso   1.000  I
  I37      1.0000 0.25670  0.18950  0.51010  Biso   1.000  I
  I38      1.0000 0.16020  0.29750  0.39920  Biso   1.000  I
  I39      1.0000 0.81400  0.76900  0.18890  Biso   1.000  I
  I40      1.0000 0.98100  0.98500  0.29080  Biso   1.000  I
  Zn15     1.0000 0.45760  0.18860  0.96910  Biso   1.000  Zn
  I41      1.0000 0.61640  0.21990  0.93420  Biso   1.000  I
  I42      1.0000 0.41000  0.12300  0.03900  Biso   1.000  I
  Zn16     1.0000 0.47500  0.20360  0.95420  Biso   1.000  Zn
  I43      1.0000 0.62180  0.24730  0.90510  Biso   1.000  I
  I44      1.0000 0.47070  0.14040  0.02210  Biso   1.000  I
  C145     1.0000 0.40000  0.52500  0.28630  Biso   1.000  C
  C146     1.0000 0.44600  0.60600  0.31940  Biso   1.000  C
  H97      1.0000 0.51300  0.64550  0.32040  Biso   1.000  H
  C147     1.0000 0.40200  0.55700  0.35900  Biso   1.000  C
  H98      1.0000 0.43420  0.56210  0.39010  Biso   1.000  H
  C148     1.0000 0.35700  0.47700  0.32290  Biso   1.000  C
  H99      1.0000 0.35880  0.42260  0.32700  Biso   1.000  H
  C149     1.0000 0.26600  0.49600  0.31360  Biso   1.000  C
  H100     1.0000 0.19930  0.45630  0.31280  Biso   1.000  H
  C150     1.0000 0.30400  0.53800  0.27540  Biso   1.000  C
  H101     1.0000 0.26790  0.52770  0.24450  Biso   1.000  H
  C151     1.0000 0.35000  0.61800  0.30420  Biso   1.000  C
  H102     1.0000 0.34430  0.66990  0.29710  Biso   1.000  H
  C152     1.0000 0.30800  0.57400  0.34620  Biso   1.000  C
  C153     1.0000 0.45300  0.49000  0.25280  Biso   1.000  C
  O1       1.0000 0.54800  0.52100  0.26680  Biso   1.000  O
  O2       1.0000 0.42000  0.43600  0.22300  Biso   1.000  O
  C154     1.0000 0.61900  0.50100  0.23500  Biso   1.000  C
  H103     1.0000 0.68500  0.52760  0.25000  Biso   1.000  H
  H104     1.0000 0.60310  0.44300  0.23000  Biso   1.000  H
  H105     1.0000 0.61240  0.52060  0.20650  Biso   1.000  H
  C155     1.0000 0.26000  0.60400  0.38680  Biso   1.000  C
  O3       1.0000 0.27200  0.67900  0.39000  Biso   1.000  O
  O4       1.0000 0.26300  0.57200  0.42010  Biso   1.000  O
  C156     1.0000 0.21300  0.69600  0.42600  Biso   1.000  C
  H106     1.0000 0.22050  0.75320  0.42950  Biso   1.000  H
  H107     1.0000 0.14510  0.66300  0.41760  Biso   1.000  H
  H108     1.0000 0.23600  0.68400  0.45480  Biso   1.000  H
  C157     1.0000 0.54400  0.07800  0.50400  Biso   1.000  C
  H109     1.0000 0.61330  0.09250  0.51530  Biso   1.000  H
  H110     1.0000 0.53850  0.11700  0.48450  Biso   1.000  H
  C158     1.0000 0.50400  0.99200  0.47800  Biso   1.000  C
  H111     1.0000 0.43370  0.97570  0.46870  Biso   1.000  H
  H112     1.0000 0.53680  0.98890  0.45020  Biso   1.000  H
  C159     1.0000 0.52300  0.93700  0.51000  Biso   1.000  C
  H113     1.0000 0.59340  0.95490  0.51970  Biso   1.000  H
  H114     1.0000 0.50220  0.88110  0.49390  Biso   1.000  H
  C160     1.0000 0.46800  0.94000  0.55100  Biso   1.000  C
  H115     1.0000 0.47790  0.90310  0.57160  Biso   1.000  H
  H116     1.0000 0.39750  0.92190  0.54140  Biso   1.000  H
  C161     1.0000 0.50300  0.02600  0.57700  Biso   1.000  C
  H117     1.0000 0.46650  0.02820  0.60380  Biso   1.000  H
  H118     1.0000 0.57220  0.04380  0.58810  Biso   1.000  H
  C162     1.0000 0.48600  0.08200  0.54500  Biso   1.000  C
  H119     1.0000 0.50730  0.13770  0.56120  Biso   1.000  H
  H120     1.0000 0.41630  0.06470  0.53440  Biso   1.000  H
  C163     1.0000 0.38300  0.66200  0.40200  Biso   1.000  C
  H121     1.0000 0.42510  0.65400  0.42700  Biso   1.000  H
  H122     1.0000 0.32950  0.61040  0.39210  Biso   1.000  H
  C164     1.0000 0.44200  0.68800  0.36300  Biso   1.000  C
  H123     1.0000 0.46070  0.64360  0.34860  Biso   1.000  H
  H124     1.0000 0.40210  0.70150  0.33940  Biso   1.000  H
  C165     1.0000 0.53300  0.76200  0.38000  Biso   1.000  C
  H125     1.0000 0.56250  0.78640  0.35360  Biso   1.000  H
  H126     1.0000 0.58140  0.74540  0.39630  Biso   1.000  H
  C166     1.0000 0.50700  0.82400  0.41100  Biso   1.000  C
  H127     1.0000 0.54360  0.87910  0.40510  Biso   1.000  H
  H128     1.0000 0.52520  0.82120  0.44320  Biso   1.000  H
  C167     1.0000 0.39800  0.80600  0.40300  Biso   1.000  C
  H129     1.0000 0.38160  0.85060  0.41860  Biso   1.000  H
  H130     1.0000 0.37880  0.80130  0.36980  Biso   1.000  H
  C168     1.0000 0.34300  0.72700  0.42000  Biso   1.000  C
  H131     1.0000 0.27330  0.70950  0.40910  Biso   1.000  H
  H132     1.0000 0.35010  0.73570  0.45340  Biso   1.000  H
  C169     1.0000 0.60000  0.47500  0.71370  Biso   1.000  C
  C170     1.0000 0.55400  0.39400  0.68060  Biso   1.000  C
  H133     1.0000 0.48700  0.35450  0.67960  Biso   1.000  H
  C171     1.0000 0.59800  0.44300  0.64100  Biso   1.000  C
  H134     1.0000 0.56580  0.43790  0.60990  Biso   1.000  H
  C172     1.0000 0.64300  0.52300  0.67710  Biso   1.000  C
  H135     1.0000 0.64120  0.57740  0.67300  Biso   1.000  H
  C173     1.0000 0.73400  0.50400  0.68640  Biso   1.000  C
  H136     1.0000 0.80070  0.54370  0.68720  Biso   1.000  H
  C174     1.0000 0.69600  0.46200  0.72460  Biso   1.000  C
  H137     1.0000 0.73210  0.47230  0.75550  Biso   1.000  H
  C175     1.0000 0.65000  0.38200  0.69580  Biso   1.000  C
  H138     1.0000 0.65570  0.33010  0.70290  Biso   1.000  H
  C176     1.0000 0.69200  0.42600  0.65380  Biso   1.000  C
  C177     1.0000 0.54700  0.51000  0.74720  Biso   1.000  C
  O5       1.0000 0.45200  0.47900  0.73320  Biso   1.000  O
  O6       1.0000 0.58000  0.56400  0.77700  Biso   1.000  O
  C178     1.0000 0.38100  0.49900  0.76500  Biso   1.000  C
  H139     1.0000 0.31500  0.47240  0.75000  Biso   1.000  H
  H140     1.0000 0.39690  0.55700  0.77000  Biso   1.000  H
  H141     1.0000 0.38760  0.47940  0.79350  Biso   1.000  H
  C179     1.0000 0.74000  0.39600  0.61320  Biso   1.000  C
  O7       1.0000 0.72800  0.32100  0.61000  Biso   1.000  O
  O8       1.0000 0.73700  0.42800  0.57990  Biso   1.000  O
  C180     1.0000 0.78700  0.30400  0.57400  Biso   1.000  C
  H142     1.0000 0.77950  0.24680  0.57050  Biso   1.000  H
  H143     1.0000 0.85490  0.33700  0.58240  Biso   1.000  H
  H144     1.0000 0.76400  0.31600  0.54520  Biso   1.000  H
  C181     1.0000 0.45600  0.92200  0.49600  Biso   1.000  C
  H145     1.0000 0.38670  0.90750  0.48470  Biso   1.000  H
  H146     1.0000 0.46150  0.88300  0.51550  Biso   1.000  H
  C182     1.0000 0.49600  0.00800  0.52200  Biso   1.000  C
  H147     1.0000 0.56630  0.02430  0.53130  Biso   1.000  H
  H148     1.0000 0.46320  0.01110  0.54980  Biso   1.000  H
  C183     1.0000 0.47700  0.06300  0.49000  Biso   1.000  C
  H149     1.0000 0.40660  0.04510  0.48030  Biso   1.000  H
  H150     1.0000 0.49780  0.11890  0.50610  Biso   1.000  H
  C184     1.0000 0.53200  0.06000  0.44900  Biso   1.000  C
  H151     1.0000 0.52210  0.09690  0.42840  Biso   1.000  H
  H152     1.0000 0.60250  0.07810  0.45860  Biso   1.000  H
  C185     1.0000 0.49700  0.97400  0.42300  Biso   1.000  C
  H153     1.0000 0.53350  0.97180  0.39620  Biso   1.000  H
  H154     1.0000 0.42780  0.95620  0.41190  Biso   1.000  H
  C186     1.0000 0.51400  0.91800  0.45500  Biso   1.000  C
  H155     1.0000 0.49270  0.86230  0.43880  Biso   1.000  H
  H156     1.0000 0.58370  0.93530  0.46560  Biso   1.000  H
  C187     1.0000 0.61700  0.33800  0.59800  Biso   1.000  C
  H157     1.0000 0.57490  0.34600  0.57300  Biso   1.000  H
  H158     1.0000 0.67050  0.38960  0.60790  Biso   1.000  H
  C188     1.0000 0.55800  0.31200  0.63700  Biso   1.000  C
  H159     1.0000 0.53930  0.35640  0.65140  Biso   1.000  H
  H160     1.0000 0.59790  0.29850  0.66060  Biso   1.000  H
  C189     1.0000 0.46700  0.23800  0.62000  Biso   1.000  C
  H161     1.0000 0.43750  0.21360  0.64640  Biso   1.000  H
  H162     1.0000 0.41860  0.25460  0.60370  Biso   1.000  H
  C190     1.0000 0.49300  0.17600  0.58900  Biso   1.000  C
  H163     1.0000 0.45640  0.12090  0.59490  Biso   1.000  H
  H164     1.0000 0.47480  0.17880  0.55680  Biso   1.000  H
  C191     1.0000 0.60200  0.19400  0.59700  Biso   1.000  C
  H165     1.0000 0.61840  0.14940  0.58140  Biso   1.000  H
  H166     1.0000 0.62120  0.19870  0.63020  Biso   1.000  H
  C192     1.0000 0.65700  0.27300  0.58000  Biso   1.000  C
  H167     1.0000 0.72670  0.29050  0.59090  Biso   1.000  H
  H168     1.0000 0.64990  0.26430  0.54660  Biso   1.000  H
