data_image0
_cell_length_a       14.8303
_cell_length_b       17.913
_cell_length_c       29.8943
_cell_angle_alpha    96.803
_cell_angle_beta     93.488
_cell_angle_gamma    110.229

_symmetry_space_group_name_H-M    "P 1"
_symmetry_int_tables_number       1

loop_
  _symmetry_equiv_pos_as_xyz
  'x, y, z'

loop_
  _atom_site_label
  _atom_site_occupancy
  _atom_site_fract_x
  _atom_site_fract_y
  _atom_site_fract_z
  _atom_site_thermal_displace_type
  _atom_site_B_iso_or_equiv
  _atom_site_type_symbol
  Zn1      1.0000 0.05302  0.34626  0.90654  Biso   1.000  Zn
  Zn2      1.0000 0.72095  0.75335  0.56224  Biso   1.000  Zn
  Zn3      1.0000 0.78251  0.34862  0.39954  Biso   1.000  Zn
  Zn4      1.0000 0.46020  0.17386  0.21617  Biso   1.000  Zn
  N1       1.0000 0.94380  0.26810  0.85870  Biso   1.000  N
  C1       1.0000 0.87050  0.29120  0.84520  Biso   1.000  C
  H1       1.0000 0.87070  0.34240  0.85800  Biso   1.000  H
  C2       1.0000 0.79570  0.24330  0.81380  Biso   1.000  C
  H2       1.0000 0.74380  0.26040  0.80580  Biso   1.000  H
  C3       1.0000 0.79640  0.16940  0.79370  Biso   1.000  C
  C4       1.0000 0.87160  0.14610  0.80720  Biso   1.000  C
  H3       1.0000 0.87450  0.09610  0.79430  Biso   1.000  H
  C5       1.0000 0.94350  0.19740  0.84030  Biso   1.000  C
  H4       1.0000 0.99470  0.18060  0.85010  Biso   1.000  H
  N2       1.0000 0.69590  0.83360  0.61090  Biso   1.000  N
  C6       1.0000 0.75720  0.86830  0.64870  Biso   1.000  C
  H5       1.0000 0.81070  0.85190  0.65470  Biso   1.000  H
  C7       1.0000 0.74430  0.92740  0.67910  Biso   1.000  C
  H6       1.0000 0.78980  0.95220  0.70510  Biso   1.000  H
  C8       1.0000 0.66640  0.94990  0.67190  Biso   1.000  C
  C9       1.0000 0.60340  0.91360  0.63300  Biso   1.000  C
  H7       1.0000 0.54920  0.92880  0.62660  Biso   1.000  H
  C10      1.0000 0.61920  0.85570  0.60360  Biso   1.000  C
  H8       1.0000 0.57460  0.83060  0.57730  Biso   1.000  H
  N3       1.0000 0.29580  0.12360  0.73840  Biso   1.000  N
  C11      1.0000 0.37340  0.16540  0.76690  Biso   1.000  C
  H9       1.0000 0.36920  0.20430  0.79040  Biso   1.000  H
  C12      1.0000 0.46090  0.15420  0.76340  Biso   1.000  C
  H10      1.0000 0.51490  0.18420  0.78500  Biso   1.000  H
  C13      1.0000 0.47010  0.10120  0.72970  Biso   1.000  C
  C14      1.0000 0.39110  0.05710  0.70040  Biso   1.000  C
  H11      1.0000 0.39370  0.01820  0.67650  Biso   1.000  H
  C15      1.0000 0.30350  0.07160  0.70700  Biso   1.000  C
  H12      1.0000 0.24750  0.04080  0.68680  Biso   1.000  H
  C16      1.0000 0.71630  0.11860  0.75920  Biso   1.000  C
  N4       1.0000 0.72550  0.05480  0.73560  Biso   1.000  N
  C17      1.0000 0.65260  0.01430  0.70300  Biso   1.000  C
  N5       1.0000 0.56970  0.02860  0.69800  Biso   1.000  N
  C18      1.0000 0.56400  0.08790  0.72710  Biso   1.000  C
  N6       1.0000 0.63690  0.13800  0.75730  Biso   1.000  N
  N7       1.0000 0.58820  0.65980  0.55390  Biso   1.000  N
  C19      1.0000 0.52960  0.63370  0.51570  Biso   1.000  C
  H13      1.0000 0.54790  0.65900  0.48970  Biso   1.000  H
  C20      1.0000 0.44120  0.56940  0.51260  Biso   1.000  C
  H14      1.0000 0.39940  0.55190  0.48500  Biso   1.000  H
  C21      1.0000 0.41590  0.53220  0.54980  Biso   1.000  C
  C22      1.0000 0.47430  0.56030  0.59040  Biso   1.000  C
  H15      1.0000 0.45700  0.53670  0.61690  Biso   1.000  H
  C23      1.0000 0.56090  0.62570  0.59050  Biso   1.000  C
  H16      1.0000 0.60200  0.64660  0.61810  Biso   1.000  H
  N8       1.0000 0.90620  0.38110  0.44500  Biso   1.000  N
  C24      1.0000 0.98960  0.44020  0.44090  Biso   1.000  C
  H17      1.0000 0.99020  0.47550  0.41950  Biso   1.000  H
  C25      1.0000 0.07440  0.45080  0.46710  Biso   1.000  C
  H18      1.0000 0.13220  0.49360  0.46410  Biso   1.000  H
  C26      1.0000 0.07430  0.39920  0.49730  Biso   1.000  C
  C27      1.0000 0.98860  0.34040  0.50260  Biso   1.000  C
  H19      1.0000 0.98620  0.30510  0.52420  Biso   1.000  H
  C28      1.0000 0.90560  0.33340  0.47570  Biso   1.000  C
  H20      1.0000 0.84620  0.29300  0.47950  Biso   1.000  H
  N9       1.0000 0.19540  0.21850  0.68650  Biso   1.000  N
  C29      1.0000 0.27250  0.28520  0.68910  Biso   1.000  C
  H21      1.0000 0.31730  0.30100  0.71560  Biso   1.000  H
  C30      1.0000 0.29050  0.33260  0.65500  Biso   1.000  C
  H22      1.0000 0.34750  0.37900  0.65710  Biso   1.000  H
  C31      1.0000 0.22070  0.30900  0.61700  Biso   1.000  C
  C32      1.0000 0.14360  0.23980  0.61450  Biso   1.000  C
  H23      1.0000 0.09740  0.22190  0.58850  Biso   1.000  H
  C33      1.0000 0.13220  0.19570  0.64940  Biso   1.000  C
  H24      1.0000 0.07770  0.14730  0.64720  Biso   1.000  H
  C34      1.0000 0.32210  0.46460  0.54860  Biso   1.000  C
  N10      1.0000 0.24780  0.46240  0.52040  Biso   1.000  N
  C35      1.0000 0.16400  0.40400  0.52550  Biso   1.000  C
  N11      1.0000 0.15290  0.35320  0.55470  Biso   1.000  N
  C36      1.0000 0.23230  0.36120  0.58060  Biso   1.000  C
  N12      1.0000 0.32010  0.41580  0.57860  Biso   1.000  N
  N13      1.0000 0.81850  0.27170  0.35280  Biso   1.000  N
  C37      1.0000 0.75260  0.20730  0.32880  Biso   1.000  C
  H25      1.0000 0.68810  0.19090  0.33640  Biso   1.000  H
  C38      1.0000 0.77510  0.16200  0.29220  Biso   1.000  C
  H26      1.0000 0.72580  0.11710  0.27460  Biso   1.000  H
  C39      1.0000 0.86860  0.18350  0.28220  Biso   1.000  C
  C40      1.0000 0.93590  0.25020  0.30830  Biso   1.000  C
  H27      1.0000 0.00160  0.26650  0.30240  Biso   1.000  H
  C41      1.0000 0.90990  0.29360  0.34270  Biso   1.000  C
  H28      1.0000 0.95760  0.34020  0.35970  Biso   1.000  H
  N14      1.0000 0.64480  0.87610  0.08410  Biso   1.000  N
  C42      1.0000 0.73610  0.87640  0.08730  Biso   1.000  C
  H29      1.0000 0.75170  0.83990  0.06630  Biso   1.000  H
  C43      1.0000 0.80770  0.92770  0.11990  Biso   1.000  C
  H30      1.0000 0.87120  0.92600  0.12150  Biso   1.000  H
  C44      1.0000 0.78530  0.98210  0.15040  Biso   1.000  C
  C45      1.0000 0.69130  0.98130  0.14790  Biso   1.000  C
  H31      1.0000 0.67380  0.01700  0.16870  Biso   1.000  H
  C46      1.0000 0.62380  0.92780  0.11460  Biso   1.000  C
  H32      1.0000 0.55940  0.92730  0.11300  Biso   1.000  H
  N15      1.0000 0.31430  0.15830  0.20940  Biso   1.000  N
  C47      1.0000 0.25020  0.09950  0.18000  Biso   1.000  C
  H33      1.0000 0.27270  0.06580  0.16020  Biso   1.000  H
  C48      1.0000 0.15330  0.08560  0.17730  Biso   1.000  C
  H34      1.0000 0.10980  0.04380  0.15540  Biso   1.000  H
  C49      1.0000 0.11950  0.13250  0.20620  Biso   1.000  C
  C50      1.0000 0.18580  0.19550  0.23710  Biso   1.000  C
  H35      1.0000 0.16520  0.22990  0.25730  Biso   1.000  H
  C51      1.0000 0.28300  0.20550  0.23690  Biso   1.000  C
  H36      1.0000 0.32910  0.24810  0.25740  Biso   1.000  H
  C52      1.0000 0.89640  0.13680  0.24500  Biso   1.000  C
  N16      1.0000 0.99050  0.15950  0.24110  Biso   1.000  N
  C53      1.0000 0.01230  0.11450  0.20840  Biso   1.000  C
  N17      1.0000 0.95170  0.05570  0.17770  Biso   1.000  N
  C54      1.0000 0.85970  0.04320  0.18480  Biso   1.000  C
  N18      1.0000 0.82720  0.07800  0.21850  Biso   1.000  N
  N19      1.0000 0.51340  0.24390  0.16740  Biso   1.000  N
  C55      1.0000 0.58460  0.23270  0.14530  Biso   1.000  C
  H37      1.0000 0.60880  0.19240  0.15250  Biso   1.000  H
  C56      1.0000 0.62360  0.27760  0.11260  Biso   1.000  C
  H38      1.0000 0.67180  0.26690  0.09620  Biso   1.000  H
  C57      1.0000 0.59150  0.33920  0.10370  Biso   1.000  C
  C58      1.0000 0.51930  0.35050  0.12640  Biso   1.000  C
  H39      1.0000 0.49510  0.39130  0.12030  Biso   1.000  H
  C59      1.0000 0.48190  0.30210  0.15810  Biso   1.000  C
  H40      1.0000 0.43180  0.31050  0.17400  Biso   1.000  H
  N20      1.0000 0.96300  0.38220  0.94840  Biso   1.000  N
  C60      1.0000 0.93870  0.44630  0.94440  Biso   1.000  C
  H41      1.0000 0.97300  0.48320  0.92550  Biso   1.000  H
  C61      1.0000 0.86740  0.46180  0.96590  Biso   1.000  C
  H42      1.0000 0.85200  0.50780  0.96150  Biso   1.000  H
  C62      1.0000 0.81800  0.41040  0.99390  Biso   1.000  C
  C63      1.0000 0.84440  0.34410  0.00000  Biso   1.000  C
  H43      1.0000 0.81390  0.30800  0.02000  Biso   1.000  H
  C64      1.0000 0.91610  0.33310  0.97600  Biso   1.000  C
  H44      1.0000 0.93310  0.28750  0.97950  Biso   1.000  H
  N21      1.0000 0.57650  0.70570  0.02610  Biso   1.000  N
  C65      1.0000 0.56180  0.66840  0.06170  Biso   1.000  C
  H45      1.0000 0.53500  0.68910  0.08620  Biso   1.000  H
  C66      1.0000 0.58380  0.59990  0.06490  Biso   1.000  C
  H46      1.0000 0.57550  0.57550  0.09160  Biso   1.000  H
  C67      1.0000 0.61770  0.56860  0.02880  Biso   1.000  C
  C68      1.0000 0.63420  0.60770  0.99310  Biso   1.000  C
  H47      1.0000 0.66130  0.58850  0.96820  Biso   1.000  H
  C69      1.0000 0.61150  0.67620  0.99250  Biso   1.000  C
  H48      1.0000 0.62200  0.70270  0.96660  Biso   1.000  H
  C70      1.0000 0.63410  0.39050  0.06980  Biso   1.000  C
  N22      1.0000 0.70120  0.37360  0.04730  Biso   1.000  N
  C71      1.0000 0.73750  0.42290  0.01750  Biso   1.000  C
  N23      1.0000 0.71300  0.48590  0.00940  Biso   1.000  N
  C72      1.0000 0.64540  0.49690  0.03460  Biso   1.000  C
  N24      1.0000 0.60370  0.45150  0.06500  Biso   1.000  N
  I1       1.0000 0.12500  0.27530  0.94880  Biso   1.000  I
  I2       1.0000 0.13800  0.47330  0.86660  Biso   1.000  I
  I3       1.0000 0.74070  0.81890  0.49047  Biso   1.000  I
  I4       1.0000 0.83810  0.69880  0.60069  Biso   1.000  I
  Zn5      1.0000 0.17700  0.15980  0.74301  Biso   1.000  Zn
  I5       1.0000 0.21227  0.26611  0.81200  Biso   1.000  I
  I6       1.0000 0.02142  0.04238  0.72207  Biso   1.000  I
  I7       1.0000 0.78830  0.46434  0.35861  Biso   1.000  I
  I8       1.0000 0.64090  0.26090  0.43751  Biso   1.000  I
  Zn6      1.0000 0.56450  0.82020  0.01910  Biso   1.000  Zn
  I9       1.0000 0.39590  0.80180  0.03700  Biso   1.000  I
  I10      1.0000 0.65070  0.88470  0.95210  Biso   1.000  I
  I11      1.0000 0.52980  0.26500  0.29434  Biso   1.000  I
  I12      1.0000 0.47800  0.04440  0.19110  Biso   1.000  I
  I13      1.0000 0.12340  0.25430  0.95200  Biso   1.000  I
  I14      1.0000 0.14080  0.45890  0.86950  Biso   1.000  I
  I15      1.0000 0.74240  0.81210  0.49052  Biso   1.000  I
  I16      1.0000 0.84050  0.70290  0.60215  Biso   1.000  I
  Zn7      1.0000 0.16870  0.14210  0.73420  Biso   1.000  Zn
  I17      1.0000 0.18360  0.23000  0.81040  Biso   1.000  I
  I18      1.0000 0.01930  0.01300  0.70890  Biso   1.000  I
  I19      1.0000 0.80800  0.46870  0.35490  Biso   1.000  I
  I20      1.0000 0.64890  0.27530  0.43650  Biso   1.000  I
  Zn8      1.0000 0.54190  0.81180  0.02900  Biso   1.000  Zn
  I21      1.0000 0.38370  0.77880  0.06690  Biso   1.000  I
  I22      1.0000 0.58910  0.87680  0.96131  Biso   1.000  I
  I23      1.0000 0.52890  0.24190  0.29080  Biso   1.000  I
  I24      1.0000 0.47390  0.03050  0.18380  Biso   1.000  I
  Zn9      1.0000 0.52740  0.79520  0.04820  Biso   1.000  Zn
  I25      1.0000 0.37800  0.75120  0.09670  Biso   1.000  I
  I26      1.0000 0.52690  0.85880  0.97890  Biso   1.000  I
  Zn10     1.0000 0.94698  0.65374  0.09346  Biso   1.000  Zn
  Zn11     1.0000 0.27905  0.24665  0.43776  Biso   1.000  Zn
  Zn12     1.0000 0.21749  0.65138  0.60046  Biso   1.000  Zn
  Zn13     1.0000 0.53980  0.82614  0.78383  Biso   1.000  Zn
  N25      1.0000 0.05620  0.73190  0.14130  Biso   1.000  N
  C73      1.0000 0.12950  0.70880  0.15480  Biso   1.000  C
  H49      1.0000 0.12930  0.65760  0.14200  Biso   1.000  H
  C74      1.0000 0.20430  0.75670  0.18620  Biso   1.000  C
  H50      1.0000 0.25620  0.73960  0.19420  Biso   1.000  H
  C75      1.0000 0.20360  0.83060  0.20630  Biso   1.000  C
  C76      1.0000 0.12840  0.85390  0.19280  Biso   1.000  C
  H51      1.0000 0.12550  0.90390  0.20570  Biso   1.000  H
  C77      1.0000 0.05650  0.80260  0.15970  Biso   1.000  C
  H52      1.0000 0.00530  0.81940  0.14990  Biso   1.000  H
  N26      1.0000 0.30410  0.16640  0.38910  Biso   1.000  N
  C78      1.0000 0.24280  0.13170  0.35130  Biso   1.000  C
  H53      1.0000 0.18930  0.14810  0.34530  Biso   1.000  H
  C79      1.0000 0.25570  0.07260  0.32090  Biso   1.000  C
  H54      1.0000 0.21020  0.04780  0.29490  Biso   1.000  H
  C80      1.0000 0.33360  0.05010  0.32810  Biso   1.000  C
  C81      1.0000 0.39660  0.08640  0.36700  Biso   1.000  C
  H55      1.0000 0.45080  0.07120  0.37340  Biso   1.000  H
  C82      1.0000 0.38080  0.14430  0.39640  Biso   1.000  C
  H56      1.0000 0.42540  0.16940  0.42270  Biso   1.000  H
  N27      1.0000 0.70420  0.87640  0.26160  Biso   1.000  N
  C83      1.0000 0.62660  0.83460  0.23310  Biso   1.000  C
  H57      1.0000 0.63080  0.79570  0.20960  Biso   1.000  H
  C84      1.0000 0.53910  0.84580  0.23660  Biso   1.000  C
  H58      1.0000 0.48510  0.81580  0.21500  Biso   1.000  H
  C85      1.0000 0.52990  0.89880  0.27030  Biso   1.000  C
  C86      1.0000 0.60890  0.94290  0.29960  Biso   1.000  C
  H59      1.0000 0.60630  0.98180  0.32350  Biso   1.000  H
  C87      1.0000 0.69650  0.92840  0.29300  Biso   1.000  C
  H60      1.0000 0.75250  0.95920  0.31320  Biso   1.000  H
  C88      1.0000 0.28370  0.88140  0.24080  Biso   1.000  C
  N28      1.0000 0.27450  0.94520  0.26440  Biso   1.000  N
  C89      1.0000 0.34740  0.98570  0.29700  Biso   1.000  C
  N29      1.0000 0.43030  0.97140  0.30200  Biso   1.000  N
  C90      1.0000 0.43600  0.91210  0.27290  Biso   1.000  C
  N30      1.0000 0.36310  0.86200  0.24270  Biso   1.000  N
  N31      1.0000 0.41180  0.34020  0.44610  Biso   1.000  N
  C91      1.0000 0.47040  0.36630  0.48430  Biso   1.000  C
  H61      1.0000 0.45210  0.34100  0.51030  Biso   1.000  H
  C92      1.0000 0.55880  0.43060  0.48740  Biso   1.000  C
  H62      1.0000 0.60060  0.44810  0.51500  Biso   1.000  H
  C93      1.0000 0.58410  0.46780  0.45020  Biso   1.000  C
  C94      1.0000 0.52570  0.43970  0.40960  Biso   1.000  C
  H63      1.0000 0.54300  0.46330  0.38310  Biso   1.000  H
  C95      1.0000 0.43910  0.37430  0.40950  Biso   1.000  C
  H64      1.0000 0.39800  0.35340  0.38190  Biso   1.000  H
  N32      1.0000 0.09380  0.61890  0.55500  Biso   1.000  N
  C96      1.0000 0.01040  0.55980  0.55910  Biso   1.000  C
  H65      1.0000 0.00980  0.52450  0.58050  Biso   1.000  H
  C97      1.0000 0.92560  0.54920  0.53290  Biso   1.000  C
  H66      1.0000 0.86780  0.50640  0.53590  Biso   1.000  H
  C98      1.0000 0.92570  0.60080  0.50270  Biso   1.000  C
  C99      1.0000 0.01140  0.65960  0.49740  Biso   1.000  C
  H67      1.0000 0.01380  0.69490  0.47580  Biso   1.000  H
  C100     1.0000 0.09440  0.66660  0.52430  Biso   1.000  C
  H68      1.0000 0.15380  0.70700  0.52050  Biso   1.000  H
  N33      1.0000 0.80460  0.78150  0.31350  Biso   1.000  N
  C101     1.0000 0.72750  0.71480  0.31090  Biso   1.000  C
  H69      1.0000 0.68270  0.69900  0.28440  Biso   1.000  H
  C102     1.0000 0.70950  0.66740  0.34500  Biso   1.000  C
  H70      1.0000 0.65250  0.62100  0.34290  Biso   1.000  H
  C103     1.0000 0.77930  0.69100  0.38300  Biso   1.000  C
  C104     1.0000 0.85640  0.76020  0.38550  Biso   1.000  C
  H71      1.0000 0.90260  0.77810  0.41150  Biso   1.000  H
  C105     1.0000 0.86780  0.80430  0.35060  Biso   1.000  C
  H72      1.0000 0.92230  0.85270  0.35280  Biso   1.000  H
  C106     1.0000 0.67790  0.53540  0.45140  Biso   1.000  C
  N34      1.0000 0.75220  0.53760  0.47960  Biso   1.000  N
  C107     1.0000 0.83600  0.59600  0.47450  Biso   1.000  C
  N35      1.0000 0.84710  0.64680  0.44530  Biso   1.000  N
  C108     1.0000 0.76770  0.63880  0.41940  Biso   1.000  C
  N36      1.0000 0.67990  0.58420  0.42140  Biso   1.000  N
  N37      1.0000 0.18150  0.72830  0.64720  Biso   1.000  N
  C109     1.0000 0.24740  0.79270  0.67120  Biso   1.000  C
  H73      1.0000 0.31190  0.80910  0.66360  Biso   1.000  H
  C110     1.0000 0.22490  0.83800  0.70780  Biso   1.000  C
  H74      1.0000 0.27420  0.88290  0.72540  Biso   1.000  H
  C111     1.0000 0.13140  0.81650  0.71780  Biso   1.000  C
  C112     1.0000 0.06410  0.74980  0.69170  Biso   1.000  C
  H75      1.0000 0.99840  0.73350  0.69760  Biso   1.000  H
  C113     1.0000 0.09010  0.70640  0.65730  Biso   1.000  C
  H76      1.0000 0.04240  0.65980  0.64030  Biso   1.000  H
  N38      1.0000 0.35520  0.12390  0.91590  Biso   1.000  N
  C114     1.0000 0.26390  0.12360  0.91270  Biso   1.000  C
  H77      1.0000 0.24830  0.16010  0.93370  Biso   1.000  H
  C115     1.0000 0.19230  0.07230  0.88010  Biso   1.000  C
  H78      1.0000 0.12880  0.07400  0.87850  Biso   1.000  H
  C116     1.0000 0.21470  0.01790  0.84960  Biso   1.000  C
  C117     1.0000 0.30870  0.01870  0.85210  Biso   1.000  C
  H79      1.0000 0.32620  0.98300  0.83130  Biso   1.000  H
  C118     1.0000 0.37620  0.07220  0.88540  Biso   1.000  C
  H80      1.0000 0.44060  0.07270  0.88700  Biso   1.000  H
  N39      1.0000 0.68570  0.84170  0.79060  Biso   1.000  N
  C119     1.0000 0.74980  0.90050  0.82000  Biso   1.000  C
  H81      1.0000 0.72730  0.93420  0.83980  Biso   1.000  H
  C120     1.0000 0.84670  0.91440  0.82270  Biso   1.000  C
  H82      1.0000 0.89020  0.95620  0.84460  Biso   1.000  H
  C121     1.0000 0.88050  0.86750  0.79380  Biso   1.000  C
  C122     1.0000 0.81420  0.80450  0.76290  Biso   1.000  C
  H83      1.0000 0.83480  0.77010  0.74270  Biso   1.000  H
  C123     1.0000 0.71700  0.79450  0.76310  Biso   1.000  C
  H84      1.0000 0.67090  0.75190  0.74260  Biso   1.000  H
  C124     1.0000 0.10360  0.86320  0.75500  Biso   1.000  C
  N40      1.0000 0.00950  0.84050  0.75890  Biso   1.000  N
  C125     1.0000 0.98770  0.88550  0.79160  Biso   1.000  C
  N41      1.0000 0.04830  0.94430  0.82230  Biso   1.000  N
  C126     1.0000 0.14030  0.95680  0.81520  Biso   1.000  C
  N42      1.0000 0.17280  0.92200  0.78150  Biso   1.000  N
  N43      1.0000 0.48660  0.75610  0.83260  Biso   1.000  N
  C127     1.0000 0.41540  0.76730  0.85470  Biso   1.000  C
  H85      1.0000 0.39120  0.80760  0.84750  Biso   1.000  H
  C128     1.0000 0.37640  0.72240  0.88740  Biso   1.000  C
  H86      1.0000 0.32820  0.73310  0.90380  Biso   1.000  H
  C129     1.0000 0.40850  0.66080  0.89630  Biso   1.000  C
  C130     1.0000 0.48070  0.64950  0.87360  Biso   1.000  C
  H87      1.0000 0.50490  0.60870  0.87970  Biso   1.000  H
  C131     1.0000 0.51810  0.69790  0.84190  Biso   1.000  C
  H88      1.0000 0.56820  0.68950  0.82600  Biso   1.000  H
  N44      1.0000 0.03700  0.61780  0.05160  Biso   1.000  N
  C132     1.0000 0.06130  0.55370  0.05560  Biso   1.000  C
  H89      1.0000 0.02700  0.51680  0.07450  Biso   1.000  H
  C133     1.0000 0.13260  0.53820  0.03410  Biso   1.000  C
  H90      1.0000 0.14800  0.49220  0.03850  Biso   1.000  H
  C134     1.0000 0.18200  0.58960  0.00610  Biso   1.000  C
  C135     1.0000 0.15560  0.65590  0.00000  Biso   1.000  C
  H91      1.0000 0.18610  0.69200  0.98000  Biso   1.000  H
  C136     1.0000 0.08390  0.66690  0.02400  Biso   1.000  C
  H92      1.0000 0.06690  0.71250  0.02050  Biso   1.000  H
  N45      1.0000 0.42350  0.29430  0.97390  Biso   1.000  N
  C137     1.0000 0.43820  0.33160  0.93830  Biso   1.000  C
  H93      1.0000 0.46500  0.31090  0.91380  Biso   1.000  H
  C138     1.0000 0.41620  0.40010  0.93510  Biso   1.000  C
  H94      1.0000 0.42450  0.42450  0.90840  Biso   1.000  H
  C139     1.0000 0.38230  0.43140  0.97120  Biso   1.000  C
  C140     1.0000 0.36580  0.39230  0.00690  Biso   1.000  C
  H95      1.0000 0.33870  0.41150  0.03180  Biso   1.000  H
  C141     1.0000 0.38850  0.32380  0.00750  Biso   1.000  C
  H96      1.0000 0.37800  0.29730  0.03340  Biso   1.000  H
  C142     1.0000 0.36590  0.60950  0.93020  Biso   1.000  C
  N46      1.0000 0.29880  0.62640  0.95270  Biso   1.000  N
  C143     1.0000 0.26250  0.57710  0.98250  Biso   1.000  C
  N47      1.0000 0.28700  0.51410  0.99060  Biso   1.000  N
  C144     1.0000 0.35460  0.50310  0.96540  Biso   1.000  C
  N48      1.0000 0.39630  0.54850  0.93500  Biso   1.000  N
  I27      1.0000 0.87500  0.72470  0.05120  Biso   1.000  I
  I28      1.0000 0.86200  0.52670  0.13340  Biso   1.000  I
  I29      1.0000 0.25930  0.18110  0.50953  Biso   1.000  I
  I30      1.0000 0.16190  0.30120  0.39931  Biso   1.000  I
  Zn14     1.0000 0.82300  0.84020  0.25699  Biso   1.000  Zn
  I31      1.0000 0.78773  0.73389  0.18800  Biso   1.000  I
  I32      1.0000 0.97858  0.95762  0.27793  Biso   1.000  I
  I33      1.0000 0.21170  0.53566  0.64139  Biso   1.000  I
  I34      1.0000 0.35910  0.73910  0.56249  Biso   1.000  I
  Zn15     1.0000 0.43550  0.17980  0.98090  Biso   1.000  Zn
  I35      1.0000 0.60410  0.19820  0.96300  Biso   1.000  I
  I36      1.0000 0.34930  0.11530  0.04790  Biso   1.000  I
  I37      1.0000 0.47020  0.73500  0.70566  Biso   1.000  I
  I38      1.0000 0.52200  0.95560  0.80890  Biso   1.000  I
  I39      1.0000 0.87660  0.74570  0.04800  Biso   1.000  I
  I40      1.0000 0.85920  0.54110  0.13050  Biso   1.000  I
  I41      1.0000 0.25760  0.18790  0.50948  Biso   1.000  I
  I42      1.0000 0.15950  0.29710  0.39785  Biso   1.000  I
  Zn16     1.0000 0.83130  0.85790  0.26580  Biso   1.000  Zn
  I43      1.0000 0.81640  0.77000  0.18960  Biso   1.000  I
  I44      1.0000 0.98070  0.98700  0.29110  Biso   1.000  I
  I45      1.0000 0.19200  0.53130  0.64510  Biso   1.000  I
  I46      1.0000 0.35110  0.72470  0.56350  Biso   1.000  I
  Zn17     1.0000 0.45810  0.18820  0.97100  Biso   1.000  Zn
  I47      1.0000 0.61630  0.22120  0.93310  Biso   1.000  I
  I48      1.0000 0.41090  0.12320  0.03869  Biso   1.000  I
  I49      1.0000 0.47110  0.75810  0.70920  Biso   1.000  I
  I50      1.0000 0.52610  0.96950  0.81620  Biso   1.000  I
  Zn18     1.0000 0.47260  0.20480  0.95180  Biso   1.000  Zn
  I51      1.0000 0.62200  0.24880  0.90330  Biso   1.000  I
  I52      1.0000 0.47310  0.14120  0.02110  Biso   1.000  I
  C145     1.0000 0.39400  0.51800  0.29030  Biso   1.000  C
  C146     1.0000 0.43800  0.59900  0.32150  Biso   1.000  C
  H97      1.0000 0.50650  0.63710  0.32470  Biso   1.000  H
  C147     1.0000 0.37900  0.54700  0.36150  Biso   1.000  C
  H98      1.0000 0.40930  0.54990  0.39270  Biso   1.000  H
  C148     1.0000 0.34800  0.47200  0.32410  Biso   1.000  C
  H99      1.0000 0.34900  0.41760  0.32860  Biso   1.000  H
  C149     1.0000 0.25500  0.49000  0.30850  Biso   1.000  C
  H100     1.0000 0.18680  0.45030  0.30390  Biso   1.000  H
  C150     1.0000 0.30400  0.54000  0.27430  Biso   1.000  C
  H101     1.0000 0.27790  0.53760  0.24230  Biso   1.000  H
  C151     1.0000 0.34800  0.61600  0.30960  Biso   1.000  C
  H102     1.0000 0.34940  0.67040  0.30400  Biso   1.000  H
  C152     1.0000 0.30100  0.57400  0.35150  Biso   1.000  C
  C153     1.0000 0.43600  0.47700  0.26710  Biso   1.000  C
  O1       1.0000 0.54980  0.52360  0.26330  Biso   1.000  O
  O2       1.0000 0.41620  0.43380  0.22210  Biso   1.000  O
  C154     1.0000 0.61500  0.49800  0.23710  Biso   1.000  C
  H103     1.0000 0.67910  0.54000  0.24220  Biso   1.000  H
  H104     1.0000 0.61850  0.44830  0.24630  Biso   1.000  H
  H105     1.0000 0.59080  0.48810  0.20480  Biso   1.000  H
  C155     1.0000 0.28400  0.58800  0.39820  Biso   1.000  C
  O3       1.0000 0.27900  0.67600  0.39210  Biso   1.000  O
  O4       1.0000 0.18000  0.56200  0.39320  Biso   1.000  O
  C156     1.0000 0.23300  0.71100  0.42550  Biso   1.000  C
  H106     1.0000 0.23440  0.76350  0.41840  Biso   1.000  H
  H107     1.0000 0.16610  0.67530  0.42530  Biso   1.000  H
  H108     1.0000 0.26800  0.71840  0.45550  Biso   1.000  H
  C157     1.0000 0.40900  0.00500  0.53900  Biso   1.000  C
  H109     1.0000 0.33880  0.97300  0.53210  Biso   1.000  H
  H110     1.0000 0.44280  0.96860  0.54620  Biso   1.000  H
  C158     1.0000 0.44800  0.04500  0.49680  Biso   1.000  C
  H111     1.0000 0.41500  0.00960  0.46800  Biso   1.000  H
  H112     1.0000 0.44080  0.09770  0.49710  Biso   1.000  H
  C159     1.0000 0.55600  0.05300  0.50440  Biso   1.000  C
  H113     1.0000 0.56720  0.00650  0.48760  Biso   1.000  H
  H114     1.0000 0.59910  0.10340  0.49540  Biso   1.000  H
  C160     1.0000 0.56900  0.05400  0.55620  Biso   1.000  C
  H115     1.0000 0.63770  0.06570  0.56640  Biso   1.000  H
  H116     1.0000 0.53060  0.00050  0.56380  Biso   1.000  H
  C161     1.0000 0.53400  0.12000  0.58100  Biso   1.000  C
  H117     1.0000 0.56570  0.13870  0.61240  Biso   1.000  H
  H118     1.0000 0.54630  0.16650  0.56440  Biso   1.000  H
  C162     1.0000 0.42500  0.07200  0.57970  Biso   1.000  C
  H119     1.0000 0.38650  0.10600  0.57440  Biso   1.000  H
  H120     1.0000 0.41000  0.04940  0.60810  Biso   1.000  H
  C163     1.0000 0.40200  0.67900  0.41700  Biso   1.000  C
  H121     1.0000 0.45080  0.67780  0.44040  Biso   1.000  H
  H122     1.0000 0.33850  0.63850  0.42060  Biso   1.000  H
  C164     1.0000 0.43100  0.66400  0.36900  Biso   1.000  C
  H123     1.0000 0.37490  0.62750  0.34800  Biso   1.000  H
  H124     1.0000 0.48290  0.64160  0.36960  Biso   1.000  H
  C165     1.0000 0.46700  0.75100  0.35550  Biso   1.000  C
  H125     1.0000 0.49210  0.74930  0.32550  Biso   1.000  H
  H126     1.0000 0.41360  0.77140  0.35370  Biso   1.000  H
  C166     1.0000 0.54800  0.80500  0.39200  Biso   1.000  C
  H127     1.0000 0.59030  0.77560  0.40120  Biso   1.000  H
  H128     1.0000 0.58810  0.85350  0.38020  Biso   1.000  H
  C167     1.0000 0.50000  0.82800  0.43210  Biso   1.000  C
  H129     1.0000 0.50070  0.88340  0.43340  Biso   1.000  H
  H130     1.0000 0.53110  0.82210  0.46110  Biso   1.000  H
  C168     1.0000 0.39500  0.76500  0.42100  Biso   1.000  C
  H131     1.0000 0.36380  0.77250  0.39280  Biso   1.000  H
  H132     1.0000 0.35540  0.77220  0.44610  Biso   1.000  H
  C169     1.0000 0.52600  0.50600  0.28500  Biso   1.000  C
  H133     1.0000 0.57030  0.55300  0.30650  Biso   1.000  H
  H134     1.0000 0.48260  0.46880  0.30340  Biso   1.000  H
  C170     1.0000 0.58600  0.46300  0.26000  Biso   1.000  C
  H135     1.0000 0.54160  0.41380  0.24000  Biso   1.000  H
  H136     1.0000 0.62510  0.44610  0.28170  Biso   1.000  H
  C171     1.0000 0.65300  0.51900  0.23000  Biso   1.000  C
  H137     1.0000 0.70170  0.56510  0.25030  Biso   1.000  H
  H138     1.0000 0.68830  0.48890  0.21300  Biso   1.000  H
  C172     1.0000 0.59400  0.54800  0.19800  Biso   1.000  C
  H139     1.0000 0.54940  0.50220  0.17630  Biso   1.000  H
  H140     1.0000 0.63840  0.58570  0.17990  Biso   1.000  H
  C173     1.0000 0.53600  0.59200  0.22400  Biso   1.000  C
  H141     1.0000 0.58090  0.63930  0.24530  Biso   1.000  H
  H142     1.0000 0.49920  0.61220  0.20280  Biso   1.000  H
  C174     1.0000 0.46600  0.53400  0.25100  Biso   1.000  C
  H143     1.0000 0.42190  0.48650  0.23010  Biso   1.000  H
  H144     1.0000 0.42720  0.56050  0.26740  Biso   1.000  H
  C175     1.0000 0.60600  0.48200  0.70970  Biso   1.000  C
  C176     1.0000 0.56200  0.40100  0.67850  Biso   1.000  C
  H145     1.0000 0.49350  0.36290  0.67530  Biso   1.000  H
  C177     1.0000 0.62100  0.45300  0.63850  Biso   1.000  C
  H146     1.0000 0.59070  0.45010  0.60730  Biso   1.000  H
  C178     1.0000 0.65200  0.52800  0.67590  Biso   1.000  C
  H147     1.0000 0.65100  0.58240  0.67140  Biso   1.000  H
  C179     1.0000 0.74500  0.51000  0.69150  Biso   1.000  C
  H148     1.0000 0.81320  0.54970  0.69610  Biso   1.000  H
  C180     1.0000 0.69600  0.46000  0.72570  Biso   1.000  C
  H149     1.0000 0.72210  0.46240  0.75770  Biso   1.000  H
  C181     1.0000 0.65200  0.38400  0.69040  Biso   1.000  C
  H150     1.0000 0.65060  0.32960  0.69600  Biso   1.000  H
  C182     1.0000 0.69900  0.42600  0.64850  Biso   1.000  C
  C183     1.0000 0.56400  0.52300  0.73290  Biso   1.000  C
  O5       1.0000 0.45020  0.47640  0.73670  Biso   1.000  O
  O6       1.0000 0.58380  0.56620  0.77790  Biso   1.000  O
  C184     1.0000 0.38500  0.50200  0.76290  Biso   1.000  C
  H151     1.0000 0.32090  0.46000  0.75780  Biso   1.000  H
  H152     1.0000 0.38150  0.55170  0.75370  Biso   1.000  H
  H153     1.0000 0.40920  0.51190  0.79520  Biso   1.000  H
  C185     1.0000 0.71600  0.41200  0.60180  Biso   1.000  C
  O7       1.0000 0.72100  0.32400  0.60790  Biso   1.000  O
  O8       1.0000 0.82000  0.43800  0.60680  Biso   1.000  O
  C186     1.0000 0.76700  0.28900  0.57450  Biso   1.000  C
  H154     1.0000 0.76560  0.23650  0.58160  Biso   1.000  H
  H155     1.0000 0.83390  0.32470  0.57470  Biso   1.000  H
  H156     1.0000 0.73200  0.28160  0.54450  Biso   1.000  H
  C187     1.0000 0.59100  0.99500  0.46100  Biso   1.000  C
  H157     1.0000 0.66120  0.02700  0.46790  Biso   1.000  H
  H158     1.0000 0.55720  0.03140  0.45380  Biso   1.000  H
  C188     1.0000 0.55200  0.95500  0.50320  Biso   1.000  C
  H159     1.0000 0.58500  0.99040  0.53200  Biso   1.000  H
  H160     1.0000 0.55920  0.90230  0.50290  Biso   1.000  H
  C189     1.0000 0.44400  0.94700  0.49560  Biso   1.000  C
  H161     1.0000 0.43280  0.99350  0.51240  Biso   1.000  H
  H162     1.0000 0.40090  0.89660  0.50460  Biso   1.000  H
  C190     1.0000 0.43100  0.94600  0.44380  Biso   1.000  C
  H163     1.0000 0.36230  0.93430  0.43360  Biso   1.000  H
  H164     1.0000 0.46940  0.99950  0.43620  Biso   1.000  H
  C191     1.0000 0.46600  0.88000  0.41900  Biso   1.000  C
  H165     1.0000 0.43430  0.86130  0.38760  Biso   1.000  H
  H166     1.0000 0.45370  0.83350  0.43560  Biso   1.000  H
  C192     1.0000 0.57500  0.92800  0.42030  Biso   1.000  C
  H167     1.0000 0.61350  0.89400  0.42560  Biso   1.000  H
  H168     1.0000 0.59000  0.95060  0.39190  Biso   1.000  H
  C193     1.0000 0.59800  0.32100  0.58300  Biso   1.000  C
  H169     1.0000 0.54920  0.32220  0.55960  Biso   1.000  H
  H170     1.0000 0.66150  0.36150  0.57940  Biso   1.000  H
  C194     1.0000 0.56900  0.33600  0.63100  Biso   1.000  C
  H171     1.0000 0.62510  0.37250  0.65200  Biso   1.000  H
  H172     1.0000 0.51710  0.35840  0.63040  Biso   1.000  H
  C195     1.0000 0.53300  0.24900  0.64450  Biso   1.000  C
  H173     1.0000 0.50790  0.25070  0.67450  Biso   1.000  H
  H174     1.0000 0.58640  0.22860  0.64630  Biso   1.000  H
  C196     1.0000 0.45200  0.19500  0.60800  Biso   1.000  C
  H175     1.0000 0.40970  0.22440  0.59880  Biso   1.000  H
  H176     1.0000 0.41190  0.14650  0.61980  Biso   1.000  H
  C197     1.0000 0.50000  0.17200  0.56790  Biso   1.000  C
  H177     1.0000 0.49930  0.11660  0.56660  Biso   1.000  H
  H178     1.0000 0.46890  0.17790  0.53890  Biso   1.000  H
  C198     1.0000 0.60500  0.23500  0.57900  Biso   1.000  C
  H179     1.0000 0.63620  0.22750  0.60720  Biso   1.000  H
  H180     1.0000 0.64460  0.22780  0.55390  Biso   1.000  H
  C199     1.0000 0.47400  0.49400  0.71500  Biso   1.000  C
  H181     1.0000 0.42970  0.44700  0.69350  Biso   1.000  H
  H182     1.0000 0.51740  0.53120  0.69660  Biso   1.000  H
  C200     1.0000 0.41400  0.53700  0.74000  Biso   1.000  C
  H183     1.0000 0.45840  0.58620  0.76000  Biso   1.000  H
  H184     1.0000 0.37490  0.55390  0.71830  Biso   1.000  H
  C201     1.0000 0.34700  0.48100  0.77000  Biso   1.000  C
  H185     1.0000 0.29830  0.43490  0.74970  Biso   1.000  H
  H186     1.0000 0.31170  0.51110  0.78700  Biso   1.000  H
  C202     1.0000 0.40600  0.45200  0.80200  Biso   1.000  C
  H187     1.0000 0.45060  0.49780  0.82370  Biso   1.000  H
  H188     1.0000 0.36160  0.41430  0.82010  Biso   1.000  H
  C203     1.0000 0.46400  0.40800  0.77600  Biso   1.000  C
  H189     1.0000 0.41910  0.36070  0.75470  Biso   1.000  H
  H190     1.0000 0.50080  0.38780  0.79720  Biso   1.000  H
  C204     1.0000 0.53400  0.46600  0.74900  Biso   1.000  C
  H191     1.0000 0.57810  0.51350  0.76990  Biso   1.000  H
  H192     1.0000 0.57280  0.43950  0.73260  Biso   1.000  H
