data_image0
_cell_length_a       14.8303
_cell_length_b       17.913
_cell_length_c       29.8943
_cell_angle_alpha    96.803
_cell_angle_beta     93.488
_cell_angle_gamma    110.229

_symmetry_space_group_name_H-M    "P 1"
_symmetry_int_tables_number       1

loop_
  _symmetry_equiv_pos_as_xyz
  'x, y, z'

loop_
  _atom_site_label
  _atom_site_occupancy
  _atom_site_fract_x
  _atom_site_fract_y
  _atom_site_fract_z
  _atom_site_thermal_displace_type
  _atom_site_B_iso_or_equiv
  _atom_site_type_symbol
  Zn1      1.0000 0.05321  0.34645  0.90652  Biso   1.000  Zn
  Zn2      1.0000 0.72123  0.75351  0.56217  Biso   1.000  Zn
  Zn3      1.0000 0.78247  0.34833  0.39967  Biso   1.000  Zn
  Zn4      1.0000 0.46019  0.17367  0.21633  Biso   1.000  Zn
  N1       1.0000 0.94430  0.26770  0.85920  Biso   1.000  N
  C1       1.0000 0.87160  0.29130  0.84550  Biso   1.000  C
  H1       1.0000 0.87180  0.34260  0.85810  Biso   1.000  H
  C2       1.0000 0.79730  0.24320  0.81370  Biso   1.000  C
  H2       1.0000 0.74570  0.26060  0.80550  Biso   1.000  H
  C3       1.0000 0.79700  0.16980  0.79360  Biso   1.000  C
  C4       1.0000 0.87190  0.14690  0.80700  Biso   1.000  C
  H3       1.0000 0.87460  0.09690  0.79380  Biso   1.000  H
  C5       1.0000 0.94480  0.19770  0.84050  Biso   1.000  C
  H4       1.0000 0.99620  0.18090  0.84990  Biso   1.000  H
  N2       1.0000 0.69720  0.83340  0.61150  Biso   1.000  N
  C6       1.0000 0.75710  0.86830  0.64870  Biso   1.000  C
  H5       1.0000 0.81120  0.85270  0.65450  Biso   1.000  H
  C7       1.0000 0.74400  0.92630  0.67930  Biso   1.000  C
  H6       1.0000 0.78850  0.95010  0.70570  Biso   1.000  H
  C8       1.0000 0.66560  0.94970  0.67140  Biso   1.000  C
  C9       1.0000 0.60250  0.91330  0.63290  Biso   1.000  C
  H7       1.0000 0.54740  0.92750  0.62670  Biso   1.000  H
  C10      1.0000 0.62030  0.85580  0.60340  Biso   1.000  C
  H8       1.0000 0.57730  0.83140  0.57660  Biso   1.000  H
  N3       1.0000 0.29640  0.12400  0.73800  Biso   1.000  N
  C11      1.0000 0.37190  0.16420  0.76710  Biso   1.000  C
  H9       1.0000 0.36580  0.20130  0.79110  Biso   1.000  H
  C12      1.0000 0.46130  0.15510  0.76460  Biso   1.000  C
  H10      1.0000 0.51490  0.18560  0.78620  Biso   1.000  H
  C13      1.0000 0.47020  0.10060  0.72970  Biso   1.000  C
  C14      1.0000 0.39140  0.05680  0.70120  Biso   1.000  C
  H11      1.0000 0.39430  0.01740  0.67760  Biso   1.000  H
  C15      1.0000 0.30380  0.07030  0.70670  Biso   1.000  C
  H12      1.0000 0.24800  0.03860  0.68660  Biso   1.000  H
  C16      1.0000 0.71630  0.11860  0.75960  Biso   1.000  C
  N4       1.0000 0.72560  0.05500  0.73570  Biso   1.000  N
  C17      1.0000 0.65330  0.01450  0.70340  Biso   1.000  C
  N5       1.0000 0.56980  0.02880  0.69780  Biso   1.000  N
  C18      1.0000 0.56420  0.08830  0.72670  Biso   1.000  C
  N6       1.0000 0.63680  0.13860  0.75690  Biso   1.000  N
  N7       1.0000 0.58750  0.66060  0.55330  Biso   1.000  N
  C19      1.0000 0.52920  0.63440  0.51600  Biso   1.000  C
  H13      1.0000 0.54680  0.66000  0.49010  Biso   1.000  H
  C20      1.0000 0.44210  0.57030  0.51270  Biso   1.000  C
  H14      1.0000 0.40050  0.55300  0.48510  Biso   1.000  H
  C21      1.0000 0.41670  0.53230  0.54950  Biso   1.000  C
  C22      1.0000 0.47440  0.56050  0.58930  Biso   1.000  C
  H15      1.0000 0.45750  0.53690  0.61590  Biso   1.000  H
  C23      1.0000 0.56090  0.62680  0.58950  Biso   1.000  C
  H16      1.0000 0.60200  0.64790  0.61720  Biso   1.000  H
  N8       1.0000 0.90690  0.38050  0.44480  Biso   1.000  N
  C24      1.0000 0.98940  0.44050  0.44120  Biso   1.000  C
  H17      1.0000 0.98940  0.47670  0.42040  Biso   1.000  H
  C25      1.0000 0.07500  0.45070  0.46710  Biso   1.000  C
  H18      1.0000 0.13300  0.49320  0.46390  Biso   1.000  H
  C26      1.0000 0.07500  0.39930  0.49720  Biso   1.000  C
  C27      1.0000 0.98830  0.34120  0.50230  Biso   1.000  C
  H19      1.0000 0.98550  0.30640  0.52420  Biso   1.000  H
  C28      1.0000 0.90580  0.33350  0.47570  Biso   1.000  C
  H20      1.0000 0.84650  0.29320  0.47960  Biso   1.000  H
  N9       1.0000 0.19490  0.21740  0.68660  Biso   1.000  N
  C29      1.0000 0.27170  0.28390  0.68860  Biso   1.000  C
  H21      1.0000 0.31690  0.30000  0.71500  Biso   1.000  H
  C30      1.0000 0.28940  0.33090  0.65440  Biso   1.000  C
  H22      1.0000 0.34620  0.37750  0.65680  Biso   1.000  H
  C31      1.0000 0.22270  0.30860  0.61690  Biso   1.000  C
  C32      1.0000 0.14430  0.23990  0.61440  Biso   1.000  C
  H23      1.0000 0.09800  0.22220  0.58840  Biso   1.000  H
  C33      1.0000 0.13280  0.19650  0.64970  Biso   1.000  C
  H24      1.0000 0.07730  0.14900  0.64760  Biso   1.000  H
  C34      1.0000 0.32390  0.46540  0.54840  Biso   1.000  C
  N10      1.0000 0.24840  0.46300  0.52040  Biso   1.000  N
  C35      1.0000 0.16420  0.40420  0.52560  Biso   1.000  C
  N11      1.0000 0.15210  0.35250  0.55440  Biso   1.000  N
  C36      1.0000 0.23260  0.35990  0.58140  Biso   1.000  C
  N12      1.0000 0.32110  0.41640  0.57820  Biso   1.000  N
  N13      1.0000 0.81680  0.27170  0.35250  Biso   1.000  N
  C37      1.0000 0.75250  0.20750  0.32830  Biso   1.000  C
  H25      1.0000 0.68780  0.19090  0.33570  Biso   1.000  H
  C38      1.0000 0.77470  0.16230  0.29220  Biso   1.000  C
  H26      1.0000 0.72520  0.11790  0.27440  Biso   1.000  H
  C39      1.0000 0.86820  0.18270  0.28260  Biso   1.000  C
  C40      1.0000 0.93660  0.25080  0.30810  Biso   1.000  C
  H27      1.0000 0.00210  0.26810  0.30170  Biso   1.000  H
  C41      1.0000 0.90890  0.29270  0.34220  Biso   1.000  C
  H28      1.0000 0.95660  0.33880  0.35960  Biso   1.000  H
  N14      1.0000 0.64500  0.87630  0.08440  Biso   1.000  N
  C42      1.0000 0.73510  0.87530  0.08750  Biso   1.000  C
  H29      1.0000 0.74980  0.83760  0.06690  Biso   1.000  H
  C43      1.0000 0.80750  0.92740  0.11960  Biso   1.000  C
  H30      1.0000 0.87120  0.92640  0.12050  Biso   1.000  H
  C44      1.0000 0.78540  0.98200  0.15090  Biso   1.000  C
  C45      1.0000 0.69080  0.98030  0.14730  Biso   1.000  C
  H31      1.0000 0.67280  0.01590  0.16790  Biso   1.000  H
  C46      1.0000 0.62360  0.92790  0.11420  Biso   1.000  C
  H32      1.0000 0.55950  0.92810  0.11220  Biso   1.000  H
  N15      1.0000 0.31500  0.15920  0.20960  Biso   1.000  N
  C47      1.0000 0.25070  0.09910  0.17970  Biso   1.000  C
  H33      1.0000 0.27360  0.06560  0.16000  Biso   1.000  H
  C48      1.0000 0.15210  0.08470  0.17710  Biso   1.000  C
  H34      1.0000 0.10810  0.04260  0.15550  Biso   1.000  H
  C49      1.0000 0.11920  0.13310  0.20660  Biso   1.000  C
  C50      1.0000 0.18680  0.19500  0.23710  Biso   1.000  C
  H35      1.0000 0.16630  0.22890  0.25770  Biso   1.000  H
  C51      1.0000 0.28280  0.20620  0.23720  Biso   1.000  C
  H36      1.0000 0.32830  0.24920  0.25770  Biso   1.000  H
  C52      1.0000 0.89550  0.13690  0.24550  Biso   1.000  C
  N16      1.0000 0.99090  0.15970  0.24100  Biso   1.000  N
  C53      1.0000 0.01260  0.11500  0.20860  Biso   1.000  C
  N17      1.0000 0.95180  0.05620  0.17790  Biso   1.000  N
  C54      1.0000 0.86020  0.04180  0.18410  Biso   1.000  C
  N18      1.0000 0.82720  0.07770  0.21850  Biso   1.000  N
  N19      1.0000 0.51360  0.24510  0.16750  Biso   1.000  N
  C55      1.0000 0.58580  0.23220  0.14500  Biso   1.000  C
  H37      1.0000 0.60980  0.19170  0.15210  Biso   1.000  H
  C56      1.0000 0.62360  0.27750  0.11220  Biso   1.000  C
  H38      1.0000 0.67160  0.26700  0.09550  Biso   1.000  H
  C57      1.0000 0.59100  0.33930  0.10340  Biso   1.000  C
  C58      1.0000 0.51720  0.34950  0.12570  Biso   1.000  C
  H39      1.0000 0.49150  0.38920  0.11900  Biso   1.000  H
  C59      1.0000 0.48140  0.30320  0.15700  Biso   1.000  C
  H40      1.0000 0.43100  0.31160  0.17260  Biso   1.000  H
  N20      1.0000 0.96310  0.38150  0.94870  Biso   1.000  N
  C60      1.0000 0.93960  0.44710  0.94390  Biso   1.000  C
  H41      1.0000 0.97380  0.48360  0.92490  Biso   1.000  H
  C61      1.0000 0.86740  0.46240  0.96610  Biso   1.000  C
  H42      1.0000 0.85220  0.50880  0.96210  Biso   1.000  H
  C62      1.0000 0.81800  0.41090  0.99370  Biso   1.000  C
  C63      1.0000 0.84370  0.34400  0.99960  Biso   1.000  C
  H43      1.0000 0.81180  0.30750  0.01920  Biso   1.000  H
  C64      1.0000 0.91650  0.33250  0.97630  Biso   1.000  C
  H44      1.0000 0.93410  0.28730  0.98030  Biso   1.000  H
  N21      1.0000 0.57650  0.70660  0.02680  Biso   1.000  N
  C65      1.0000 0.56120  0.66800  0.06130  Biso   1.000  C
  H45      1.0000 0.53410  0.68880  0.08560  Biso   1.000  H
  C66      1.0000 0.58130  0.59840  0.06550  Biso   1.000  C
  H46      1.0000 0.57000  0.57280  0.09170  Biso   1.000  H
  C67      1.0000 0.61850  0.56920  0.02900  Biso   1.000  C
  C68      1.0000 0.63390  0.60770  0.99310  Biso   1.000  C
  H47      1.0000 0.66020  0.58820  0.96800  Biso   1.000  H
  C69      1.0000 0.61070  0.67700  0.99260  Biso   1.000  C
  H48      1.0000 0.62010  0.70340  0.96650  Biso   1.000  H
  C70      1.0000 0.63280  0.39120  0.06990  Biso   1.000  C
  N22      1.0000 0.70070  0.37360  0.04720  Biso   1.000  N
  C71      1.0000 0.73760  0.42270  0.01780  Biso   1.000  C
  N23      1.0000 0.71270  0.48500  0.00900  Biso   1.000  N
  C72      1.0000 0.64590  0.49630  0.03430  Biso   1.000  C
  N24      1.0000 0.60330  0.45080  0.06440  Biso   1.000  N
  I1       1.0000 0.12640  0.27530  0.94890  Biso   1.000  I
  I2       1.0000 0.13540  0.47120  0.86699  Biso   1.000  I
  I3       1.0000 0.74130  0.81970  0.49058  Biso   1.000  I
  I4       1.0000 0.83870  0.69860  0.60065  Biso   1.000  I
  Zn5      1.0000 0.17820  0.15990  0.74310  Biso   1.000  Zn
  I5       1.0000 0.21307  0.26641  0.81186  Biso   1.000  I
  I6       1.0000 0.02177  0.04208  0.72234  Biso   1.000  I
  I7       1.0000 0.78740  0.46444  0.35854  Biso   1.000  I
  I8       1.0000 0.64050  0.26110  0.43751  Biso   1.000  I
  Zn6      1.0000 0.56330  0.82170  0.02010  Biso   1.000  Zn
  I9       1.0000 0.39640  0.80210  0.03690  Biso   1.000  I
  I10      1.0000 0.65050  0.88490  0.95180  Biso   1.000  I
  I11      1.0000 0.53020  0.26500  0.29443  Biso   1.000  I
  I12      1.0000 0.47960  0.04520  0.19110  Biso   1.000  I
  I13      1.0000 0.12210  0.25410  0.95190  Biso   1.000  I
  I14      1.0000 0.14330  0.46080  0.86920  Biso   1.000  I
  I15      1.0000 0.74260  0.81130  0.49057  Biso   1.000  I
  I16      1.0000 0.84040  0.70330  0.60189  Biso   1.000  I
  Zn7      1.0000 0.16570  0.14180  0.73390  Biso   1.000  Zn
  I17      1.0000 0.18330  0.23140  0.81080  Biso   1.000  I
  I18      1.0000 0.01830  0.01510  0.70900  Biso   1.000  I
  I19      1.0000 0.80620  0.46650  0.35670  Biso   1.000  I
  I20      1.0000 0.64770  0.27150  0.43670  Biso   1.000  I
  Zn8      1.0000 0.54300  0.80960  0.02760  Biso   1.000  Zn
  I21      1.0000 0.38390  0.77970  0.06600  Biso   1.000  I
  I22      1.0000 0.59040  0.87650  0.96098  Biso   1.000  I
  I23      1.0000 0.52840  0.24280  0.29090  Biso   1.000  I
  I24      1.0000 0.47160  0.02880  0.18340  Biso   1.000  I
  Zn9      1.0000 0.52940  0.79680  0.04740  Biso   1.000  Zn
  I25      1.0000 0.37840  0.75210  0.09580  Biso   1.000  I
  I26      1.0000 0.52950  0.85860  0.97860  Biso   1.000  I
  Zn10     1.0000 0.94679  0.65355  0.09348  Biso   1.000  Zn
  Zn11     1.0000 0.27877  0.24649  0.43783  Biso   1.000  Zn
  Zn12     1.0000 0.21753  0.65167  0.60033  Biso   1.000  Zn
  Zn13     1.0000 0.53981  0.82633  0.78367  Biso   1.000  Zn
  N25      1.0000 0.05570  0.73230  0.14080  Biso   1.000  N
  C73      1.0000 0.12840  0.70870  0.15450  Biso   1.000  C
  H49      1.0000 0.12820  0.65740  0.14190  Biso   1.000  H
  C74      1.0000 0.20270  0.75680  0.18630  Biso   1.000  C
  H50      1.0000 0.25430  0.73940  0.19450  Biso   1.000  H
  C75      1.0000 0.20300  0.83020  0.20640  Biso   1.000  C
  C76      1.0000 0.12810  0.85310  0.19300  Biso   1.000  C
  H51      1.0000 0.12540  0.90310  0.20620  Biso   1.000  H
  C77      1.0000 0.05520  0.80230  0.15950  Biso   1.000  C
  H52      1.0000 0.00380  0.81910  0.15010  Biso   1.000  H
  N26      1.0000 0.30280  0.16660  0.38850  Biso   1.000  N
  C78      1.0000 0.24290  0.13170  0.35130  Biso   1.000  C
  H53      1.0000 0.18880  0.14730  0.34550  Biso   1.000  H
  C79      1.0000 0.25600  0.07370  0.32070  Biso   1.000  C
  H54      1.0000 0.21150  0.04990  0.29430  Biso   1.000  H
  C80      1.0000 0.33440  0.05030  0.32860  Biso   1.000  C
  C81      1.0000 0.39750  0.08670  0.36710  Biso   1.000  C
  H55      1.0000 0.45260  0.07250  0.37330  Biso   1.000  H
  C82      1.0000 0.37970  0.14420  0.39660  Biso   1.000  C
  H56      1.0000 0.42270  0.16860  0.42340  Biso   1.000  H
  N27      1.0000 0.70360  0.87600  0.26200  Biso   1.000  N
  C83      1.0000 0.62810  0.83580  0.23290  Biso   1.000  C
  H57      1.0000 0.63420  0.79870  0.20890  Biso   1.000  H
  C84      1.0000 0.53870  0.84490  0.23540  Biso   1.000  C
  H58      1.0000 0.48510  0.81440  0.21380  Biso   1.000  H
  C85      1.0000 0.52980  0.89940  0.27030  Biso   1.000  C
  C86      1.0000 0.60860  0.94320  0.29880  Biso   1.000  C
  H59      1.0000 0.60570  0.98260  0.32240  Biso   1.000  H
  C87      1.0000 0.69620  0.92970  0.29330  Biso   1.000  C
  H60      1.0000 0.75200  0.96140  0.31340  Biso   1.000  H
  C88      1.0000 0.28370  0.88140  0.24040  Biso   1.000  C
  N28      1.0000 0.27440  0.94500  0.26430  Biso   1.000  N
  C89      1.0000 0.34670  0.98550  0.29660  Biso   1.000  C
  N29      1.0000 0.43020  0.97120  0.30220  Biso   1.000  N
  C90      1.0000 0.43580  0.91170  0.27330  Biso   1.000  C
  N30      1.0000 0.36320  0.86140  0.24310  Biso   1.000  N
  N31      1.0000 0.41250  0.33940  0.44670  Biso   1.000  N
  C91      1.0000 0.47080  0.36560  0.48400  Biso   1.000  C
  H61      1.0000 0.45320  0.34000  0.50990  Biso   1.000  H
  C92      1.0000 0.55790  0.42970  0.48730  Biso   1.000  C
  H62      1.0000 0.59950  0.44700  0.51490  Biso   1.000  H
  C93      1.0000 0.58330  0.46770  0.45050  Biso   1.000  C
  C94      1.0000 0.52560  0.43950  0.41070  Biso   1.000  C
  H63      1.0000 0.54250  0.46310  0.38410  Biso   1.000  H
  C95      1.0000 0.43910  0.37320  0.41050  Biso   1.000  C
  H64      1.0000 0.39800  0.35210  0.38280  Biso   1.000  H
  N32      1.0000 0.09310  0.61950  0.55520  Biso   1.000  N
  C96      1.0000 0.01060  0.55950  0.55880  Biso   1.000  C
  H65      1.0000 0.01060  0.52330  0.57960  Biso   1.000  H
  C97      1.0000 0.92500  0.54930  0.53290  Biso   1.000  C
  H66      1.0000 0.86700  0.50680  0.53610  Biso   1.000  H
  C98      1.0000 0.92500  0.60070  0.50280  Biso   1.000  C
  C99      1.0000 0.01170  0.65880  0.49770  Biso   1.000  C
  H67      1.0000 0.01450  0.69360  0.47580  Biso   1.000  H
  C100     1.0000 0.09420  0.66650  0.52430  Biso   1.000  C
  H68      1.0000 0.15350  0.70680  0.52040  Biso   1.000  H
  N33      1.0000 0.80510  0.78260  0.31340  Biso   1.000  N
  C101     1.0000 0.72830  0.71610  0.31140  Biso   1.000  C
  H69      1.0000 0.68310  0.70000  0.28500  Biso   1.000  H
  C102     1.0000 0.71060  0.66910  0.34560  Biso   1.000  C
  H70      1.0000 0.65380  0.62250  0.34320  Biso   1.000  H
  C103     1.0000 0.77730  0.69140  0.38310  Biso   1.000  C
  C104     1.0000 0.85570  0.76010  0.38560  Biso   1.000  C
  H71      1.0000 0.90200  0.77780  0.41160  Biso   1.000  H
  C105     1.0000 0.86720  0.80350  0.35030  Biso   1.000  C
  H72      1.0000 0.92270  0.85100  0.35240  Biso   1.000  H
  C106     1.0000 0.67610  0.53460  0.45160  Biso   1.000  C
  N34      1.0000 0.75160  0.53700  0.47960  Biso   1.000  N
  C107     1.0000 0.83580  0.59580  0.47440  Biso   1.000  C
  N35      1.0000 0.84790  0.64750  0.44560  Biso   1.000  N
  C108     1.0000 0.76740  0.64010  0.41860  Biso   1.000  C
  N36      1.0000 0.67890  0.58360  0.42180  Biso   1.000  N
  N37      1.0000 0.18320  0.72830  0.64750  Biso   1.000  N
  C109     1.0000 0.24750  0.79250  0.67170  Biso   1.000  C
  H73      1.0000 0.31220  0.80910  0.66430  Biso   1.000  H
  C110     1.0000 0.22530  0.83770  0.70780  Biso   1.000  C
  H74      1.0000 0.27480  0.88210  0.72560  Biso   1.000  H
  C111     1.0000 0.13180  0.81730  0.71740  Biso   1.000  C
  C112     1.0000 0.06340  0.74920  0.69190  Biso   1.000  C
  H75      1.0000 0.99790  0.73190  0.69830  Biso   1.000  H
  C113     1.0000 0.09110  0.70730  0.65780  Biso   1.000  C
  H76      1.0000 0.04340  0.66120  0.64040  Biso   1.000  H
  N38      1.0000 0.35500  0.12370  0.91560  Biso   1.000  N
  C114     1.0000 0.26490  0.12470  0.91250  Biso   1.000  C
  H77      1.0000 0.25020  0.16240  0.93310  Biso   1.000  H
  C115     1.0000 0.19250  0.07260  0.88040  Biso   1.000  C
  H78      1.0000 0.12880  0.07360  0.87950  Biso   1.000  H
  C116     1.0000 0.21460  0.01800  0.84910  Biso   1.000  C
  C117     1.0000 0.30920  0.01970  0.85270  Biso   1.000  C
  H79      1.0000 0.32720  0.98410  0.83210  Biso   1.000  H
  C118     1.0000 0.37640  0.07210  0.88580  Biso   1.000  C
  H80      1.0000 0.44050  0.07190  0.88780  Biso   1.000  H
  N39      1.0000 0.68500  0.84080  0.79040  Biso   1.000  N
  C119     1.0000 0.74930  0.90090  0.82030  Biso   1.000  C
  H81      1.0000 0.72640  0.93440  0.84000  Biso   1.000  H
  C120     1.0000 0.84790  0.91530  0.82290  Biso   1.000  C
  H82      1.0000 0.89190  0.95740  0.84450  Biso   1.000  H
  C121     1.0000 0.88080  0.86690  0.79340  Biso   1.000  C
  C122     1.0000 0.81320  0.80500  0.76290  Biso   1.000  C
  H83      1.0000 0.83370  0.77110  0.74230  Biso   1.000  H
  C123     1.0000 0.71720  0.79380  0.76280  Biso   1.000  C
  H84      1.0000 0.67170  0.75080  0.74230  Biso   1.000  H
  C124     1.0000 0.10450  0.86310  0.75450  Biso   1.000  C
  N40      1.0000 0.00910  0.84030  0.75900  Biso   1.000  N
  C125     1.0000 0.98740  0.88500  0.79140  Biso   1.000  C
  N41      1.0000 0.04820  0.94380  0.82210  Biso   1.000  N
  C126     1.0000 0.13980  0.95820  0.81590  Biso   1.000  C
  N42      1.0000 0.17280  0.92230  0.78150  Biso   1.000  N
  N43      1.0000 0.48640  0.75490  0.83250  Biso   1.000  N
  C127     1.0000 0.41420  0.76780  0.85500  Biso   1.000  C
  H85      1.0000 0.39020  0.80830  0.84790  Biso   1.000  H
  C128     1.0000 0.37640  0.72250  0.88780  Biso   1.000  C
  H86      1.0000 0.32840  0.73300  0.90450  Biso   1.000  H
  C129     1.0000 0.40900  0.66070  0.89660  Biso   1.000  C
  C130     1.0000 0.48280  0.65050  0.87430  Biso   1.000  C
  H87      1.0000 0.50850  0.61080  0.88100  Biso   1.000  H
  C131     1.0000 0.51860  0.69680  0.84300  Biso   1.000  C
  H88      1.0000 0.56900  0.68840  0.82740  Biso   1.000  H
  N44      1.0000 0.03690  0.61850  0.05130  Biso   1.000  N
  C132     1.0000 0.06040  0.55290  0.05610  Biso   1.000  C
  H89      1.0000 0.02620  0.51640  0.07510  Biso   1.000  H
  C133     1.0000 0.13260  0.53760  0.03390  Biso   1.000  C
  H90      1.0000 0.14780  0.49120  0.03790  Biso   1.000  H
  C134     1.0000 0.18200  0.58910  0.00630  Biso   1.000  C
  C135     1.0000 0.15630  0.65600  0.00040  Biso   1.000  C
  H91      1.0000 0.18820  0.69250  0.98080  Biso   1.000  H
  C136     1.0000 0.08350  0.66750  0.02370  Biso   1.000  C
  H92      1.0000 0.06590  0.71270  0.01970  Biso   1.000  H
  N45      1.0000 0.42350  0.29340  0.97320  Biso   1.000  N
  C137     1.0000 0.43880  0.33200  0.93870  Biso   1.000  C
  H93      1.0000 0.46590  0.31120  0.91440  Biso   1.000  H
  C138     1.0000 0.41870  0.40160  0.93450  Biso   1.000  C
  H94      1.0000 0.43000  0.42720  0.90830  Biso   1.000  H
  C139     1.0000 0.38150  0.43080  0.97100  Biso   1.000  C
  C140     1.0000 0.36610  0.39230  0.00690  Biso   1.000  C
  H95      1.0000 0.33980  0.41180  0.03200  Biso   1.000  H
  C141     1.0000 0.38930  0.32300  0.00740  Biso   1.000  C
  H96      1.0000 0.37990  0.29660  0.03350  Biso   1.000  H
  C142     1.0000 0.36720  0.60880  0.93010  Biso   1.000  C
  N46      1.0000 0.29930  0.62640  0.95280  Biso   1.000  N
  C143     1.0000 0.26240  0.57730  0.98220  Biso   1.000  C
  N47      1.0000 0.28730  0.51500  0.99100  Biso   1.000  N
  C144     1.0000 0.35410  0.50370  0.96570  Biso   1.000  C
  N48      1.0000 0.39670  0.54920  0.93560  Biso   1.000  N
  I27      1.0000 0.87360  0.72470  0.05110  Biso   1.000  I
  I28      1.0000 0.86460  0.52880  0.13301  Biso   1.000  I
  I29      1.0000 0.25870  0.18030  0.50942  Biso   1.000  I
  I30      1.0000 0.16130  0.30140  0.39935  Biso   1.000  I
  Zn14     1.0000 0.82180  0.84010  0.25690  Biso   1.000  Zn
  I31      1.0000 0.78693  0.73359  0.18814  Biso   1.000  I
  I32      1.0000 0.97823  0.95792  0.27766  Biso   1.000  I
  I33      1.0000 0.21260  0.53556  0.64146  Biso   1.000  I
  I34      1.0000 0.35950  0.73890  0.56249  Biso   1.000  I
  Zn15     1.0000 0.43670  0.17830  0.97990  Biso   1.000  Zn
  I35      1.0000 0.60360  0.19790  0.96310  Biso   1.000  I
  I36      1.0000 0.34950  0.11510  0.04820  Biso   1.000  I
  I37      1.0000 0.46980  0.73500  0.70557  Biso   1.000  I
  I38      1.0000 0.52040  0.95480  0.80890  Biso   1.000  I
  I39      1.0000 0.87790  0.74590  0.04810  Biso   1.000  I
  I40      1.0000 0.85670  0.53920  0.13080  Biso   1.000  I
  I41      1.0000 0.25740  0.18870  0.50943  Biso   1.000  I
  I42      1.0000 0.15960  0.29670  0.39811  Biso   1.000  I
  Zn16     1.0000 0.83430  0.85820  0.26610  Biso   1.000  Zn
  I43      1.0000 0.81670  0.76860  0.18920  Biso   1.000  I
  I44      1.0000 0.98170  0.98490  0.29100  Biso   1.000  I
  I45      1.0000 0.19380  0.53350  0.64330  Biso   1.000  I
  I46      1.0000 0.35230  0.72850  0.56330  Biso   1.000  I
  Zn17     1.0000 0.45700  0.19040  0.97240  Biso   1.000  Zn
  I47      1.0000 0.61610  0.22030  0.93400  Biso   1.000  I
  I48      1.0000 0.40960  0.12350  0.03902  Biso   1.000  I
  I49      1.0000 0.47160  0.75720  0.70910  Biso   1.000  I
  I50      1.0000 0.52840  0.97120  0.81660  Biso   1.000  I
  Zn18     1.0000 0.47060  0.20320  0.95260  Biso   1.000  Zn
  I51      1.0000 0.62160  0.24790  0.90420  Biso   1.000  I
  I52      1.0000 0.47050  0.14140  0.02140  Biso   1.000  I
  C145     1.0000 0.39700  0.51700  0.28940  Biso   1.000  C
  C146     1.0000 0.44000  0.59800  0.32370  Biso   1.000  C
  H97      1.0000 0.50830  0.63640  0.32710  Biso   1.000  H
  C147     1.0000 0.38300  0.55000  0.36450  Biso   1.000  C
  H98      1.0000 0.41110  0.55210  0.39610  Biso   1.000  H
  C148     1.0000 0.34800  0.47600  0.32600  Biso   1.000  C
  H99      1.0000 0.34560  0.42130  0.33100  Biso   1.000  H
  C149     1.0000 0.25300  0.49400  0.31130  Biso   1.000  C
  H100     1.0000 0.18470  0.45510  0.30810  Biso   1.000  H
  C150     1.0000 0.30200  0.54000  0.27610  Biso   1.000  C
  H101     1.0000 0.27210  0.53650  0.24460  Biso   1.000  H
  C151     1.0000 0.35000  0.61900  0.30970  Biso   1.000  C
  H102     1.0000 0.35190  0.67310  0.30370  Biso   1.000  H
  C152     1.0000 0.30200  0.57600  0.35000  Biso   1.000  C
  C153     1.0000 0.45200  0.49000  0.25560  Biso   1.000  C
  O1       1.0000 0.55090  0.52150  0.26450  Biso   1.000  O
  O2       1.0000 0.42200  0.43710  0.22300  Biso   1.000  O
  C154     1.0000 0.62020  0.49950  0.23600  Biso   1.000  C
  H103     1.0000 0.68660  0.53020  0.24950  Biso   1.000  H
  H104     1.0000 0.60790  0.44180  0.23440  Biso   1.000  H
  H105     1.0000 0.61130  0.51220  0.20540  Biso   1.000  H
  C155     1.0000 0.26900  0.59700  0.38960  Biso   1.000  C
  O3       1.0000 0.27300  0.67700  0.39180  Biso   1.000  O
  O4       1.0000 0.18700  0.56500  0.39880  Biso   1.000  O
  C156     1.0000 0.22100  0.70700  0.42690  Biso   1.000  C
  H106     1.0000 0.22970  0.76270  0.42480  Biso   1.000  H
  H107     1.0000 0.15230  0.67360  0.42190  Biso   1.000  H
  H108     1.0000 0.24770  0.70290  0.45710  Biso   1.000  H
  C157     1.0000 0.41300  0.00300  0.53600  Biso   1.000  C
  H109     1.0000 0.45130  0.97080  0.54650  Biso   1.000  H
  H110     1.0000 0.34460  0.96640  0.52960  Biso   1.000  H
  C158     1.0000 0.45000  0.03800  0.49330  Biso   1.000  C
  H111     1.0000 0.43590  0.08670  0.48990  Biso   1.000  H
  H112     1.0000 0.42330  0.99760  0.46560  Biso   1.000  H
  C159     1.0000 0.56000  0.05700  0.50410  Biso   1.000  C
  H113     1.0000 0.58100  0.01530  0.48750  Biso   1.000  H
  H114     1.0000 0.59870  0.11020  0.49660  Biso   1.000  H
  C160     1.0000 0.57000  0.05600  0.55600  Biso   1.000  C
  H115     1.0000 0.63900  0.06870  0.56680  Biso   1.000  H
  H116     1.0000 0.53330  0.00090  0.56210  Biso   1.000  H
  C161     1.0000 0.53200  0.11700  0.58150  Biso   1.000  C
  H117     1.0000 0.55700  0.13020  0.61400  Biso   1.000  H
  H118     1.0000 0.54940  0.16770  0.56800  Biso   1.000  H
  C162     1.0000 0.42200  0.07200  0.57490  Biso   1.000  C
  H119     1.0000 0.38630  0.10620  0.56540  Biso   1.000  H
  H120     1.0000 0.39760  0.05100  0.60280  Biso   1.000  H
  C163     1.0000 0.35500  0.67200  0.41500  Biso   1.000  C
  H121     1.0000 0.36500  0.65280  0.44370  Biso   1.000  H
  H122     1.0000 0.28970  0.63950  0.39970  Biso   1.000  H
  C164     1.0000 0.43300  0.66800  0.38400  Biso   1.000  C
  H123     1.0000 0.40650  0.62090  0.35940  Biso   1.000  H
  H124     1.0000 0.48880  0.66240  0.40140  Biso   1.000  H
  C165     1.0000 0.46600  0.74700  0.36290  Biso   1.000  C
  H125     1.0000 0.50380  0.74140  0.33720  Biso   1.000  H
  H126     1.0000 0.40890  0.75770  0.35100  Biso   1.000  H
  C166     1.0000 0.52900  0.81800  0.39800  Biso   1.000  C
  H127     1.0000 0.59430  0.81650  0.40410  Biso   1.000  H
  H128     1.0000 0.53500  0.86990  0.38730  Biso   1.000  H
  C167     1.0000 0.47800  0.81100  0.44100  Biso   1.000  C
  H129     1.0000 0.48690  0.86530  0.45750  Biso   1.000  H
  H130     1.0000 0.50300  0.78170  0.46150  Biso   1.000  H
  C168     1.0000 0.36900  0.76400  0.42300  Biso   1.000  C
  H131     1.0000 0.35250  0.78120  0.39440  Biso   1.000  H
  H132     1.0000 0.32700  0.77380  0.44560  Biso   1.000  H
  C169     1.0000 0.36900  0.53100  0.28000  Biso   1.000  C
  H133     1.0000 0.29940  0.52220  0.27850  Biso   1.000  H
  H134     1.0000 0.40150  0.56690  0.30870  Biso   1.000  H
  C170     1.0000 0.38300  0.44900  0.28000  Biso   1.000  C
  H135     1.0000 0.34880  0.41180  0.25250  Biso   1.000  H
  H136     1.0000 0.35780  0.42470  0.30690  Biso   1.000  H
  C171     1.0000 0.49300  0.46600  0.28200  Biso   1.000  C
  H137     1.0000 0.52700  0.50590  0.30900  Biso   1.000  H
  H138     1.0000 0.50540  0.41600  0.28470  Biso   1.000  H
  C172     1.0000 0.53500  0.49900  0.23900  Biso   1.000  C
  H139     1.0000 0.60520  0.50950  0.24130  Biso   1.000  H
  H140     1.0000 0.50350  0.45900  0.21190  Biso   1.000  H
  C173     1.0000 0.51700  0.57700  0.23500  Biso   1.000  C
  H141     1.0000 0.56000  0.62070  0.25840  Biso   1.000  H
  H142     1.0000 0.53360  0.59340  0.20480  Biso   1.000  H
  C174     1.0000 0.41200  0.56900  0.24000  Biso   1.000  C
  H143     1.0000 0.37160  0.53660  0.21150  Biso   1.000  H
  H144     1.0000 0.40760  0.62330  0.24170  Biso   1.000  H
  C175     1.0000 0.60300  0.48300  0.71060  Biso   1.000  C
  C176     1.0000 0.56000  0.40200  0.67630  Biso   1.000  C
  H145     1.0000 0.49170  0.36360  0.67290  Biso   1.000  H
  C177     1.0000 0.61700  0.45000  0.63550  Biso   1.000  C
  H146     1.0000 0.58890  0.44790  0.60390  Biso   1.000  H
  C178     1.0000 0.65200  0.52400  0.67400  Biso   1.000  C
  H147     1.0000 0.65440  0.57870  0.66900  Biso   1.000  H
  C179     1.0000 0.74700  0.50600  0.68870  Biso   1.000  C
  H148     1.0000 0.81530  0.54490  0.69190  Biso   1.000  H
  C180     1.0000 0.69800  0.46000  0.72390  Biso   1.000  C
  H149     1.0000 0.72790  0.46350  0.75540  Biso   1.000  H
  C181     1.0000 0.65000  0.38100  0.69030  Biso   1.000  C
  H150     1.0000 0.64810  0.32690  0.69630  Biso   1.000  H
  C182     1.0000 0.69800  0.42400  0.65000  Biso   1.000  C
  C183     1.0000 0.54800  0.51000  0.74440  Biso   1.000  C
  O5       1.0000 0.44910  0.47850  0.73550  Biso   1.000  O
  O6       1.0000 0.57800  0.56290  0.77700  Biso   1.000  O
  C184     1.0000 0.37980  0.50050  0.76400  Biso   1.000  C
  H151     1.0000 0.31340  0.46980  0.75050  Biso   1.000  H
  H152     1.0000 0.39210  0.55820  0.76560  Biso   1.000  H
  H153     1.0000 0.38870  0.48780  0.79460  Biso   1.000  H
  C185     1.0000 0.73100  0.40300  0.61040  Biso   1.000  C
  O7       1.0000 0.72700  0.32300  0.60820  Biso   1.000  O
  O8       1.0000 0.81300  0.43500  0.60120  Biso   1.000  O
  C186     1.0000 0.77900  0.29300  0.57310  Biso   1.000  C
  H154     1.0000 0.77030  0.23730  0.57520  Biso   1.000  H
  H155     1.0000 0.84770  0.32640  0.57810  Biso   1.000  H
  H156     1.0000 0.75230  0.29710  0.54290  Biso   1.000  H
  C187     1.0000 0.58700  0.99700  0.46400  Biso   1.000  C
  H157     1.0000 0.54870  0.02920  0.45350  Biso   1.000  H
  H158     1.0000 0.65540  0.03360  0.47040  Biso   1.000  H
  C188     1.0000 0.55000  0.96200  0.50670  Biso   1.000  C
  H159     1.0000 0.56410  0.91330  0.51010  Biso   1.000  H
  H160     1.0000 0.57670  0.00240  0.53440  Biso   1.000  H
  C189     1.0000 0.44000  0.94300  0.49590  Biso   1.000  C
  H161     1.0000 0.41900  0.98470  0.51250  Biso   1.000  H
  H162     1.0000 0.40130  0.88980  0.50340  Biso   1.000  H
  C190     1.0000 0.43000  0.94400  0.44400  Biso   1.000  C
  H163     1.0000 0.36100  0.93130  0.43320  Biso   1.000  H
  H164     1.0000 0.46670  0.99910  0.43790  Biso   1.000  H
  C191     1.0000 0.46800  0.88300  0.41850  Biso   1.000  C
  H165     1.0000 0.44300  0.86980  0.38600  Biso   1.000  H
  H166     1.0000 0.45060  0.83230  0.43200  Biso   1.000  H
  C192     1.0000 0.57800  0.92800  0.42510  Biso   1.000  C
  H167     1.0000 0.61370  0.89380  0.43460  Biso   1.000  H
  H168     1.0000 0.60240  0.94900  0.39720  Biso   1.000  H
  C193     1.0000 0.64500  0.32800  0.58500  Biso   1.000  C
  H169     1.0000 0.63500  0.34720  0.55630  Biso   1.000  H
  H170     1.0000 0.71030  0.36050  0.60030  Biso   1.000  H
  C194     1.0000 0.56700  0.33200  0.61600  Biso   1.000  C
  H171     1.0000 0.59350  0.37910  0.64060  Biso   1.000  H
  H172     1.0000 0.51120  0.33760  0.59860  Biso   1.000  H
  C195     1.0000 0.53400  0.25300  0.63710  Biso   1.000  C
  H173     1.0000 0.49620  0.25860  0.66280  Biso   1.000  H
  H174     1.0000 0.59110  0.24230  0.64900  Biso   1.000  H
  C196     1.0000 0.47100  0.18200  0.60200  Biso   1.000  C
  H175     1.0000 0.40570  0.18350  0.59590  Biso   1.000  H
  H176     1.0000 0.46500  0.13010  0.61270  Biso   1.000  H
  C197     1.0000 0.52200  0.18900  0.55900  Biso   1.000  C
  H177     1.0000 0.51310  0.13470  0.54250  Biso   1.000  H
  H178     1.0000 0.49700  0.21830  0.53850  Biso   1.000  H
  C198     1.0000 0.63100  0.23600  0.57700  Biso   1.000  C
  H179     1.0000 0.64750  0.21880  0.60560  Biso   1.000  H
  H180     1.0000 0.67300  0.22620  0.55440  Biso   1.000  H
  C199     1.0000 0.63100  0.46900  0.72000  Biso   1.000  C
  H181     1.0000 0.70060  0.47780  0.72150  Biso   1.000  H
  H182     1.0000 0.59850  0.43310  0.69130  Biso   1.000  H
  C200     1.0000 0.61700  0.55100  0.72000  Biso   1.000  C
  H183     1.0000 0.65120  0.58820  0.74750  Biso   1.000  H
  H184     1.0000 0.64220  0.57530  0.69310  Biso   1.000  H
  C201     1.0000 0.50700  0.53400  0.71800  Biso   1.000  C
  H185     1.0000 0.47300  0.49410  0.69100  Biso   1.000  H
  H186     1.0000 0.49460  0.58400  0.71530  Biso   1.000  H
  C202     1.0000 0.46500  0.50100  0.76100  Biso   1.000  C
  H187     1.0000 0.39480  0.49050  0.75870  Biso   1.000  H
  H188     1.0000 0.49650  0.54100  0.78810  Biso   1.000  H
  C203     1.0000 0.48300  0.42300  0.76500  Biso   1.000  C
  H189     1.0000 0.44000  0.37930  0.74160  Biso   1.000  H
  H190     1.0000 0.46640  0.40660  0.79520  Biso   1.000  H
  C204     1.0000 0.58800  0.43100  0.76000  Biso   1.000  C
  H191     1.0000 0.62840  0.46340  0.78850  Biso   1.000  H
  H192     1.0000 0.59240  0.37670  0.75830  Biso   1.000  H
