data_image0
_cell_length_a       27.604
_cell_length_b       29.333
_cell_length_c       13.11
_cell_angle_alpha    90
_cell_angle_beta     90
_cell_angle_gamma    90

_symmetry_space_group_name_H-M    "P 1"
_symmetry_int_tables_number       1

loop_
  _symmetry_equiv_pos_as_xyz
  'x, y, z'

loop_
  _atom_site_label
  _atom_site_occupancy
  _atom_site_fract_x
  _atom_site_fract_y
  _atom_site_fract_z
  _atom_site_thermal_displace_type
  _atom_site_B_iso_or_equiv
  _atom_site_type_symbol
  O1       1.0000 0.69700  0.48468  0.18800  Biso   1.000  O
  O2       1.0000 0.76460  0.44300  0.53280  Biso   1.000  O
  O3       1.0000 0.70860  0.41240  0.64050  Biso   1.000  O
  O4       1.0000 0.64030  0.44460  0.12070  Biso   1.000  O
  C1       1.0000 0.60350  0.28760  0.40730  Biso   1.000  C
  C2       1.0000 0.66500  0.42550  0.28940  Biso   1.000  C
  C3       1.0000 0.65500  0.37940  0.47460  Biso   1.000  C
  H1       1.0000 0.65170  0.36290  0.53660  Biso   1.000  H
  C4       1.0000 0.62580  0.36930  0.39240  Biso   1.000  C
  C5       1.0000 0.65260  0.27280  0.40240  Biso   1.000  C
  H2       1.0000 0.68030  0.29190  0.39960  Biso   1.000  H
  C6       1.0000 0.58740  0.33150  0.40170  Biso   1.000  C
  C7       1.0000 0.67070  0.45140  0.19640  Biso   1.000  C
  C8       1.0000 0.63250  0.39230  0.29890  Biso   1.000  C
  H3       1.0000 0.61340  0.38390  0.24150  Biso   1.000  H
  C9       1.0000 0.72000  0.42840  0.55550  Biso   1.000  C
  C10      1.0000 0.54060  0.34620  0.39940  Biso   1.000  C
  C11      1.0000 0.52450  0.39330  0.40270  Biso   1.000  C
  H4       1.0000 0.54470  0.41950  0.40460  Biso   1.000  H
  C12      1.0000 0.69540  0.43660  0.37590  Biso   1.000  C
  H5       1.0000 0.71920  0.45980  0.36910  Biso   1.000  H
  C13      1.0000 0.69040  0.41480  0.46610  Biso   1.000  C
  O5       1.0000 0.74790  0.45910  0.54230  Biso   1.000  O
  O6       1.0000 0.65590  0.43060  0.10700  Biso   1.000  O
  O7       1.0000 0.19700  0.98468  0.68800  Biso   1.000  O
  O8       1.0000 0.26460  0.94300  0.03280  Biso   1.000  O
  O9       1.0000 0.20860  0.91240  0.14050  Biso   1.000  O
  O10      1.0000 0.14030  0.94460  0.62070  Biso   1.000  O
  C14      1.0000 0.10350  0.78760  0.90730  Biso   1.000  C
  C15      1.0000 0.16500  0.92550  0.78940  Biso   1.000  C
  C16      1.0000 0.15500  0.87940  0.97460  Biso   1.000  C
  H6       1.0000 0.15170  0.86290  0.03660  Biso   1.000  H
  C17      1.0000 0.12580  0.86930  0.89240  Biso   1.000  C
  C18      1.0000 0.15260  0.77280  0.90240  Biso   1.000  C
  H7       1.0000 0.18030  0.79190  0.89960  Biso   1.000  H
  C19      1.0000 0.08740  0.83150  0.90170  Biso   1.000  C
  C20      1.0000 0.17070  0.95140  0.69640  Biso   1.000  C
  C21      1.0000 0.13250  0.89230  0.79890  Biso   1.000  C
  H8       1.0000 0.11340  0.88390  0.74150  Biso   1.000  H
  C22      1.0000 0.22000  0.92840  0.05550  Biso   1.000  C
  C23      1.0000 0.04060  0.84620  0.89940  Biso   1.000  C
  C24      1.0000 0.02450  0.89330  0.90270  Biso   1.000  C
  H9       1.0000 0.04470  0.91950  0.90460  Biso   1.000  H
  C25      1.0000 0.19540  0.93660  0.87590  Biso   1.000  C
  H10      1.0000 0.21920  0.95980  0.86910  Biso   1.000  H
  C26      1.0000 0.19040  0.91480  0.96610  Biso   1.000  C
  O11      1.0000 0.24790  0.95910  0.04230  Biso   1.000  O
  O12      1.0000 0.15590  0.93060  0.60700  Biso   1.000  O
  O13      1.0000 0.30300  0.01532  0.18800  Biso   1.000  O
  O14      1.0000 0.23540  0.05700  0.53280  Biso   1.000  O
  O15      1.0000 0.29140  0.08760  0.64050  Biso   1.000  O
  O16      1.0000 0.35970  0.05540  0.12070  Biso   1.000  O
  C27      1.0000 0.39650  0.21240  0.40730  Biso   1.000  C
  C28      1.0000 0.33500  0.07450  0.28940  Biso   1.000  C
  C29      1.0000 0.34500  0.12060  0.47460  Biso   1.000  C
  H11      1.0000 0.34830  0.13710  0.53660  Biso   1.000  H
  C30      1.0000 0.37420  0.13070  0.39240  Biso   1.000  C
  C31      1.0000 0.34740  0.22720  0.40240  Biso   1.000  C
  H12      1.0000 0.31970  0.20810  0.39960  Biso   1.000  H
  C32      1.0000 0.41260  0.16850  0.40170  Biso   1.000  C
  C33      1.0000 0.32930  0.04860  0.19640  Biso   1.000  C
  C34      1.0000 0.36750  0.10770  0.29890  Biso   1.000  C
  H13      1.0000 0.38660  0.11610  0.24150  Biso   1.000  H
  C35      1.0000 0.28000  0.07160  0.55550  Biso   1.000  C
  C36      1.0000 0.45940  0.15380  0.39940  Biso   1.000  C
  C37      1.0000 0.47550  0.10670  0.40270  Biso   1.000  C
  H14      1.0000 0.45530  0.08050  0.40460  Biso   1.000  H
  C38      1.0000 0.30460  0.06340  0.37590  Biso   1.000  C
  H15      1.0000 0.28080  0.04020  0.36910  Biso   1.000  H
  C39      1.0000 0.30960  0.08520  0.46610  Biso   1.000  C
  O17      1.0000 0.25210  0.04090  0.54230  Biso   1.000  O
  O18      1.0000 0.34410  0.06940  0.10700  Biso   1.000  O
  O19      1.0000 0.80300  0.51532  0.68800  Biso   1.000  O
  O20      1.0000 0.73540  0.55700  0.03280  Biso   1.000  O
  O21      1.0000 0.79140  0.58760  0.14050  Biso   1.000  O
  O22      1.0000 0.85970  0.55540  0.62070  Biso   1.000  O
  C40      1.0000 0.89650  0.71240  0.90730  Biso   1.000  C
  C41      1.0000 0.83500  0.57450  0.78940  Biso   1.000  C
  C42      1.0000 0.84500  0.62060  0.97460  Biso   1.000  C
  H16      1.0000 0.84830  0.63710  0.03660  Biso   1.000  H
  C43      1.0000 0.87420  0.63070  0.89240  Biso   1.000  C
  C44      1.0000 0.84740  0.72720  0.90240  Biso   1.000  C
  H17      1.0000 0.81970  0.70810  0.89960  Biso   1.000  H
  C45      1.0000 0.91260  0.66850  0.90170  Biso   1.000  C
  C46      1.0000 0.82930  0.54860  0.69640  Biso   1.000  C
  C47      1.0000 0.86750  0.60770  0.79890  Biso   1.000  C
  H18      1.0000 0.88660  0.61610  0.74150  Biso   1.000  H
  C48      1.0000 0.78000  0.57160  0.05550  Biso   1.000  C
  C49      1.0000 0.95940  0.65380  0.89940  Biso   1.000  C
  C50      1.0000 0.97550  0.60670  0.90270  Biso   1.000  C
  H19      1.0000 0.95530  0.58050  0.90460  Biso   1.000  H
  C51      1.0000 0.80460  0.56340  0.87590  Biso   1.000  C
  H20      1.0000 0.78080  0.54020  0.86910  Biso   1.000  H
  C52      1.0000 0.80960  0.58520  0.96610  Biso   1.000  C
  O23      1.0000 0.75210  0.54090  0.04230  Biso   1.000  O
  O24      1.0000 0.84410  0.56940  0.60700  Biso   1.000  O
  O25      1.0000 0.30300  0.98468  0.81200  Biso   1.000  O
  O26      1.0000 0.23540  0.94300  0.46720  Biso   1.000  O
  O27      1.0000 0.29140  0.91240  0.35950  Biso   1.000  O
  O28      1.0000 0.35970  0.94460  0.87930  Biso   1.000  O
  C53      1.0000 0.39650  0.78760  0.59270  Biso   1.000  C
  C54      1.0000 0.33500  0.92550  0.71060  Biso   1.000  C
  C55      1.0000 0.34500  0.87940  0.52540  Biso   1.000  C
  H21      1.0000 0.34830  0.86290  0.46340  Biso   1.000  H
  C56      1.0000 0.37420  0.86930  0.60760  Biso   1.000  C
  C57      1.0000 0.34740  0.77280  0.59760  Biso   1.000  C
  H22      1.0000 0.31970  0.79190  0.60040  Biso   1.000  H
  C58      1.0000 0.41260  0.83150  0.59830  Biso   1.000  C
  C59      1.0000 0.32930  0.95140  0.80360  Biso   1.000  C
  C60      1.0000 0.36750  0.89230  0.70110  Biso   1.000  C
  H23      1.0000 0.38660  0.88390  0.75850  Biso   1.000  H
  C61      1.0000 0.28000  0.92840  0.44450  Biso   1.000  C
  C62      1.0000 0.45940  0.84620  0.60060  Biso   1.000  C
  C63      1.0000 0.47550  0.89330  0.59730  Biso   1.000  C
  H24      1.0000 0.45530  0.91950  0.59540  Biso   1.000  H
  C64      1.0000 0.30460  0.93660  0.62410  Biso   1.000  C
  H25      1.0000 0.28080  0.95980  0.63090  Biso   1.000  H
  C65      1.0000 0.30960  0.91480  0.53390  Biso   1.000  C
  O29      1.0000 0.25210  0.95910  0.45770  Biso   1.000  O
  O30      1.0000 0.34410  0.93060  0.89300  Biso   1.000  O
  O31      1.0000 0.80300  0.48468  0.31200  Biso   1.000  O
  O32      1.0000 0.73540  0.44300  0.96720  Biso   1.000  O
  O33      1.0000 0.79140  0.41240  0.85950  Biso   1.000  O
  O34      1.0000 0.85970  0.44460  0.37930  Biso   1.000  O
  C66      1.0000 0.89650  0.28760  0.09270  Biso   1.000  C
  C67      1.0000 0.83500  0.42550  0.21060  Biso   1.000  C
  C68      1.0000 0.84500  0.37940  0.02540  Biso   1.000  C
  H26      1.0000 0.84830  0.36290  0.96340  Biso   1.000  H
  C69      1.0000 0.87420  0.36930  0.10760  Biso   1.000  C
  C70      1.0000 0.84740  0.27280  0.09760  Biso   1.000  C
  H27      1.0000 0.81970  0.29190  0.10040  Biso   1.000  H
  C71      1.0000 0.91260  0.33150  0.09830  Biso   1.000  C
  C72      1.0000 0.82930  0.45140  0.30360  Biso   1.000  C
  C73      1.0000 0.86750  0.39230  0.20110  Biso   1.000  C
  H28      1.0000 0.88660  0.38390  0.25850  Biso   1.000  H
  C74      1.0000 0.78000  0.42840  0.94450  Biso   1.000  C
  C75      1.0000 0.95940  0.34620  0.10060  Biso   1.000  C
  C76      1.0000 0.97550  0.39330  0.09730  Biso   1.000  C
  H29      1.0000 0.95530  0.41950  0.09540  Biso   1.000  H
  C77      1.0000 0.80460  0.43660  0.12410  Biso   1.000  C
  H30      1.0000 0.78080  0.45980  0.13090  Biso   1.000  H
  C78      1.0000 0.80960  0.41480  0.03390  Biso   1.000  C
  O35      1.0000 0.75210  0.45910  0.95770  Biso   1.000  O
  O36      1.0000 0.84410  0.43060  0.39300  Biso   1.000  O
  O37      1.0000 0.69700  0.51532  0.81200  Biso   1.000  O
  O38      1.0000 0.76460  0.55700  0.46720  Biso   1.000  O
  O39      1.0000 0.70860  0.58760  0.35950  Biso   1.000  O
  O40      1.0000 0.64030  0.55540  0.87930  Biso   1.000  O
  C79      1.0000 0.60350  0.71240  0.59270  Biso   1.000  C
  C80      1.0000 0.66500  0.57450  0.71060  Biso   1.000  C
  C81      1.0000 0.65500  0.62060  0.52540  Biso   1.000  C
  H31      1.0000 0.65170  0.63710  0.46340  Biso   1.000  H
  C82      1.0000 0.62580  0.63070  0.60760  Biso   1.000  C
  C83      1.0000 0.65260  0.72720  0.59760  Biso   1.000  C
  H32      1.0000 0.68030  0.70810  0.60040  Biso   1.000  H
  C84      1.0000 0.58740  0.66850  0.59830  Biso   1.000  C
  C85      1.0000 0.67070  0.54860  0.80360  Biso   1.000  C
  C86      1.0000 0.63250  0.60770  0.70110  Biso   1.000  C
  H33      1.0000 0.61340  0.61610  0.75850  Biso   1.000  H
  C87      1.0000 0.72000  0.57160  0.44450  Biso   1.000  C
  C88      1.0000 0.54060  0.65380  0.60060  Biso   1.000  C
  C89      1.0000 0.52450  0.60670  0.59730  Biso   1.000  C
  H34      1.0000 0.54470  0.58050  0.59540  Biso   1.000  H
  C90      1.0000 0.69540  0.56340  0.62410  Biso   1.000  C
  H35      1.0000 0.71920  0.54020  0.63090  Biso   1.000  H
  C91      1.0000 0.69040  0.58520  0.53390  Biso   1.000  C
  O41      1.0000 0.74790  0.54090  0.45770  Biso   1.000  O
  O42      1.0000 0.65590  0.56940  0.89300  Biso   1.000  O
  O43      1.0000 0.19700  0.01532  0.31200  Biso   1.000  O
  O44      1.0000 0.26460  0.05700  0.96720  Biso   1.000  O
  O45      1.0000 0.20860  0.08760  0.85950  Biso   1.000  O
  O46      1.0000 0.14030  0.05540  0.37930  Biso   1.000  O
  C92      1.0000 0.10350  0.21240  0.09270  Biso   1.000  C
  C93      1.0000 0.16500  0.07450  0.21060  Biso   1.000  C
  C94      1.0000 0.15500  0.12060  0.02540  Biso   1.000  C
  H36      1.0000 0.15170  0.13710  0.96340  Biso   1.000  H
  C95      1.0000 0.12580  0.13070  0.10760  Biso   1.000  C
  C96      1.0000 0.15260  0.22720  0.09760  Biso   1.000  C
  H37      1.0000 0.18030  0.20810  0.10040  Biso   1.000  H
  C97      1.0000 0.08740  0.16850  0.09830  Biso   1.000  C
  C98      1.0000 0.17070  0.04860  0.30360  Biso   1.000  C
  C99      1.0000 0.13250  0.10770  0.20110  Biso   1.000  C
  H38      1.0000 0.11340  0.11610  0.25850  Biso   1.000  H
  C100     1.0000 0.22000  0.07160  0.94450  Biso   1.000  C
  C101     1.0000 0.04060  0.15380  0.10060  Biso   1.000  C
  C102     1.0000 0.02450  0.10670  0.09730  Biso   1.000  C
  H39      1.0000 0.04470  0.08050  0.09540  Biso   1.000  H
  C103     1.0000 0.19540  0.06340  0.12410  Biso   1.000  C
  H40      1.0000 0.21920  0.04020  0.13090  Biso   1.000  H
  C104     1.0000 0.19040  0.08520  0.03390  Biso   1.000  C
  O47      1.0000 0.24790  0.04090  0.95770  Biso   1.000  O
  O48      1.0000 0.15590  0.06940  0.39300  Biso   1.000  O
  O49      1.0000 0.30300  0.51532  0.81200  Biso   1.000  O
  O50      1.0000 0.23540  0.55700  0.46720  Biso   1.000  O
  O51      1.0000 0.29140  0.58760  0.35950  Biso   1.000  O
  O52      1.0000 0.35970  0.55540  0.87930  Biso   1.000  O
  C105     1.0000 0.39650  0.71240  0.59270  Biso   1.000  C
  C106     1.0000 0.33500  0.57450  0.71060  Biso   1.000  C
  C107     1.0000 0.34500  0.62060  0.52540  Biso   1.000  C
  H41      1.0000 0.34830  0.63710  0.46340  Biso   1.000  H
  C108     1.0000 0.37420  0.63070  0.60760  Biso   1.000  C
  C109     1.0000 0.34740  0.72720  0.59760  Biso   1.000  C
  H42      1.0000 0.31970  0.70810  0.60040  Biso   1.000  H
  C110     1.0000 0.41260  0.66850  0.59830  Biso   1.000  C
  C111     1.0000 0.32930  0.54860  0.80360  Biso   1.000  C
  C112     1.0000 0.36750  0.60770  0.70110  Biso   1.000  C
  H43      1.0000 0.38660  0.61610  0.75850  Biso   1.000  H
  C113     1.0000 0.28000  0.57160  0.44450  Biso   1.000  C
  C114     1.0000 0.45940  0.65380  0.60060  Biso   1.000  C
  C115     1.0000 0.47550  0.60670  0.59730  Biso   1.000  C
  H44      1.0000 0.45530  0.58050  0.59540  Biso   1.000  H
  C116     1.0000 0.30460  0.56340  0.62410  Biso   1.000  C
  H45      1.0000 0.28080  0.54020  0.63090  Biso   1.000  H
  C117     1.0000 0.30960  0.58520  0.53390  Biso   1.000  C
  O53      1.0000 0.25210  0.54090  0.45770  Biso   1.000  O
  O54      1.0000 0.34410  0.56940  0.89300  Biso   1.000  O
  O55      1.0000 0.80300  0.01532  0.31200  Biso   1.000  O
  O56      1.0000 0.73540  0.05700  0.96720  Biso   1.000  O
  O57      1.0000 0.79140  0.08760  0.85950  Biso   1.000  O
  O58      1.0000 0.85970  0.05540  0.37930  Biso   1.000  O
  C118     1.0000 0.89650  0.21240  0.09270  Biso   1.000  C
  C119     1.0000 0.83500  0.07450  0.21060  Biso   1.000  C
  C120     1.0000 0.84500  0.12060  0.02540  Biso   1.000  C
  H46      1.0000 0.84830  0.13710  0.96340  Biso   1.000  H
  C121     1.0000 0.87420  0.13070  0.10760  Biso   1.000  C
  C122     1.0000 0.84740  0.22720  0.09760  Biso   1.000  C
  H47      1.0000 0.81970  0.20810  0.10040  Biso   1.000  H
  C123     1.0000 0.91260  0.16850  0.09830  Biso   1.000  C
  C124     1.0000 0.82930  0.04860  0.30360  Biso   1.000  C
  C125     1.0000 0.86750  0.10770  0.20110  Biso   1.000  C
  H48      1.0000 0.88660  0.11610  0.25850  Biso   1.000  H
  C126     1.0000 0.78000  0.07160  0.94450  Biso   1.000  C
  C127     1.0000 0.95940  0.15380  0.10060  Biso   1.000  C
  C128     1.0000 0.97550  0.10670  0.09730  Biso   1.000  C
  H49      1.0000 0.95530  0.08050  0.09540  Biso   1.000  H
  C129     1.0000 0.80460  0.06340  0.12410  Biso   1.000  C
  H50      1.0000 0.78080  0.04020  0.13090  Biso   1.000  H
  C130     1.0000 0.80960  0.08520  0.03390  Biso   1.000  C
  O59      1.0000 0.75210  0.04090  0.95770  Biso   1.000  O
  O60      1.0000 0.84410  0.06940  0.39300  Biso   1.000  O
  O61      1.0000 0.69700  0.98468  0.81200  Biso   1.000  O
  O62      1.0000 0.76460  0.94300  0.46720  Biso   1.000  O
  O63      1.0000 0.70860  0.91240  0.35950  Biso   1.000  O
  O64      1.0000 0.64030  0.94460  0.87930  Biso   1.000  O
  C131     1.0000 0.60350  0.78760  0.59270  Biso   1.000  C
  C132     1.0000 0.66500  0.92550  0.71060  Biso   1.000  C
  C133     1.0000 0.65500  0.87940  0.52540  Biso   1.000  C
  H51      1.0000 0.65170  0.86290  0.46340  Biso   1.000  H
  C134     1.0000 0.62580  0.86930  0.60760  Biso   1.000  C
  C135     1.0000 0.65260  0.77280  0.59760  Biso   1.000  C
  H52      1.0000 0.68030  0.79190  0.60040  Biso   1.000  H
  C136     1.0000 0.58740  0.83150  0.59830  Biso   1.000  C
  C137     1.0000 0.67070  0.95140  0.80360  Biso   1.000  C
  C138     1.0000 0.63250  0.89230  0.70110  Biso   1.000  C
  H53      1.0000 0.61340  0.88390  0.75850  Biso   1.000  H
  C139     1.0000 0.72000  0.92840  0.44450  Biso   1.000  C
  C140     1.0000 0.54060  0.84620  0.60060  Biso   1.000  C
  C141     1.0000 0.52450  0.89330  0.59730  Biso   1.000  C
  H54      1.0000 0.54470  0.91950  0.59540  Biso   1.000  H
  C142     1.0000 0.69540  0.93660  0.62410  Biso   1.000  C
  H55      1.0000 0.71920  0.95980  0.63090  Biso   1.000  H
  C143     1.0000 0.69040  0.91480  0.53390  Biso   1.000  C
  O65      1.0000 0.74790  0.95910  0.45770  Biso   1.000  O
  O66      1.0000 0.65590  0.93060  0.89300  Biso   1.000  O
  O67      1.0000 0.19700  0.48468  0.31200  Biso   1.000  O
  O68      1.0000 0.26460  0.44300  0.96720  Biso   1.000  O
  O69      1.0000 0.20860  0.41240  0.85950  Biso   1.000  O
  O70      1.0000 0.14030  0.44460  0.37930  Biso   1.000  O
  C144     1.0000 0.10350  0.28760  0.09270  Biso   1.000  C
  C145     1.0000 0.16500  0.42550  0.21060  Biso   1.000  C
  C146     1.0000 0.15500  0.37940  0.02540  Biso   1.000  C
  H56      1.0000 0.15170  0.36290  0.96340  Biso   1.000  H
  C147     1.0000 0.12580  0.36930  0.10760  Biso   1.000  C
  C148     1.0000 0.15260  0.27280  0.09760  Biso   1.000  C
  H57      1.0000 0.18030  0.29190  0.10040  Biso   1.000  H
  C149     1.0000 0.08740  0.33150  0.09830  Biso   1.000  C
  C150     1.0000 0.17070  0.45140  0.30360  Biso   1.000  C
  C151     1.0000 0.13250  0.39230  0.20110  Biso   1.000  C
  H58      1.0000 0.11340  0.38390  0.25850  Biso   1.000  H
  C152     1.0000 0.22000  0.42840  0.94450  Biso   1.000  C
  C153     1.0000 0.04060  0.34620  0.10060  Biso   1.000  C
  C154     1.0000 0.02450  0.39330  0.09730  Biso   1.000  C
  H59      1.0000 0.04470  0.41950  0.09540  Biso   1.000  H
  C155     1.0000 0.19540  0.43660  0.12410  Biso   1.000  C
  H60      1.0000 0.21920  0.45980  0.13090  Biso   1.000  H
  C156     1.0000 0.19040  0.41480  0.03390  Biso   1.000  C
  O71      1.0000 0.24790  0.45910  0.95770  Biso   1.000  O
  O72      1.0000 0.15590  0.43060  0.39300  Biso   1.000  O
  O73      1.0000 0.69700  0.01532  0.18800  Biso   1.000  O
  O74      1.0000 0.76460  0.05700  0.53280  Biso   1.000  O
  O75      1.0000 0.70860  0.08760  0.64050  Biso   1.000  O
  O76      1.0000 0.64030  0.05540  0.12070  Biso   1.000  O
  C157     1.0000 0.60350  0.21240  0.40730  Biso   1.000  C
  C158     1.0000 0.66500  0.07450  0.28940  Biso   1.000  C
  C159     1.0000 0.65500  0.12060  0.47460  Biso   1.000  C
  H61      1.0000 0.65170  0.13710  0.53660  Biso   1.000  H
  C160     1.0000 0.62580  0.13070  0.39240  Biso   1.000  C
  C161     1.0000 0.65260  0.22720  0.40240  Biso   1.000  C
  H62      1.0000 0.68030  0.20810  0.39960  Biso   1.000  H
  C162     1.0000 0.58740  0.16850  0.40170  Biso   1.000  C
  C163     1.0000 0.67070  0.04860  0.19640  Biso   1.000  C
  C164     1.0000 0.63250  0.10770  0.29890  Biso   1.000  C
  H63      1.0000 0.61340  0.11610  0.24150  Biso   1.000  H
  C165     1.0000 0.72000  0.07160  0.55550  Biso   1.000  C
  C166     1.0000 0.54060  0.15380  0.39940  Biso   1.000  C
  C167     1.0000 0.52450  0.10670  0.40270  Biso   1.000  C
  H64      1.0000 0.54470  0.08050  0.40460  Biso   1.000  H
  C168     1.0000 0.69540  0.06340  0.37590  Biso   1.000  C
  H65      1.0000 0.71920  0.04020  0.36910  Biso   1.000  H
  C169     1.0000 0.69040  0.08520  0.46610  Biso   1.000  C
  O77      1.0000 0.74790  0.04090  0.54230  Biso   1.000  O
  O78      1.0000 0.65590  0.06940  0.10700  Biso   1.000  O
  O79      1.0000 0.19700  0.51532  0.68800  Biso   1.000  O
  O80      1.0000 0.26460  0.55700  0.03280  Biso   1.000  O
  O81      1.0000 0.20860  0.58760  0.14050  Biso   1.000  O
  O82      1.0000 0.14030  0.55540  0.62070  Biso   1.000  O
  C170     1.0000 0.10350  0.71240  0.90730  Biso   1.000  C
  C171     1.0000 0.16500  0.57450  0.78940  Biso   1.000  C
  C172     1.0000 0.15500  0.62060  0.97460  Biso   1.000  C
  H66      1.0000 0.15170  0.63710  0.03660  Biso   1.000  H
  C173     1.0000 0.12580  0.63070  0.89240  Biso   1.000  C
  C174     1.0000 0.15260  0.72720  0.90240  Biso   1.000  C
  H67      1.0000 0.18030  0.70810  0.89960  Biso   1.000  H
  C175     1.0000 0.08740  0.66850  0.90170  Biso   1.000  C
  C176     1.0000 0.17070  0.54860  0.69640  Biso   1.000  C
  C177     1.0000 0.13250  0.60770  0.79890  Biso   1.000  C
  H68      1.0000 0.11340  0.61610  0.74150  Biso   1.000  H
  C178     1.0000 0.22000  0.57160  0.05550  Biso   1.000  C
  C179     1.0000 0.04060  0.65380  0.89940  Biso   1.000  C
  C180     1.0000 0.02450  0.60670  0.90270  Biso   1.000  C
  H69      1.0000 0.04470  0.58050  0.90460  Biso   1.000  H
  C181     1.0000 0.19540  0.56340  0.87590  Biso   1.000  C
  H70      1.0000 0.21920  0.54020  0.86910  Biso   1.000  H
  C182     1.0000 0.19040  0.58520  0.96610  Biso   1.000  C
  O83      1.0000 0.24790  0.54090  0.04230  Biso   1.000  O
  O84      1.0000 0.15590  0.56940  0.60700  Biso   1.000  O
  O85      1.0000 0.30300  0.48468  0.18800  Biso   1.000  O
  O86      1.0000 0.23540  0.44300  0.53280  Biso   1.000  O
  O87      1.0000 0.29140  0.41240  0.64050  Biso   1.000  O
  O88      1.0000 0.35970  0.44460  0.12070  Biso   1.000  O
  C183     1.0000 0.39650  0.28760  0.40730  Biso   1.000  C
  C184     1.0000 0.33500  0.42550  0.28940  Biso   1.000  C
  C185     1.0000 0.34500  0.37940  0.47460  Biso   1.000  C
  H71      1.0000 0.34830  0.36290  0.53660  Biso   1.000  H
  C186     1.0000 0.37420  0.36930  0.39240  Biso   1.000  C
  C187     1.0000 0.34740  0.27280  0.40240  Biso   1.000  C
  H72      1.0000 0.31970  0.29190  0.39960  Biso   1.000  H
  C188     1.0000 0.41260  0.33150  0.40170  Biso   1.000  C
  C189     1.0000 0.32930  0.45140  0.19640  Biso   1.000  C
  C190     1.0000 0.36750  0.39230  0.29890  Biso   1.000  C
  H73      1.0000 0.38660  0.38390  0.24150  Biso   1.000  H
  C191     1.0000 0.28000  0.42840  0.55550  Biso   1.000  C
  C192     1.0000 0.45940  0.34620  0.39940  Biso   1.000  C
  C193     1.0000 0.47550  0.39330  0.40270  Biso   1.000  C
  H74      1.0000 0.45530  0.41950  0.40460  Biso   1.000  H
  C194     1.0000 0.30460  0.43660  0.37590  Biso   1.000  C
  H75      1.0000 0.28080  0.45980  0.36910  Biso   1.000  H
  C195     1.0000 0.30960  0.41480  0.46610  Biso   1.000  C
  O89      1.0000 0.25210  0.45910  0.54230  Biso   1.000  O
  O90      1.0000 0.34410  0.43060  0.10700  Biso   1.000  O
  O91      1.0000 0.80300  0.98468  0.68800  Biso   1.000  O
  O92      1.0000 0.73540  0.94300  0.03280  Biso   1.000  O
  O93      1.0000 0.79140  0.91240  0.14050  Biso   1.000  O
  O94      1.0000 0.85970  0.94460  0.62070  Biso   1.000  O
  C196     1.0000 0.89650  0.78760  0.90730  Biso   1.000  C
  C197     1.0000 0.83500  0.92550  0.78940  Biso   1.000  C
  C198     1.0000 0.84500  0.87940  0.97460  Biso   1.000  C
  H76      1.0000 0.84830  0.86290  0.03660  Biso   1.000  H
  C199     1.0000 0.87420  0.86930  0.89240  Biso   1.000  C
  C200     1.0000 0.84740  0.77280  0.90240  Biso   1.000  C
  H77      1.0000 0.81970  0.79190  0.89960  Biso   1.000  H
  C201     1.0000 0.91260  0.83150  0.90170  Biso   1.000  C
  C202     1.0000 0.82930  0.95140  0.69640  Biso   1.000  C
  C203     1.0000 0.86750  0.89230  0.79890  Biso   1.000  C
  H78      1.0000 0.88660  0.88390  0.74150  Biso   1.000  H
  C204     1.0000 0.78000  0.92840  0.05550  Biso   1.000  C
  C205     1.0000 0.95940  0.84620  0.89940  Biso   1.000  C
  C206     1.0000 0.97550  0.89330  0.90270  Biso   1.000  C
  H79      1.0000 0.95530  0.91950  0.90460  Biso   1.000  H
  C207     1.0000 0.80460  0.93660  0.87590  Biso   1.000  C
  H80      1.0000 0.78080  0.95980  0.86910  Biso   1.000  H
  C208     1.0000 0.80960  0.91480  0.96610  Biso   1.000  C
  O95      1.0000 0.75210  0.95910  0.04230  Biso   1.000  O
  O96      1.0000 0.84410  0.93060  0.60700  Biso   1.000  O
  Pr1      1.0000 0.82272  0.50000  0.50000  Biso   1.000  Pr
  Pr2      1.0000 0.32272  0.00000  0.00000  Biso   1.000  Pr
  Pr3      1.0000 0.17728  0.00000  0.50000  Biso   1.000  Pr
  Pr4      1.0000 0.67728  0.50000  0.00000  Biso   1.000  Pr
  Pr5      1.0000 0.17728  0.50000  0.50000  Biso   1.000  Pr
  Pr6      1.0000 0.67728  0.00000  0.00000  Biso   1.000  Pr
  Pr7      1.0000 0.82272  0.00000  0.50000  Biso   1.000  Pr
  Pr8      1.0000 0.32272  0.50000  0.00000  Biso   1.000  Pr
  Zn1      1.0000 0.50000  0.25000  0.43690  Biso   1.000  Zn
  Zn2      1.0000 0.50000  0.25000  0.38130  Biso   1.000  Zn
  Zn3      1.0000 0.00000  0.75000  0.93690  Biso   1.000  Zn
  Zn4      1.0000 0.00000  0.75000  0.88130  Biso   1.000  Zn
  Zn5      1.0000 0.50000  0.75000  0.56310  Biso   1.000  Zn
  Zn6      1.0000 0.50000  0.75000  0.61870  Biso   1.000  Zn
  Zn7      1.0000 0.00000  0.25000  0.06310  Biso   1.000  Zn
  Zn8      1.0000 0.00000  0.25000  0.11870  Biso   1.000  Zn
  Na1      1.0000 0.75000  0.45985  0.75000  Biso   1.000  Na
  Na2      1.0000 0.25000  0.04015  0.75000  Biso   1.000  Na
  Na3      1.0000 0.25000  0.95985  0.25000  Biso   1.000  Na
  Na4      1.0000 0.75000  0.54015  0.25000  Biso   1.000  Na
  Na5      1.0000 0.25000  0.54015  0.25000  Biso   1.000  Na
  Na6      1.0000 0.75000  0.95985  0.25000  Biso   1.000  Na
  Na7      1.0000 0.75000  0.04015  0.75000  Biso   1.000  Na
  Na8      1.0000 0.25000  0.45985  0.75000  Biso   1.000  Na
  N1       1.0000 0.50000  0.31940  0.40240  Biso   1.000  N
  N2       1.0000 0.00000  0.81940  0.90240  Biso   1.000  N
  N3       1.0000 0.50000  0.18060  0.40240  Biso   1.000  N
  N4       1.0000 0.00000  0.68060  0.90240  Biso   1.000  N
  N5       1.0000 0.50000  0.81940  0.59760  Biso   1.000  N
  N6       1.0000 0.00000  0.31940  0.09760  Biso   1.000  N
  N7       1.0000 0.50000  0.68060  0.59760  Biso   1.000  N
  N8       1.0000 0.00000  0.18060  0.09760  Biso   1.000  N
  N9       1.0000 0.57490  0.25000  0.40950  Biso   1.000  N
  N10      1.0000 0.07490  0.75000  0.90950  Biso   1.000  N
  N11      1.0000 0.42510  0.25000  0.40950  Biso   1.000  N
  N12      1.0000 0.92510  0.75000  0.90950  Biso   1.000  N
  N13      1.0000 0.42510  0.75000  0.59050  Biso   1.000  N
  N14      1.0000 0.92510  0.25000  0.09050  Biso   1.000  N
  N15      1.0000 0.57490  0.75000  0.59050  Biso   1.000  N
  N16      1.0000 0.07490  0.25000  0.09050  Biso   1.000  N
