data_image0
_cell_length_a       20.0414
_cell_length_b       16.259
_cell_length_c       23.996
_cell_angle_alpha    90
_cell_angle_beta     114.529
_cell_angle_gamma    90

_symmetry_space_group_name_H-M    "P 1"
_symmetry_int_tables_number       1

loop_
  _symmetry_equiv_pos_as_xyz
  'x, y, z'

loop_
  _atom_site_label
  _atom_site_occupancy
  _atom_site_fract_x
  _atom_site_fract_y
  _atom_site_fract_z
  _atom_site_thermal_displace_type
  _atom_site_B_iso_or_equiv
  _atom_site_type_symbol
  Fe1      1.0000 0.36050  0.60368  0.74549  Biso   1.000  Fe
  Fe2      1.0000 0.11507  0.39633  0.25451  Biso   1.000  Fe
  N1       1.0000 0.74174  0.87542  0.98327  Biso   1.000  N
  O1       1.0000 0.31239  0.33844  0.66273  Biso   1.000  O
  O2       1.0000 0.14971  0.33856  0.33762  Biso   1.000  O
  O3       1.0000 0.80710  0.66590  0.76302  Biso   1.000  O
  O4       1.0000 0.45559  0.66610  0.76293  Biso   1.000  O
  O5       1.0000 0.03871  0.70190  0.21956  Biso   1.000  O
  O6       1.0000 0.68097  0.70170  0.21947  Biso   1.000  O
  O7       1.0000 0.74881  0.59420  0.25657  Biso   1.000  O
  O8       1.0000 0.40820  0.56930  0.83512  Biso   1.000  O
  O9       1.0000 0.00776  0.59410  0.25641  Biso   1.000  O
  O10      1.0000 0.07420  0.43080  0.16497  Biso   1.000  O
  C1       1.0000 0.14309  0.06820  0.49997  Biso   1.000  C
  C2       1.0000 0.05477  0.17520  0.49987  Biso   1.000  C
  C3       1.0000 0.12097  0.14920  0.50023  Biso   1.000  C
  C4       1.0000 0.17212  0.21640  0.49976  Biso   1.000  C
  C5       1.0000 0.22093  0.25000  0.55500  Biso   1.000  C
  H1       1.0000 0.22470  0.22750  0.59270  Biso   1.000  H
  C6       1.0000 0.16607  0.24990  0.44513  Biso   1.000  C
  H2       1.0000 0.13240  0.22710  0.40750  Biso   1.000  H
  C7       1.0000 0.66200  0.78290  0.82458  Biso   1.000  C
  C8       1.0000 0.67680  0.93170  0.85349  Biso   1.000  C
  C9       1.0000 0.80750  0.93220  0.11460  Biso   1.000  C
  C10      1.0000 0.26470  0.31750  0.55460  Biso   1.000  C
  C11      1.0000 0.59230  0.75020  0.80467  Biso   1.000  C
  H3       1.0000 0.55810  0.77220  0.81880  Biso   1.000  H
  C12      1.0000 0.20930  0.31750  0.44464  Biso   1.000  C
  C13      1.0000 0.79760  0.85060  0.09471  Biso   1.000  C
  C14      1.0000 0.25930  0.34920  0.50010  Biso   1.000  C
  H4       1.0000 0.29030  0.39350  0.50010  Biso   1.000  H
  C15      1.0000 0.71660  0.82490  0.93358  Biso   1.000  C
  C16      1.0000 0.76780  0.82420  0.03480  Biso   1.000  C
  C17      1.0000 0.82200  0.78520  0.14394  Biso   1.000  C
  C18      1.0000 0.21200  0.04200  0.49990  Biso   1.000  C
  H5       1.0000 0.25010  0.07670  0.49980  Biso   1.000  H
  C19      1.0000 0.68660  0.85110  0.87330  Biso   1.000  C
  C20      1.0000 0.71240  0.75010  0.80485  Biso   1.000  C
  H6       1.0000 0.76050  0.77220  0.81890  Biso   1.000  H
  C21      1.0000 0.57260  0.68410  0.76344  Biso   1.000  C
  C22      1.0000 0.69110  0.68360  0.76362  Biso   1.000  C
  C23      1.0000 0.77420  0.75590  0.16600  Biso   1.000  C
  H7       1.0000 0.72610  0.77810  0.15140  Biso   1.000  H
  C24      1.0000 0.75770  0.73970  0.01590  Biso   1.000  C
  H8       1.0000 0.76990  0.69280  0.04180  Biso   1.000  H
  C25      1.0000 0.89230  0.75590  0.16610  Biso   1.000  C
  H9       1.0000 0.92570  0.77830  0.15140  Biso   1.000  H
  C26      1.0000 0.72710  0.73970  0.95350  Biso   1.000  C
  H10      1.0000 0.71490  0.69250  0.92780  Biso   1.000  H
  C27      1.0000 0.73880  0.66100  0.23020  Biso   1.000  C
  C28      1.0000 0.62180  0.65090  0.74394  Biso   1.000  C
  H11      1.0000 0.60820  0.60520  0.71680  Biso   1.000  H
  C29      1.0000 0.91540  0.69410  0.20970  Biso   1.000  C
  C30      1.0000 0.03340  0.25880  0.49950  Biso   1.000  C
  H12      1.0000 0.06110  0.30580  0.49880  Biso   1.000  H
  C31      1.0000 0.83930  0.95870  0.17892  Biso   1.000  C
  H13      1.0000 0.85660  0.92400  0.21390  Biso   1.000  H
  C32      1.0000 0.64470  0.95850  0.79000  Biso   1.000  C
  H14      1.0000 0.62700  0.92390  0.75490  Biso   1.000  H
  C33      1.0000 0.79510  0.69380  0.20980  Biso   1.000  C
  C34      1.0000 0.74410  0.64130  0.74420  Biso   1.000  C
  C35      1.0000 0.99120  0.66170  0.23030  Biso   1.000  C
  C36      1.0000 0.31490  0.35850  0.61400  Biso   1.000  C
  C37      1.0000 0.49950  0.64080  0.74380  Biso   1.000  C
  C38      1.0000 0.20060  0.35830  0.38580  Biso   1.000  C
  C39      1.0000 0.86590  0.66230  0.23040  Biso   1.000  C
  H15      1.0000 0.88030  0.61840  0.25910  Biso   1.000  H
  O11      1.0000 0.50150  0.56720  0.71850  Biso   1.000  O
  O12      1.0000 0.37010  0.39860  0.61590  Biso   1.000  O
  O13      1.0000 0.71660  0.56630  0.71790  Biso   1.000  O
  O14      1.0000 0.25350  0.39840  0.38370  Biso   1.000  O
  O15      1.0000 0.47680  0.60040  0.69400  Biso   1.000  O
  O16      1.0000 0.71660  0.60180  0.69390  Biso   1.000  O
  O17      1.0000 0.24040  0.42820  0.40010  Biso   1.000  O
  O18      1.0000 0.33880  0.42890  0.59980  Biso   1.000  O
  Fe3      1.0000 0.63950  0.60368  0.25451  Biso   1.000  Fe
  Fe4      1.0000 0.88493  0.39633  0.74549  Biso   1.000  Fe
  N2       1.0000 0.25826  0.87542  0.01673  Biso   1.000  N
  O19      1.0000 0.68761  0.33844  0.33727  Biso   1.000  O
  O20      1.0000 0.85029  0.33856  0.66238  Biso   1.000  O
  O21      1.0000 0.19290  0.66590  0.23698  Biso   1.000  O
  O22      1.0000 0.54441  0.66610  0.23707  Biso   1.000  O
  O23      1.0000 0.96129  0.70190  0.78044  Biso   1.000  O
  O24      1.0000 0.31903  0.70170  0.78053  Biso   1.000  O
  O25      1.0000 0.25119  0.59420  0.74343  Biso   1.000  O
  O26      1.0000 0.59180  0.56930  0.16488  Biso   1.000  O
  O27      1.0000 0.99224  0.59410  0.74359  Biso   1.000  O
  O28      1.0000 0.92580  0.43080  0.83503  Biso   1.000  O
  C40      1.0000 0.85691  0.06820  0.50003  Biso   1.000  C
  C41      1.0000 0.94523  0.17520  0.50013  Biso   1.000  C
  C42      1.0000 0.87903  0.14920  0.49977  Biso   1.000  C
  C43      1.0000 0.82788  0.21640  0.50024  Biso   1.000  C
  C44      1.0000 0.77907  0.25000  0.44500  Biso   1.000  C
  H16      1.0000 0.77530  0.22750  0.40730  Biso   1.000  H
  C45      1.0000 0.83393  0.24990  0.55487  Biso   1.000  C
  H17      1.0000 0.86760  0.22710  0.59250  Biso   1.000  H
  C46      1.0000 0.33800  0.78290  0.17542  Biso   1.000  C
  C47      1.0000 0.32320  0.93170  0.14651  Biso   1.000  C
  C48      1.0000 0.19250  0.93220  0.88540  Biso   1.000  C
  C49      1.0000 0.73530  0.31750  0.44540  Biso   1.000  C
  C50      1.0000 0.40770  0.75020  0.19533  Biso   1.000  C
  H18      1.0000 0.44190  0.77220  0.18120  Biso   1.000  H
  C51      1.0000 0.79070  0.31750  0.55536  Biso   1.000  C
  C52      1.0000 0.20240  0.85060  0.90529  Biso   1.000  C
  C53      1.0000 0.74070  0.34920  0.49990  Biso   1.000  C
  H19      1.0000 0.70970  0.39350  0.49990  Biso   1.000  H
  C54      1.0000 0.28340  0.82490  0.06642  Biso   1.000  C
  C55      1.0000 0.23220  0.82420  0.96520  Biso   1.000  C
  C56      1.0000 0.17800  0.78520  0.85606  Biso   1.000  C
  C57      1.0000 0.78800  0.04200  0.50010  Biso   1.000  C
  H20      1.0000 0.74990  0.07670  0.50020  Biso   1.000  H
  C58      1.0000 0.31340  0.85110  0.12670  Biso   1.000  C
  C59      1.0000 0.28760  0.75010  0.19515  Biso   1.000  C
  H21      1.0000 0.23950  0.77220  0.18110  Biso   1.000  H
  C60      1.0000 0.42740  0.68410  0.23656  Biso   1.000  C
  C61      1.0000 0.30890  0.68360  0.23638  Biso   1.000  C
  C62      1.0000 0.22580  0.75590  0.83400  Biso   1.000  C
  H22      1.0000 0.27390  0.77810  0.84860  Biso   1.000  H
  C63      1.0000 0.24230  0.73970  0.98410  Biso   1.000  C
  H23      1.0000 0.23010  0.69280  0.95820  Biso   1.000  H
  C64      1.0000 0.10770  0.75590  0.83390  Biso   1.000  C
  H24      1.0000 0.07430  0.77830  0.84860  Biso   1.000  H
  C65      1.0000 0.27290  0.73970  0.04650  Biso   1.000  C
  H25      1.0000 0.28510  0.69250  0.07220  Biso   1.000  H
  C66      1.0000 0.26120  0.66100  0.76980  Biso   1.000  C
  C67      1.0000 0.37820  0.65090  0.25606  Biso   1.000  C
  H26      1.0000 0.39180  0.60520  0.28320  Biso   1.000  H
  C68      1.0000 0.08460  0.69410  0.79030  Biso   1.000  C
  C69      1.0000 0.96660  0.25880  0.50050  Biso   1.000  C
  H27      1.0000 0.93890  0.30580  0.50120  Biso   1.000  H
  C70      1.0000 0.16070  0.95870  0.82108  Biso   1.000  C
  H28      1.0000 0.14340  0.92400  0.78610  Biso   1.000  H
  C71      1.0000 0.35530  0.95850  0.21000  Biso   1.000  C
  H29      1.0000 0.37300  0.92390  0.24510  Biso   1.000  H
  C72      1.0000 0.20490  0.69380  0.79020  Biso   1.000  C
  C73      1.0000 0.25590  0.64130  0.25580  Biso   1.000  C
  C74      1.0000 0.00880  0.66170  0.76970  Biso   1.000  C
  C75      1.0000 0.68510  0.35850  0.38600  Biso   1.000  C
  C76      1.0000 0.50050  0.64080  0.25620  Biso   1.000  C
  C77      1.0000 0.79940  0.35830  0.61420  Biso   1.000  C
  C78      1.0000 0.13410  0.66230  0.76960  Biso   1.000  C
  H30      1.0000 0.11970  0.61840  0.74090  Biso   1.000  H
  O29      1.0000 0.49850  0.56720  0.28150  Biso   1.000  O
  O30      1.0000 0.62990  0.39860  0.38410  Biso   1.000  O
  O31      1.0000 0.28340  0.56630  0.28210  Biso   1.000  O
  O32      1.0000 0.74650  0.39840  0.61630  Biso   1.000  O
  O33      1.0000 0.52320  0.60040  0.30600  Biso   1.000  O
  O34      1.0000 0.28340  0.60180  0.30610  Biso   1.000  O
  O35      1.0000 0.75960  0.42820  0.59990  Biso   1.000  O
  O36      1.0000 0.66120  0.42890  0.40020  Biso   1.000  O
  Fe5      1.0000 0.63950  0.39632  0.25451  Biso   1.000  Fe
  Fe6      1.0000 0.88493  0.60367  0.74549  Biso   1.000  Fe
  N3       1.0000 0.25826  0.12458  0.01673  Biso   1.000  N
  O37      1.0000 0.68761  0.66156  0.33727  Biso   1.000  O
  O38      1.0000 0.85029  0.66144  0.66238  Biso   1.000  O
  O39      1.0000 0.19290  0.33410  0.23698  Biso   1.000  O
  O40      1.0000 0.54441  0.33390  0.23707  Biso   1.000  O
  O41      1.0000 0.96129  0.29810  0.78044  Biso   1.000  O
  O42      1.0000 0.31903  0.29830  0.78053  Biso   1.000  O
  O43      1.0000 0.25119  0.40580  0.74343  Biso   1.000  O
  O44      1.0000 0.59180  0.43070  0.16488  Biso   1.000  O
  O45      1.0000 0.99224  0.40590  0.74359  Biso   1.000  O
  O46      1.0000 0.92580  0.56920  0.83503  Biso   1.000  O
  C79      1.0000 0.85691  0.93180  0.50003  Biso   1.000  C
  C80      1.0000 0.94523  0.82480  0.50013  Biso   1.000  C
  C81      1.0000 0.87903  0.85080  0.49977  Biso   1.000  C
  C82      1.0000 0.82788  0.78360  0.50024  Biso   1.000  C
  C83      1.0000 0.77907  0.75000  0.44500  Biso   1.000  C
  H31      1.0000 0.77530  0.77250  0.40730  Biso   1.000  H
  C84      1.0000 0.83393  0.75010  0.55487  Biso   1.000  C
  H32      1.0000 0.86760  0.77290  0.59250  Biso   1.000  H
  C85      1.0000 0.33800  0.21710  0.17542  Biso   1.000  C
  C86      1.0000 0.32320  0.06830  0.14651  Biso   1.000  C
  C87      1.0000 0.19250  0.06780  0.88540  Biso   1.000  C
  C88      1.0000 0.73530  0.68250  0.44540  Biso   1.000  C
  C89      1.0000 0.40770  0.24980  0.19533  Biso   1.000  C
  H33      1.0000 0.44190  0.22780  0.18120  Biso   1.000  H
  C90      1.0000 0.79070  0.68250  0.55536  Biso   1.000  C
  C91      1.0000 0.20240  0.14940  0.90529  Biso   1.000  C
  C92      1.0000 0.74070  0.65080  0.49990  Biso   1.000  C
  H34      1.0000 0.70970  0.60650  0.49990  Biso   1.000  H
  C93      1.0000 0.28340  0.17510  0.06642  Biso   1.000  C
  C94      1.0000 0.23220  0.17580  0.96520  Biso   1.000  C
  C95      1.0000 0.17800  0.21480  0.85606  Biso   1.000  C
  C96      1.0000 0.78800  0.95800  0.50010  Biso   1.000  C
  H35      1.0000 0.74990  0.92330  0.50020  Biso   1.000  H
  C97      1.0000 0.31340  0.14890  0.12670  Biso   1.000  C
  C98      1.0000 0.28760  0.24990  0.19515  Biso   1.000  C
  H36      1.0000 0.23950  0.22780  0.18110  Biso   1.000  H
  C99      1.0000 0.42740  0.31590  0.23656  Biso   1.000  C
  C100     1.0000 0.30890  0.31640  0.23638  Biso   1.000  C
  C101     1.0000 0.22580  0.24410  0.83400  Biso   1.000  C
  H37      1.0000 0.27390  0.22190  0.84860  Biso   1.000  H
  C102     1.0000 0.24230  0.26030  0.98410  Biso   1.000  C
  H38      1.0000 0.23010  0.30720  0.95820  Biso   1.000  H
  C103     1.0000 0.10770  0.24410  0.83390  Biso   1.000  C
  H39      1.0000 0.07430  0.22170  0.84860  Biso   1.000  H
  C104     1.0000 0.27290  0.26030  0.04650  Biso   1.000  C
  H40      1.0000 0.28510  0.30750  0.07220  Biso   1.000  H
  C105     1.0000 0.26120  0.33900  0.76980  Biso   1.000  C
  C106     1.0000 0.37820  0.34910  0.25606  Biso   1.000  C
  H41      1.0000 0.39180  0.39480  0.28320  Biso   1.000  H
  C107     1.0000 0.08460  0.30590  0.79030  Biso   1.000  C
  C108     1.0000 0.96660  0.74120  0.50050  Biso   1.000  C
  H42      1.0000 0.93890  0.69420  0.50120  Biso   1.000  H
  C109     1.0000 0.16070  0.04130  0.82108  Biso   1.000  C
  H43      1.0000 0.14340  0.07600  0.78610  Biso   1.000  H
  C110     1.0000 0.35530  0.04150  0.21000  Biso   1.000  C
  H44      1.0000 0.37300  0.07610  0.24510  Biso   1.000  H
  C111     1.0000 0.20490  0.30620  0.79020  Biso   1.000  C
  C112     1.0000 0.25590  0.35870  0.25580  Biso   1.000  C
  C113     1.0000 0.00880  0.33830  0.76970  Biso   1.000  C
  C114     1.0000 0.68510  0.64150  0.38600  Biso   1.000  C
  C115     1.0000 0.50050  0.35920  0.25620  Biso   1.000  C
  C116     1.0000 0.79940  0.64170  0.61420  Biso   1.000  C
  C117     1.0000 0.13410  0.33770  0.76960  Biso   1.000  C
  H45      1.0000 0.11970  0.38160  0.74090  Biso   1.000  H
  O47      1.0000 0.49850  0.43280  0.28150  Biso   1.000  O
  O48      1.0000 0.62990  0.60140  0.38410  Biso   1.000  O
  O49      1.0000 0.28340  0.43370  0.28210  Biso   1.000  O
  O50      1.0000 0.74650  0.60160  0.61630  Biso   1.000  O
  O51      1.0000 0.52320  0.39960  0.30600  Biso   1.000  O
  O52      1.0000 0.28340  0.39820  0.30610  Biso   1.000  O
  O53      1.0000 0.75960  0.57180  0.59990  Biso   1.000  O
  O54      1.0000 0.66120  0.57110  0.40020  Biso   1.000  O
  Fe7      1.0000 0.36050  0.39632  0.74549  Biso   1.000  Fe
  Fe8      1.0000 0.11507  0.60367  0.25451  Biso   1.000  Fe
  N4       1.0000 0.74174  0.12458  0.98327  Biso   1.000  N
  O55      1.0000 0.31239  0.66156  0.66273  Biso   1.000  O
  O56      1.0000 0.14971  0.66144  0.33762  Biso   1.000  O
  O57      1.0000 0.80710  0.33410  0.76302  Biso   1.000  O
  O58      1.0000 0.45559  0.33390  0.76293  Biso   1.000  O
  O59      1.0000 0.03871  0.29810  0.21956  Biso   1.000  O
  O60      1.0000 0.68097  0.29830  0.21947  Biso   1.000  O
  O61      1.0000 0.74881  0.40580  0.25657  Biso   1.000  O
  O62      1.0000 0.40820  0.43070  0.83512  Biso   1.000  O
  O63      1.0000 0.00776  0.40590  0.25641  Biso   1.000  O
  O64      1.0000 0.07420  0.56920  0.16497  Biso   1.000  O
  C118     1.0000 0.14309  0.93180  0.49997  Biso   1.000  C
  C119     1.0000 0.05477  0.82480  0.49987  Biso   1.000  C
  C120     1.0000 0.12097  0.85080  0.50023  Biso   1.000  C
  C121     1.0000 0.17212  0.78360  0.49976  Biso   1.000  C
  C122     1.0000 0.22093  0.75000  0.55500  Biso   1.000  C
  H46      1.0000 0.22470  0.77250  0.59270  Biso   1.000  H
  C123     1.0000 0.16607  0.75010  0.44513  Biso   1.000  C
  H47      1.0000 0.13240  0.77290  0.40750  Biso   1.000  H
  C124     1.0000 0.66200  0.21710  0.82458  Biso   1.000  C
  C125     1.0000 0.67680  0.06830  0.85349  Biso   1.000  C
  C126     1.0000 0.80750  0.06780  0.11460  Biso   1.000  C
  C127     1.0000 0.26470  0.68250  0.55460  Biso   1.000  C
  C128     1.0000 0.59230  0.24980  0.80467  Biso   1.000  C
  H48      1.0000 0.55810  0.22780  0.81880  Biso   1.000  H
  C129     1.0000 0.20930  0.68250  0.44464  Biso   1.000  C
  C130     1.0000 0.79760  0.14940  0.09471  Biso   1.000  C
  C131     1.0000 0.25930  0.65080  0.50010  Biso   1.000  C
  H49      1.0000 0.29030  0.60650  0.50010  Biso   1.000  H
  C132     1.0000 0.71660  0.17510  0.93358  Biso   1.000  C
  C133     1.0000 0.76780  0.17580  0.03480  Biso   1.000  C
  C134     1.0000 0.82200  0.21480  0.14394  Biso   1.000  C
  C135     1.0000 0.21200  0.95800  0.49990  Biso   1.000  C
  H50      1.0000 0.25010  0.92330  0.49980  Biso   1.000  H
  C136     1.0000 0.68660  0.14890  0.87330  Biso   1.000  C
  C137     1.0000 0.71240  0.24990  0.80485  Biso   1.000  C
  H51      1.0000 0.76050  0.22780  0.81890  Biso   1.000  H
  C138     1.0000 0.57260  0.31590  0.76344  Biso   1.000  C
  C139     1.0000 0.69110  0.31640  0.76362  Biso   1.000  C
  C140     1.0000 0.77420  0.24410  0.16600  Biso   1.000  C
  H52      1.0000 0.72610  0.22190  0.15140  Biso   1.000  H
  C141     1.0000 0.75770  0.26030  0.01590  Biso   1.000  C
  H53      1.0000 0.76990  0.30720  0.04180  Biso   1.000  H
  C142     1.0000 0.89230  0.24410  0.16610  Biso   1.000  C
  H54      1.0000 0.92570  0.22170  0.15140  Biso   1.000  H
  C143     1.0000 0.72710  0.26030  0.95350  Biso   1.000  C
  H55      1.0000 0.71490  0.30750  0.92780  Biso   1.000  H
  C144     1.0000 0.73880  0.33900  0.23020  Biso   1.000  C
  C145     1.0000 0.62180  0.34910  0.74394  Biso   1.000  C
  H56      1.0000 0.60820  0.39480  0.71680  Biso   1.000  H
  C146     1.0000 0.91540  0.30590  0.20970  Biso   1.000  C
  C147     1.0000 0.03340  0.74120  0.49950  Biso   1.000  C
  H57      1.0000 0.06110  0.69420  0.49880  Biso   1.000  H
  C148     1.0000 0.83930  0.04130  0.17892  Biso   1.000  C
  H58      1.0000 0.85660  0.07600  0.21390  Biso   1.000  H
  C149     1.0000 0.64470  0.04150  0.79000  Biso   1.000  C
  H59      1.0000 0.62700  0.07610  0.75490  Biso   1.000  H
  C150     1.0000 0.79510  0.30620  0.20980  Biso   1.000  C
  C151     1.0000 0.74410  0.35870  0.74420  Biso   1.000  C
  C152     1.0000 0.99120  0.33830  0.23030  Biso   1.000  C
  C153     1.0000 0.31490  0.64150  0.61400  Biso   1.000  C
  C154     1.0000 0.49950  0.35920  0.74380  Biso   1.000  C
  C155     1.0000 0.20060  0.64170  0.38580  Biso   1.000  C
  C156     1.0000 0.86590  0.33770  0.23040  Biso   1.000  C
  H60      1.0000 0.88030  0.38160  0.25910  Biso   1.000  H
  O65      1.0000 0.50150  0.43280  0.71850  Biso   1.000  O
  O66      1.0000 0.37010  0.60140  0.61590  Biso   1.000  O
  O67      1.0000 0.71660  0.43370  0.71790  Biso   1.000  O
  O68      1.0000 0.25350  0.60160  0.38370  Biso   1.000  O
  O69      1.0000 0.47680  0.39960  0.69400  Biso   1.000  O
  O70      1.0000 0.71660  0.39820  0.69390  Biso   1.000  O
  O71      1.0000 0.24040  0.57180  0.40010  Biso   1.000  O
  O72      1.0000 0.33880  0.57110  0.59980  Biso   1.000  O
  Zn1      1.0000 0.99223  0.00000  0.48414  Biso   1.000  Zn
  N5       1.0000 0.10230  0.00000  0.50030  Biso   1.000  N
  Zn2      1.0000 0.00777  0.00000  0.51586  Biso   1.000  Zn
  N6       1.0000 0.89770  0.00000  0.49970  Biso   1.000  N
  Zn3      1.0000 0.72477  0.00000  0.98412  Biso   1.000  Zn
  N7       1.0000 0.78830  0.00000  0.07720  Biso   1.000  N
  N8       1.0000 0.69480  0.00000  0.89030  Biso   1.000  N
  Zn4      1.0000 0.75941  0.00000  0.98397  Biso   1.000  Zn
  Zn5      1.0000 0.27523  0.00000  0.01588  Biso   1.000  Zn
  N9       1.0000 0.21170  0.00000  0.92280  Biso   1.000  N
  N10      1.0000 0.30520  0.00000  0.10970  Biso   1.000  N
  Zn6      1.0000 0.24059  0.00000  0.01603  Biso   1.000  Zn
  Fe9      1.0000 0.41779  0.50000  0.66020  Biso   1.000  Fe
  Fe10     1.0000 0.25770  0.50000  0.33989  Biso   1.000  Fe
  O73      1.0000 0.15380  0.50000  0.28550  Biso   1.000  O
  O74      1.0000 0.36810  0.50000  0.71425  Biso   1.000  O
  C157     1.0000 0.42290  0.50000  0.86050  Biso   1.000  C
  H61      1.0000 0.44810  0.50000  0.90380  Biso   1.000  H
  C158     1.0000 0.06390  0.50000  0.13930  Biso   1.000  C
  H62      1.0000 0.04660  0.50000  0.09600  Biso   1.000  H
  Fe11     1.0000 0.58221  0.50000  0.33980  Biso   1.000  Fe
  Fe12     1.0000 0.74230  0.50000  0.66011  Biso   1.000  Fe
  O75      1.0000 0.84620  0.50000  0.71450  Biso   1.000  O
  O76      1.0000 0.63190  0.50000  0.28575  Biso   1.000  O
  C159     1.0000 0.57710  0.50000  0.13950  Biso   1.000  C
  H63      1.0000 0.55190  0.50000  0.09620  Biso   1.000  H
  C160     1.0000 0.93610  0.50000  0.86070  Biso   1.000  C
  H64      1.0000 0.95340  0.50000  0.90400  Biso   1.000  H
  N11      1.0000 0.00000  0.12580  0.50000  Biso   1.000  N
  N12      1.0000 0.00000  0.87420  0.50000  Biso   1.000  N
