data_image0
_cell_length_a       23.482
_cell_length_b       23.482
_cell_length_c       16.318
_cell_angle_alpha    90
_cell_angle_beta     90
_cell_angle_gamma    120

_symmetry_space_group_name_H-M    "P 1"
_symmetry_int_tables_number       1

loop_
  _symmetry_equiv_pos_as_xyz
  'x, y, z'

loop_
  _atom_site_label
  _atom_site_occupancy
  _atom_site_fract_x
  _atom_site_fract_y
  _atom_site_fract_z
  _atom_site_thermal_displace_type
  _atom_site_B_iso_or_equiv
  _atom_site_type_symbol
  Na1      1.0000 0.51045  0.37255  0.00301  Biso   1.000  Na
  O1       1.0000 0.76382  0.45435  0.07162  Biso   1.000  O
  O2       1.0000 0.64635  0.40030  0.94429  Biso   1.000  O
  O3       1.0000 0.67177  0.41461  0.14203  Biso   1.000  O
  O4       1.0000 0.88844  0.57012  0.89887  Biso   1.000  O
  O5       1.0000 0.57534  0.42793  0.89489  Biso   1.000  O
  O6       1.0000 0.96220  0.68640  0.31060  Biso   1.000  O
  O7       1.0000 0.96978  0.63934  0.19880  Biso   1.000  O
  O8       1.0000 0.90920  0.61190  0.76780  Biso   1.000  O
  H1       1.0000 0.96920  0.66180  0.78710  Biso   1.000  H
  N1       1.0000 0.69653  0.59674  0.51126  Biso   1.000  N
  N2       1.0000 0.64872  0.63940  0.37512  Biso   1.000  N
  C1       1.0000 0.76552  0.51118  0.19261  Biso   1.000  C
  C2       1.0000 0.68340  0.61737  0.33100  Biso   1.000  C
  C3       1.0000 0.73150  0.45665  0.13084  Biso   1.000  C
  C4       1.0000 0.67930  0.62800  0.24590  Biso   1.000  C
  H2       1.0000 0.69890  0.61680  0.20250  Biso   1.000  H
  C5       1.0000 0.72769  0.52269  0.24990  Biso   1.000  C
  H3       1.0000 0.68120  0.49580  0.25000  Biso   1.000  H
  C6       1.0000 0.71236  0.57666  0.58320  Biso   1.000  C
  C7       1.0000 0.68474  0.48675  0.84800  Biso   1.000  C
  C8       1.0000 0.71881  0.58942  0.36596  Biso   1.000  C
  C9       1.0000 0.75090  0.50864  0.86405  Biso   1.000  C
  H4       1.0000 0.76270  0.49000  0.90800  Biso   1.000  H
  C10      1.0000 0.71601  0.56071  0.73235  Biso   1.000  C
  C11      1.0000 0.66794  0.51331  0.78269  Biso   1.000  C
  H5       1.0000 0.62290  0.49890  0.77220  Biso   1.000  H
  C12      1.0000 0.72320  0.57864  0.44900  Biso   1.000  C
  C13      1.0000 0.75854  0.57354  0.30660  Biso   1.000  C
  C14      1.0000 0.78197  0.58311  0.75029  Biso   1.000  C
  H6       1.0000 0.81540  0.61630  0.71720  Biso   1.000  H
  C15      1.0000 0.75416  0.54417  0.48210  Biso   1.000  C
  H7       1.0000 0.77580  0.52590  0.45180  Biso   1.000  H
  C16      1.0000 0.69562  0.58737  0.66170  Biso   1.000  C
  C17      1.0000 0.83277  0.54860  0.19550  Biso   1.000  C
  H8       1.0000 0.85850  0.54090  0.15700  Biso   1.000  H
  C18      1.0000 0.64194  0.65740  0.23820  Biso   1.000  C
  H9       1.0000 0.63080  0.67070  0.18860  Biso   1.000  H
  C19      1.0000 0.74684  0.54248  0.56440  Biso   1.000  C
  H10      1.0000 0.76180  0.52230  0.60260  Biso   1.000  H
  C20      1.0000 0.82475  0.60884  0.31040  Biso   1.000  C
  H11      1.0000 0.84530  0.64160  0.35150  Biso   1.000  H
  C21      1.0000 0.63189  0.43456  0.90000  Biso   1.000  C
  C22      1.0000 0.93710  0.64030  0.25840  Biso   1.000  C
  C23      1.0000 0.79917  0.55730  0.81620  Biso   1.000  C
  C24      1.0000 0.86386  0.59781  0.25420  Biso   1.000  C
  C25      1.0000 0.62289  0.66429  0.31900  Biso   1.000  C
  C26      1.0000 0.87009  0.58380  0.83730  Biso   1.000  C
  O9       1.0000 0.96050  0.66070  0.33120  Biso   1.000  O
  O10      1.0000 0.90960  0.63330  0.79040  Biso   1.000  O
  Na2      1.0000 0.62745  0.13790  0.00301  Biso   1.000  Na
  O11      1.0000 0.54565  0.30947  0.07162  Biso   1.000  O
  O12      1.0000 0.59970  0.24605  0.94429  Biso   1.000  O
  O13      1.0000 0.58539  0.25716  0.14203  Biso   1.000  O
  O14      1.0000 0.42988  0.31832  0.89887  Biso   1.000  O
  O15      1.0000 0.57207  0.14741  0.89489  Biso   1.000  O
  O16      1.0000 0.31360  0.27580  0.31060  Biso   1.000  O
  O17      1.0000 0.36066  0.33044  0.19880  Biso   1.000  O
  O18      1.0000 0.38810  0.29730  0.76780  Biso   1.000  O
  H12      1.0000 0.33820  0.30740  0.78710  Biso   1.000  H
  N3       1.0000 0.40326  0.09979  0.51126  Biso   1.000  N
  N4       1.0000 0.36060  0.00932  0.37512  Biso   1.000  N
  C27      1.0000 0.48882  0.25434  0.19261  Biso   1.000  C
  C28      1.0000 0.38263  0.06603  0.33100  Biso   1.000  C
  C29      1.0000 0.54335  0.27485  0.13084  Biso   1.000  C
  C30      1.0000 0.37200  0.05130  0.24590  Biso   1.000  C
  H13      1.0000 0.38320  0.08210  0.20250  Biso   1.000  H
  C31      1.0000 0.47731  0.20500  0.24990  Biso   1.000  C
  H14      1.0000 0.50420  0.18540  0.25000  Biso   1.000  H
  C32      1.0000 0.42334  0.13570  0.58320  Biso   1.000  C
  C33      1.0000 0.51325  0.19799  0.84800  Biso   1.000  C
  C34      1.0000 0.41058  0.12939  0.36596  Biso   1.000  C
  C35      1.0000 0.49136  0.24226  0.86405  Biso   1.000  C
  H15      1.0000 0.51000  0.27270  0.90800  Biso   1.000  H
  C36      1.0000 0.43929  0.15530  0.73235  Biso   1.000  C
  C37      1.0000 0.48669  0.15463  0.78269  Biso   1.000  C
  H16      1.0000 0.50110  0.12400  0.77220  Biso   1.000  H
  C38      1.0000 0.42136  0.14456  0.44900  Biso   1.000  C
  C39      1.0000 0.42646  0.18500  0.30660  Biso   1.000  C
  C40      1.0000 0.41689  0.19886  0.75029  Biso   1.000  C
  H17      1.0000 0.38370  0.19910  0.71720  Biso   1.000  H
  C41      1.0000 0.45583  0.20999  0.48210  Biso   1.000  C
  H18      1.0000 0.47410  0.24990  0.45180  Biso   1.000  H
  C42      1.0000 0.41263  0.10825  0.66170  Biso   1.000  C
  C43      1.0000 0.45140  0.28417  0.19550  Biso   1.000  C
  H19      1.0000 0.45910  0.31760  0.15700  Biso   1.000  H
  C44      1.0000 0.34260  0.98454  0.23820  Biso   1.000  C
  H20      1.0000 0.32930  0.96010  0.18860  Biso   1.000  H
  C45      1.0000 0.45752  0.20436  0.56440  Biso   1.000  C
  H21      1.0000 0.47770  0.23950  0.60260  Biso   1.000  H
  C46      1.0000 0.39116  0.21591  0.31040  Biso   1.000  C
  H22      1.0000 0.35840  0.20370  0.35150  Biso   1.000  H
  C47      1.0000 0.56544  0.19733  0.90000  Biso   1.000  C
  C48      1.0000 0.35970  0.29680  0.25840  Biso   1.000  C
  C49      1.0000 0.44270  0.24187  0.81620  Biso   1.000  C
  C50      1.0000 0.40219  0.26605  0.25420  Biso   1.000  C
  C51      1.0000 0.33571  0.95860  0.31900  Biso   1.000  C
  C52      1.0000 0.41620  0.28629  0.83730  Biso   1.000  C
  O19      1.0000 0.33930  0.29980  0.33120  Biso   1.000  O
  O20      1.0000 0.36670  0.27630  0.79040  Biso   1.000  O
  Na3      1.0000 0.86210  0.48955  0.00301  Biso   1.000  Na
  O21      1.0000 0.69053  0.23618  0.07162  Biso   1.000  O
  O22      1.0000 0.75395  0.35365  0.94429  Biso   1.000  O
  O23      1.0000 0.74284  0.32823  0.14203  Biso   1.000  O
  O24      1.0000 0.68168  0.11156  0.89887  Biso   1.000  O
  O25      1.0000 0.85259  0.42466  0.89489  Biso   1.000  O
  O26      1.0000 0.72420  0.03780  0.31060  Biso   1.000  O
  O27      1.0000 0.66956  0.03022  0.19880  Biso   1.000  O
  O28      1.0000 0.70270  0.09080  0.76780  Biso   1.000  O
  H23      1.0000 0.69260  0.03080  0.78710  Biso   1.000  H
  N5       1.0000 0.90021  0.30347  0.51126  Biso   1.000  N
  N6       1.0000 0.99068  0.35128  0.37512  Biso   1.000  N
  C53      1.0000 0.74566  0.23448  0.19261  Biso   1.000  C
  C54      1.0000 0.93397  0.31660  0.33100  Biso   1.000  C
  C55      1.0000 0.72515  0.26850  0.13084  Biso   1.000  C
  C56      1.0000 0.94870  0.32070  0.24590  Biso   1.000  C
  H24      1.0000 0.91790  0.30110  0.20250  Biso   1.000  H
  C57      1.0000 0.79500  0.27231  0.24990  Biso   1.000  C
  H25      1.0000 0.81460  0.31880  0.25000  Biso   1.000  H
  C58      1.0000 0.86430  0.28764  0.58320  Biso   1.000  C
  C59      1.0000 0.80201  0.31526  0.84800  Biso   1.000  C
  C60      1.0000 0.87061  0.28119  0.36596  Biso   1.000  C
  C61      1.0000 0.75774  0.24910  0.86405  Biso   1.000  C
  H26      1.0000 0.72730  0.23730  0.90800  Biso   1.000  H
  C62      1.0000 0.84470  0.28399  0.73235  Biso   1.000  C
  C63      1.0000 0.84537  0.33206  0.78269  Biso   1.000  C
  H27      1.0000 0.87600  0.37710  0.77220  Biso   1.000  H
  C64      1.0000 0.85544  0.27680  0.44900  Biso   1.000  C
  C65      1.0000 0.81500  0.24146  0.30660  Biso   1.000  C
  C66      1.0000 0.80114  0.21803  0.75029  Biso   1.000  C
  H28      1.0000 0.80090  0.18460  0.71720  Biso   1.000  H
  C67      1.0000 0.79001  0.24584  0.48210  Biso   1.000  C
  H29      1.0000 0.75010  0.22420  0.45180  Biso   1.000  H
  C68      1.0000 0.89175  0.30438  0.66170  Biso   1.000  C
  C69      1.0000 0.71583  0.16723  0.19550  Biso   1.000  C
  H30      1.0000 0.68240  0.14150  0.15700  Biso   1.000  H
  C70      1.0000 0.01546  0.35806  0.23820  Biso   1.000  C
  H31      1.0000 0.03990  0.36920  0.18860  Biso   1.000  H
  C71      1.0000 0.79564  0.25316  0.56440  Biso   1.000  C
  H32      1.0000 0.76050  0.23820  0.60260  Biso   1.000  H
  C72      1.0000 0.78409  0.17525  0.31040  Biso   1.000  C
  H33      1.0000 0.79630  0.15470  0.35150  Biso   1.000  H
  C73      1.0000 0.80267  0.36811  0.90000  Biso   1.000  C
  C74      1.0000 0.70320  0.06290  0.25840  Biso   1.000  C
  C75      1.0000 0.75813  0.20083  0.81620  Biso   1.000  C
  C76      1.0000 0.73395  0.13614  0.25420  Biso   1.000  C
  C77      1.0000 0.04140  0.37711  0.31900  Biso   1.000  C
  C78      1.0000 0.71371  0.12991  0.83730  Biso   1.000  C
  O29      1.0000 0.70020  0.03950  0.33120  Biso   1.000  O
  O30      1.0000 0.72370  0.09040  0.79040  Biso   1.000  O
  Na4      1.0000 0.37255  0.51045  0.99699  Biso   1.000  Na
  O31      1.0000 0.45435  0.76382  0.92838  Biso   1.000  O
  O32      1.0000 0.40030  0.64635  0.05571  Biso   1.000  O
  O33      1.0000 0.41461  0.67177  0.85797  Biso   1.000  O
  O34      1.0000 0.57012  0.88844  0.10113  Biso   1.000  O
  O35      1.0000 0.42793  0.57534  0.10511  Biso   1.000  O
  O36      1.0000 0.68640  0.96220  0.68940  Biso   1.000  O
  O37      1.0000 0.63934  0.96978  0.80120  Biso   1.000  O
  O38      1.0000 0.61190  0.90920  0.23220  Biso   1.000  O
  H34      1.0000 0.66180  0.96920  0.21290  Biso   1.000  H
  N7       1.0000 0.59674  0.69653  0.48874  Biso   1.000  N
  N8       1.0000 0.63940  0.64872  0.62488  Biso   1.000  N
  C79      1.0000 0.51118  0.76552  0.80739  Biso   1.000  C
  C80      1.0000 0.61737  0.68340  0.66900  Biso   1.000  C
  C81      1.0000 0.45665  0.73150  0.86916  Biso   1.000  C
  C82      1.0000 0.62800  0.67930  0.75410  Biso   1.000  C
  H35      1.0000 0.61680  0.69890  0.79750  Biso   1.000  H
  C83      1.0000 0.52269  0.72769  0.75010  Biso   1.000  C
  H36      1.0000 0.49580  0.68120  0.75000  Biso   1.000  H
  C84      1.0000 0.57666  0.71236  0.41680  Biso   1.000  C
  C85      1.0000 0.48675  0.68474  0.15200  Biso   1.000  C
  C86      1.0000 0.58942  0.71881  0.63404  Biso   1.000  C
  C87      1.0000 0.50864  0.75090  0.13595  Biso   1.000  C
  H37      1.0000 0.49000  0.76270  0.09200  Biso   1.000  H
  C88      1.0000 0.56071  0.71601  0.26765  Biso   1.000  C
  C89      1.0000 0.51331  0.66794  0.21731  Biso   1.000  C
  H38      1.0000 0.49890  0.62290  0.22780  Biso   1.000  H
  C90      1.0000 0.57864  0.72320  0.55100  Biso   1.000  C
  C91      1.0000 0.57354  0.75854  0.69340  Biso   1.000  C
  C92      1.0000 0.58311  0.78197  0.24971  Biso   1.000  C
  H39      1.0000 0.61630  0.81540  0.28280  Biso   1.000  H
  C93      1.0000 0.54417  0.75416  0.51790  Biso   1.000  C
  H40      1.0000 0.52590  0.77580  0.54820  Biso   1.000  H
  C94      1.0000 0.58737  0.69562  0.33830  Biso   1.000  C
  C95      1.0000 0.54860  0.83277  0.80450  Biso   1.000  C
  H41      1.0000 0.54090  0.85850  0.84300  Biso   1.000  H
  C96      1.0000 0.65740  0.64194  0.76180  Biso   1.000  C
  H42      1.0000 0.67070  0.63080  0.81140  Biso   1.000  H
  C97      1.0000 0.54248  0.74684  0.43560  Biso   1.000  C
  H43      1.0000 0.52230  0.76180  0.39740  Biso   1.000  H
  C98      1.0000 0.60884  0.82475  0.68960  Biso   1.000  C
  H44      1.0000 0.64160  0.84530  0.64850  Biso   1.000  H
  C99      1.0000 0.43456  0.63189  0.10000  Biso   1.000  C
  C100     1.0000 0.64030  0.93710  0.74160  Biso   1.000  C
  C101     1.0000 0.55730  0.79917  0.18380  Biso   1.000  C
  C102     1.0000 0.59781  0.86386  0.74580  Biso   1.000  C
  C103     1.0000 0.66429  0.62289  0.68100  Biso   1.000  C
  C104     1.0000 0.58380  0.87009  0.16270  Biso   1.000  C
  O39      1.0000 0.66070  0.96050  0.66880  Biso   1.000  O
  O40      1.0000 0.63330  0.90960  0.20960  Biso   1.000  O
  Na5      1.0000 0.13790  0.62745  0.99699  Biso   1.000  Na
  O41      1.0000 0.30947  0.54565  0.92838  Biso   1.000  O
  O42      1.0000 0.24605  0.59970  0.05571  Biso   1.000  O
  O43      1.0000 0.25716  0.58539  0.85797  Biso   1.000  O
  O44      1.0000 0.31832  0.42988  0.10113  Biso   1.000  O
  O45      1.0000 0.14741  0.57207  0.10511  Biso   1.000  O
  O46      1.0000 0.27580  0.31360  0.68940  Biso   1.000  O
  O47      1.0000 0.33044  0.36066  0.80120  Biso   1.000  O
  O48      1.0000 0.29730  0.38810  0.23220  Biso   1.000  O
  H45      1.0000 0.30740  0.33820  0.21290  Biso   1.000  H
  N9       1.0000 0.09979  0.40326  0.48874  Biso   1.000  N
  N10      1.0000 0.00932  0.36060  0.62488  Biso   1.000  N
  C105     1.0000 0.25434  0.48882  0.80739  Biso   1.000  C
  C106     1.0000 0.06603  0.38263  0.66900  Biso   1.000  C
  C107     1.0000 0.27485  0.54335  0.86916  Biso   1.000  C
  C108     1.0000 0.05130  0.37200  0.75410  Biso   1.000  C
  H46      1.0000 0.08210  0.38320  0.79750  Biso   1.000  H
  C109     1.0000 0.20500  0.47731  0.75010  Biso   1.000  C
  H47      1.0000 0.18540  0.50420  0.75000  Biso   1.000  H
  C110     1.0000 0.13570  0.42334  0.41680  Biso   1.000  C
  C111     1.0000 0.19799  0.51325  0.15200  Biso   1.000  C
  C112     1.0000 0.12939  0.41058  0.63404  Biso   1.000  C
  C113     1.0000 0.24226  0.49136  0.13595  Biso   1.000  C
  H48      1.0000 0.27270  0.51000  0.09200  Biso   1.000  H
  C114     1.0000 0.15530  0.43929  0.26765  Biso   1.000  C
  C115     1.0000 0.15463  0.48669  0.21731  Biso   1.000  C
  H49      1.0000 0.12400  0.50110  0.22780  Biso   1.000  H
  C116     1.0000 0.14456  0.42136  0.55100  Biso   1.000  C
  C117     1.0000 0.18500  0.42646  0.69340  Biso   1.000  C
  C118     1.0000 0.19886  0.41689  0.24971  Biso   1.000  C
  H50      1.0000 0.19910  0.38370  0.28280  Biso   1.000  H
  C119     1.0000 0.20999  0.45583  0.51790  Biso   1.000  C
  H51      1.0000 0.24990  0.47410  0.54820  Biso   1.000  H
  C120     1.0000 0.10825  0.41263  0.33830  Biso   1.000  C
  C121     1.0000 0.28417  0.45140  0.80450  Biso   1.000  C
  H52      1.0000 0.31760  0.45910  0.84300  Biso   1.000  H
  C122     1.0000 0.98454  0.34260  0.76180  Biso   1.000  C
  H53      1.0000 0.96010  0.32930  0.81140  Biso   1.000  H
  C123     1.0000 0.20436  0.45752  0.43560  Biso   1.000  C
  H54      1.0000 0.23950  0.47770  0.39740  Biso   1.000  H
  C124     1.0000 0.21591  0.39116  0.68960  Biso   1.000  C
  H55      1.0000 0.20370  0.35840  0.64850  Biso   1.000  H
  C125     1.0000 0.19733  0.56544  0.10000  Biso   1.000  C
  C126     1.0000 0.29680  0.35970  0.74160  Biso   1.000  C
  C127     1.0000 0.24187  0.44270  0.18380  Biso   1.000  C
  C128     1.0000 0.26605  0.40219  0.74580  Biso   1.000  C
  C129     1.0000 0.95860  0.33571  0.68100  Biso   1.000  C
  C130     1.0000 0.28629  0.41620  0.16270  Biso   1.000  C
  O49      1.0000 0.29980  0.33930  0.66880  Biso   1.000  O
  O50      1.0000 0.27630  0.36670  0.20960  Biso   1.000  O
  Na6      1.0000 0.48955  0.86210  0.99699  Biso   1.000  Na
  O51      1.0000 0.23618  0.69053  0.92838  Biso   1.000  O
  O52      1.0000 0.35365  0.75395  0.05571  Biso   1.000  O
  O53      1.0000 0.32823  0.74284  0.85797  Biso   1.000  O
  O54      1.0000 0.11156  0.68168  0.10113  Biso   1.000  O
  O55      1.0000 0.42466  0.85259  0.10511  Biso   1.000  O
  O56      1.0000 0.03780  0.72420  0.68940  Biso   1.000  O
  O57      1.0000 0.03022  0.66956  0.80120  Biso   1.000  O
  O58      1.0000 0.09080  0.70270  0.23220  Biso   1.000  O
  H56      1.0000 0.03080  0.69260  0.21290  Biso   1.000  H
  N11      1.0000 0.30347  0.90021  0.48874  Biso   1.000  N
  N12      1.0000 0.35128  0.99068  0.62488  Biso   1.000  N
  C131     1.0000 0.23448  0.74566  0.80739  Biso   1.000  C
  C132     1.0000 0.31660  0.93397  0.66900  Biso   1.000  C
  C133     1.0000 0.26850  0.72515  0.86916  Biso   1.000  C
  C134     1.0000 0.32070  0.94870  0.75410  Biso   1.000  C
  H57      1.0000 0.30110  0.91790  0.79750  Biso   1.000  H
  C135     1.0000 0.27231  0.79500  0.75010  Biso   1.000  C
  H58      1.0000 0.31880  0.81460  0.75000  Biso   1.000  H
  C136     1.0000 0.28764  0.86430  0.41680  Biso   1.000  C
  C137     1.0000 0.31526  0.80201  0.15200  Biso   1.000  C
  C138     1.0000 0.28119  0.87061  0.63404  Biso   1.000  C
  C139     1.0000 0.24910  0.75774  0.13595  Biso   1.000  C
  H59      1.0000 0.23730  0.72730  0.09200  Biso   1.000  H
  C140     1.0000 0.28399  0.84470  0.26765  Biso   1.000  C
  C141     1.0000 0.33206  0.84537  0.21731  Biso   1.000  C
  H60      1.0000 0.37710  0.87600  0.22780  Biso   1.000  H
  C142     1.0000 0.27680  0.85544  0.55100  Biso   1.000  C
  C143     1.0000 0.24146  0.81500  0.69340  Biso   1.000  C
  C144     1.0000 0.21803  0.80114  0.24971  Biso   1.000  C
  H61      1.0000 0.18460  0.80090  0.28280  Biso   1.000  H
  C145     1.0000 0.24584  0.79001  0.51790  Biso   1.000  C
  H62      1.0000 0.22420  0.75010  0.54820  Biso   1.000  H
  C146     1.0000 0.30438  0.89175  0.33830  Biso   1.000  C
  C147     1.0000 0.16723  0.71583  0.80450  Biso   1.000  C
  H63      1.0000 0.14150  0.68240  0.84300  Biso   1.000  H
  C148     1.0000 0.35806  0.01546  0.76180  Biso   1.000  C
  H64      1.0000 0.36920  0.03990  0.81140  Biso   1.000  H
  C149     1.0000 0.25316  0.79564  0.43560  Biso   1.000  C
  H65      1.0000 0.23820  0.76050  0.39740  Biso   1.000  H
  C150     1.0000 0.17525  0.78409  0.68960  Biso   1.000  C
  H66      1.0000 0.15470  0.79630  0.64850  Biso   1.000  H
  C151     1.0000 0.36811  0.80267  0.10000  Biso   1.000  C
  C152     1.0000 0.06290  0.70320  0.74160  Biso   1.000  C
  C153     1.0000 0.20083  0.75813  0.18380  Biso   1.000  C
  C154     1.0000 0.13614  0.73395  0.74580  Biso   1.000  C
  C155     1.0000 0.37711  0.04140  0.68100  Biso   1.000  C
  C156     1.0000 0.12991  0.71371  0.16270  Biso   1.000  C
  O59      1.0000 0.03950  0.70020  0.66880  Biso   1.000  O
  O60      1.0000 0.09040  0.72370  0.20960  Biso   1.000  O
  Pr1      1.0000 0.66667  0.33333  0.03450  Biso   1.000  Pr
  Pr2      1.0000 0.33333  0.66667  0.96550  Biso   1.000  Pr
  Zn1      1.0000 0.63129  0.63129  0.50000  Biso   1.000  Zn
  Zn2      1.0000 0.36871  0.00000  0.50000  Biso   1.000  Zn
  Zn3      1.0000 0.00000  0.36871  0.50000  Biso   1.000  Zn
