data_image0
_cell_length_a       28.965
_cell_length_b       28.965
_cell_length_c       12.4113
_cell_angle_alpha    90
_cell_angle_beta     90
_cell_angle_gamma    90

_symmetry_space_group_name_H-M    "P 1"
_symmetry_int_tables_number       1

loop_
  _symmetry_equiv_pos_as_xyz
  'x, y, z'

loop_
  _atom_site_label
  _atom_site_occupancy
  _atom_site_fract_x
  _atom_site_fract_y
  _atom_site_fract_z
  _atom_site_thermal_displace_type
  _atom_site_B_iso_or_equiv
  _atom_site_type_symbol
  Na1      1.0000 0.70441  0.00001  0.99999  Biso   1.000  Na
  O1       1.0000 0.74397  0.05452  0.55949  Biso   1.000  O
  O2       1.0000 0.69561  0.00619  0.19024  Biso   1.000  O
  O3       1.0000 0.69572  0.09579  0.65398  Biso   1.000  O
  O4       1.0000 0.65419  0.05428  0.09597  Biso   1.000  O
  N1       1.0000 0.50008  0.17966  0.37113  Biso   1.000  N
  C1       1.0000 0.62059  0.12946  0.37501  Biso   1.000  C
  C2       1.0000 0.59859  0.21210  0.37738  Biso   1.000  C
  C3       1.0000 0.53795  0.15153  0.37276  Biso   1.000  C
  C4       1.0000 0.58383  0.16618  0.37502  Biso   1.000  C
  C5       1.0000 0.68821  0.06182  0.37510  Biso   1.000  C
  H1       1.0000 0.71140  0.03860  0.37520  Biso   1.000  H
  C6       1.0000 0.64601  0.12097  0.46617  Biso   1.000  C
  H2       1.0000 0.64010  0.13830  0.52960  Biso   1.000  H
  C7       1.0000 0.62902  0.10405  0.28324  Biso   1.000  C
  H3       1.0000 0.61170  0.11000  0.21980  Biso   1.000  H
  C8       1.0000 0.66294  0.06943  0.28254  Biso   1.000  C
  C9       1.0000 0.68050  0.08710  0.46716  Biso   1.000  C
  C10      1.0000 0.47678  0.10365  0.37377  Biso   1.000  C
  H4       1.0000 0.45730  0.07730  0.37450  Biso   1.000  H
  C11      1.0000 0.52323  0.10367  0.37367  Biso   1.000  C
  H5       1.0000 0.54270  0.07730  0.37410  Biso   1.000  H
  C12      1.0000 0.70869  0.07891  0.56726  Biso   1.000  C
  C13      1.0000 0.67119  0.04145  0.18245  Biso   1.000  C
  Na2      1.0000 0.20441  0.50001  0.49999  Biso   1.000  Na
  O5       1.0000 0.24397  0.55452  0.05949  Biso   1.000  O
  O6       1.0000 0.19561  0.50619  0.69024  Biso   1.000  O
  O7       1.0000 0.19572  0.59579  0.15398  Biso   1.000  O
  O8       1.0000 0.15419  0.55428  0.59597  Biso   1.000  O
  N2       1.0000 0.00008  0.67966  0.87113  Biso   1.000  N
  C14      1.0000 0.12059  0.62946  0.87501  Biso   1.000  C
  C15      1.0000 0.09859  0.71210  0.87738  Biso   1.000  C
  C16      1.0000 0.03795  0.65153  0.87276  Biso   1.000  C
  C17      1.0000 0.08383  0.66618  0.87502  Biso   1.000  C
  C18      1.0000 0.18821  0.56182  0.87510  Biso   1.000  C
  H6       1.0000 0.21140  0.53860  0.87520  Biso   1.000  H
  C19      1.0000 0.14601  0.62097  0.96617  Biso   1.000  C
  H7       1.0000 0.14010  0.63830  0.02960  Biso   1.000  H
  C20      1.0000 0.12902  0.60405  0.78324  Biso   1.000  C
  H8       1.0000 0.11170  0.61000  0.71980  Biso   1.000  H
  C21      1.0000 0.16294  0.56943  0.78254  Biso   1.000  C
  C22      1.0000 0.18050  0.58710  0.96716  Biso   1.000  C
  C23      1.0000 0.97678  0.60365  0.87377  Biso   1.000  C
  H9       1.0000 0.95730  0.57730  0.87450  Biso   1.000  H
  C24      1.0000 0.02323  0.60367  0.87367  Biso   1.000  C
  H10      1.0000 0.04270  0.57730  0.87410  Biso   1.000  H
  C25      1.0000 0.20869  0.57891  0.06726  Biso   1.000  C
  C26      1.0000 0.17119  0.54145  0.68245  Biso   1.000  C
  Na3      1.0000 0.79559  0.99999  0.49999  Biso   1.000  Na
  O9       1.0000 0.75603  0.94548  0.05949  Biso   1.000  O
  O10      1.0000 0.80439  0.99381  0.69024  Biso   1.000  O
  O11      1.0000 0.80428  0.90421  0.15398  Biso   1.000  O
  O12      1.0000 0.84581  0.94572  0.59597  Biso   1.000  O
  N3       1.0000 0.99992  0.82034  0.87113  Biso   1.000  N
  C27      1.0000 0.87941  0.87054  0.87501  Biso   1.000  C
  C28      1.0000 0.90141  0.78790  0.87738  Biso   1.000  C
  C29      1.0000 0.96205  0.84847  0.87276  Biso   1.000  C
  C30      1.0000 0.91617  0.83382  0.87502  Biso   1.000  C
  C31      1.0000 0.81179  0.93818  0.87510  Biso   1.000  C
  H11      1.0000 0.78860  0.96140  0.87520  Biso   1.000  H
  C32      1.0000 0.85399  0.87903  0.96617  Biso   1.000  C
  H12      1.0000 0.85990  0.86170  0.02960  Biso   1.000  H
  C33      1.0000 0.87098  0.89595  0.78324  Biso   1.000  C
  H13      1.0000 0.88830  0.89000  0.71980  Biso   1.000  H
  C34      1.0000 0.83706  0.93057  0.78254  Biso   1.000  C
  C35      1.0000 0.81950  0.91290  0.96716  Biso   1.000  C
  C36      1.0000 0.02322  0.89635  0.87377  Biso   1.000  C
  H14      1.0000 0.04270  0.92270  0.87450  Biso   1.000  H
  C37      1.0000 0.97677  0.89633  0.87367  Biso   1.000  C
  H15      1.0000 0.95730  0.92270  0.87410  Biso   1.000  H
  C38      1.0000 0.79131  0.92109  0.06726  Biso   1.000  C
  C39      1.0000 0.82881  0.95855  0.68245  Biso   1.000  C
  Na4      1.0000 0.29559  0.49999  0.99999  Biso   1.000  Na
  O13      1.0000 0.25603  0.44548  0.55949  Biso   1.000  O
  O14      1.0000 0.30439  0.49381  0.19024  Biso   1.000  O
  O15      1.0000 0.30428  0.40421  0.65398  Biso   1.000  O
  O16      1.0000 0.34581  0.44572  0.09597  Biso   1.000  O
  N4       1.0000 0.49992  0.32034  0.37113  Biso   1.000  N
  C40      1.0000 0.37941  0.37054  0.37501  Biso   1.000  C
  C41      1.0000 0.40141  0.28790  0.37738  Biso   1.000  C
  C42      1.0000 0.46205  0.34847  0.37276  Biso   1.000  C
  C43      1.0000 0.41617  0.33382  0.37502  Biso   1.000  C
  C44      1.0000 0.31179  0.43818  0.37510  Biso   1.000  C
  H16      1.0000 0.28860  0.46140  0.37520  Biso   1.000  H
  C45      1.0000 0.35399  0.37903  0.46617  Biso   1.000  C
  H17      1.0000 0.35990  0.36170  0.52960  Biso   1.000  H
  C46      1.0000 0.37098  0.39595  0.28324  Biso   1.000  C
  H18      1.0000 0.38830  0.39000  0.21980  Biso   1.000  H
  C47      1.0000 0.33706  0.43057  0.28254  Biso   1.000  C
  C48      1.0000 0.31950  0.41290  0.46716  Biso   1.000  C
  C49      1.0000 0.52322  0.39635  0.37377  Biso   1.000  C
  H19      1.0000 0.54270  0.42270  0.37450  Biso   1.000  H
  C50      1.0000 0.47677  0.39633  0.37367  Biso   1.000  C
  H20      1.0000 0.45730  0.42270  0.37410  Biso   1.000  H
  C51      1.0000 0.29131  0.42109  0.56726  Biso   1.000  C
  C52      1.0000 0.32881  0.45855  0.18245  Biso   1.000  C
  Na5      1.0000 0.74999  0.95441  0.24999  Biso   1.000  Na
  O17      1.0000 0.69548  0.99397  0.80949  Biso   1.000  O
  O18      1.0000 0.74381  0.94561  0.44024  Biso   1.000  O
  O19      1.0000 0.65421  0.94572  0.90398  Biso   1.000  O
  O20      1.0000 0.69572  0.90419  0.34597  Biso   1.000  O
  N5       1.0000 0.57034  0.75008  0.62113  Biso   1.000  N
  C53      1.0000 0.62054  0.87059  0.62501  Biso   1.000  C
  C54      1.0000 0.53790  0.84859  0.62738  Biso   1.000  C
  C55      1.0000 0.59847  0.78795  0.62276  Biso   1.000  C
  C56      1.0000 0.58382  0.83383  0.62502  Biso   1.000  C
  C57      1.0000 0.68818  0.93821  0.62510  Biso   1.000  C
  H21      1.0000 0.71140  0.96140  0.62520  Biso   1.000  H
  C58      1.0000 0.62903  0.89601  0.71617  Biso   1.000  C
  H22      1.0000 0.61170  0.89010  0.77960  Biso   1.000  H
  C59      1.0000 0.64595  0.87902  0.53324  Biso   1.000  C
  H23      1.0000 0.64000  0.86170  0.46980  Biso   1.000  H
  C60      1.0000 0.68057  0.91294  0.53254  Biso   1.000  C
  C61      1.0000 0.66290  0.93050  0.71716  Biso   1.000  C
  C62      1.0000 0.64635  0.72678  0.62377  Biso   1.000  C
  H24      1.0000 0.67270  0.70730  0.62450  Biso   1.000  H
  C63      1.0000 0.64633  0.77323  0.62367  Biso   1.000  C
  H25      1.0000 0.67270  0.79270  0.62410  Biso   1.000  H
  C64      1.0000 0.67109  0.95869  0.81726  Biso   1.000  C
  C65      1.0000 0.70855  0.92119  0.43245  Biso   1.000  C
  Na6      1.0000 0.24999  0.45441  0.74999  Biso   1.000  Na
  O21      1.0000 0.19548  0.49397  0.30949  Biso   1.000  O
  O22      1.0000 0.24381  0.44561  0.94024  Biso   1.000  O
  O23      1.0000 0.15421  0.44572  0.40398  Biso   1.000  O
  O24      1.0000 0.19572  0.40419  0.84597  Biso   1.000  O
  N6       1.0000 0.07034  0.25008  0.12113  Biso   1.000  N
  C66      1.0000 0.12054  0.37059  0.12501  Biso   1.000  C
  C67      1.0000 0.03790  0.34859  0.12738  Biso   1.000  C
  C68      1.0000 0.09847  0.28795  0.12276  Biso   1.000  C
  C69      1.0000 0.08382  0.33383  0.12502  Biso   1.000  C
  C70      1.0000 0.18818  0.43821  0.12510  Biso   1.000  C
  H26      1.0000 0.21140  0.46140  0.12520  Biso   1.000  H
  C71      1.0000 0.12903  0.39601  0.21617  Biso   1.000  C
  H27      1.0000 0.11170  0.39010  0.27960  Biso   1.000  H
  C72      1.0000 0.14595  0.37902  0.03324  Biso   1.000  C
  H28      1.0000 0.14000  0.36170  0.96980  Biso   1.000  H
  C73      1.0000 0.18057  0.41294  0.03254  Biso   1.000  C
  C74      1.0000 0.16290  0.43050  0.21716  Biso   1.000  C
  C75      1.0000 0.14635  0.22678  0.12377  Biso   1.000  C
  H29      1.0000 0.17270  0.20730  0.12450  Biso   1.000  H
  C76      1.0000 0.14633  0.27323  0.12367  Biso   1.000  C
  H30      1.0000 0.17270  0.29270  0.12410  Biso   1.000  H
  C77      1.0000 0.17109  0.45869  0.31726  Biso   1.000  C
  C78      1.0000 0.20855  0.42119  0.93245  Biso   1.000  C
  Na7      1.0000 0.75001  0.04559  0.74999  Biso   1.000  Na
  O25      1.0000 0.80452  0.00603  0.30949  Biso   1.000  O
  O26      1.0000 0.75619  0.05439  0.94024  Biso   1.000  O
  O27      1.0000 0.84579  0.05428  0.40398  Biso   1.000  O
  O28      1.0000 0.80428  0.09581  0.84597  Biso   1.000  O
  N7       1.0000 0.92966  0.24992  0.12113  Biso   1.000  N
  C79      1.0000 0.87946  0.12941  0.12501  Biso   1.000  C
  C80      1.0000 0.96210  0.15141  0.12738  Biso   1.000  C
  C81      1.0000 0.90153  0.21205  0.12276  Biso   1.000  C
  C82      1.0000 0.91618  0.16617  0.12502  Biso   1.000  C
  C83      1.0000 0.81182  0.06179  0.12510  Biso   1.000  C
  H31      1.0000 0.78860  0.03860  0.12520  Biso   1.000  H
  C84      1.0000 0.87097  0.10399  0.21617  Biso   1.000  C
  H32      1.0000 0.88830  0.10990  0.27960  Biso   1.000  H
  C85      1.0000 0.85405  0.12098  0.03324  Biso   1.000  C
  H33      1.0000 0.86000  0.13830  0.96980  Biso   1.000  H
  C86      1.0000 0.81943  0.08706  0.03254  Biso   1.000  C
  C87      1.0000 0.83710  0.06950  0.21716  Biso   1.000  C
  C88      1.0000 0.85365  0.27322  0.12377  Biso   1.000  C
  H34      1.0000 0.82730  0.29270  0.12450  Biso   1.000  H
  C89      1.0000 0.85367  0.22677  0.12367  Biso   1.000  C
  H35      1.0000 0.82730  0.20730  0.12410  Biso   1.000  H
  C90      1.0000 0.82891  0.04131  0.31726  Biso   1.000  C
  C91      1.0000 0.79145  0.07881  0.93245  Biso   1.000  C
  Na8      1.0000 0.25001  0.54559  0.24999  Biso   1.000  Na
  O29      1.0000 0.30452  0.50603  0.80949  Biso   1.000  O
  O30      1.0000 0.25619  0.55439  0.44024  Biso   1.000  O
  O31      1.0000 0.34579  0.55428  0.90398  Biso   1.000  O
  O32      1.0000 0.30428  0.59581  0.34597  Biso   1.000  O
  N8       1.0000 0.42966  0.74992  0.62113  Biso   1.000  N
  C92      1.0000 0.37946  0.62941  0.62501  Biso   1.000  C
  C93      1.0000 0.46210  0.65141  0.62738  Biso   1.000  C
  C94      1.0000 0.40153  0.71205  0.62276  Biso   1.000  C
  C95      1.0000 0.41618  0.66617  0.62502  Biso   1.000  C
  C96      1.0000 0.31182  0.56179  0.62510  Biso   1.000  C
  H36      1.0000 0.28860  0.53860  0.62520  Biso   1.000  H
  C97      1.0000 0.37097  0.60399  0.71617  Biso   1.000  C
  H37      1.0000 0.38830  0.60990  0.77960  Biso   1.000  H
  C98      1.0000 0.35405  0.62098  0.53324  Biso   1.000  C
  H38      1.0000 0.36000  0.63830  0.46980  Biso   1.000  H
  C99      1.0000 0.31943  0.58706  0.53254  Biso   1.000  C
  C100     1.0000 0.33710  0.56950  0.71716  Biso   1.000  C
  C101     1.0000 0.35365  0.77322  0.62377  Biso   1.000  C
  H39      1.0000 0.32730  0.79270  0.62450  Biso   1.000  H
  C102     1.0000 0.35367  0.72677  0.62367  Biso   1.000  C
  H40      1.0000 0.32730  0.70730  0.62410  Biso   1.000  H
  C103     1.0000 0.32891  0.54131  0.81726  Biso   1.000  C
  C104     1.0000 0.29145  0.57881  0.43245  Biso   1.000  C
  Na9      1.0000 0.29559  0.99999  0.00001  Biso   1.000  Na
  O33      1.0000 0.25603  0.94548  0.44051  Biso   1.000  O
  O34      1.0000 0.30439  0.99381  0.80976  Biso   1.000  O
  O35      1.0000 0.30428  0.90421  0.34602  Biso   1.000  O
  O36      1.0000 0.34581  0.94572  0.90403  Biso   1.000  O
  N9       1.0000 0.49992  0.82034  0.62887  Biso   1.000  N
  C105     1.0000 0.37941  0.87054  0.62499  Biso   1.000  C
  C106     1.0000 0.40141  0.78790  0.62262  Biso   1.000  C
  C107     1.0000 0.46205  0.84847  0.62724  Biso   1.000  C
  C108     1.0000 0.41617  0.83382  0.62498  Biso   1.000  C
  C109     1.0000 0.31179  0.93818  0.62490  Biso   1.000  C
  H41      1.0000 0.28860  0.96140  0.62480  Biso   1.000  H
  C110     1.0000 0.35399  0.87903  0.53383  Biso   1.000  C
  H42      1.0000 0.35990  0.86170  0.47040  Biso   1.000  H
  C111     1.0000 0.37098  0.89595  0.71676  Biso   1.000  C
  H43      1.0000 0.38830  0.89000  0.78020  Biso   1.000  H
  C112     1.0000 0.33706  0.93057  0.71746  Biso   1.000  C
  C113     1.0000 0.31950  0.91290  0.53284  Biso   1.000  C
  C114     1.0000 0.52322  0.89635  0.62623  Biso   1.000  C
  H44      1.0000 0.54270  0.92270  0.62550  Biso   1.000  H
  C115     1.0000 0.47677  0.89633  0.62633  Biso   1.000  C
  H45      1.0000 0.45730  0.92270  0.62590  Biso   1.000  H
  C116     1.0000 0.29131  0.92109  0.43274  Biso   1.000  C
  C117     1.0000 0.32881  0.95855  0.81755  Biso   1.000  C
  Na10     1.0000 0.79559  0.49999  0.50001  Biso   1.000  Na
  O37      1.0000 0.75603  0.44548  0.94051  Biso   1.000  O
  O38      1.0000 0.80439  0.49381  0.30976  Biso   1.000  O
  O39      1.0000 0.80428  0.40421  0.84602  Biso   1.000  O
  O40      1.0000 0.84581  0.44572  0.40403  Biso   1.000  O
  N10      1.0000 0.99992  0.32034  0.12887  Biso   1.000  N
  C118     1.0000 0.87941  0.37054  0.12499  Biso   1.000  C
  C119     1.0000 0.90141  0.28790  0.12262  Biso   1.000  C
  C120     1.0000 0.96205  0.34847  0.12724  Biso   1.000  C
  C121     1.0000 0.91617  0.33382  0.12498  Biso   1.000  C
  C122     1.0000 0.81179  0.43818  0.12490  Biso   1.000  C
  H46      1.0000 0.78860  0.46140  0.12480  Biso   1.000  H
  C123     1.0000 0.85399  0.37903  0.03383  Biso   1.000  C
  H47      1.0000 0.85990  0.36170  0.97040  Biso   1.000  H
  C124     1.0000 0.87098  0.39595  0.21676  Biso   1.000  C
  H48      1.0000 0.88830  0.39000  0.28020  Biso   1.000  H
  C125     1.0000 0.83706  0.43057  0.21746  Biso   1.000  C
  C126     1.0000 0.81950  0.41290  0.03284  Biso   1.000  C
  C127     1.0000 0.02322  0.39635  0.12623  Biso   1.000  C
  H49      1.0000 0.04270  0.42270  0.12550  Biso   1.000  H
  C128     1.0000 0.97677  0.39633  0.12633  Biso   1.000  C
  H50      1.0000 0.95730  0.42270  0.12590  Biso   1.000  H
  C129     1.0000 0.79131  0.42109  0.93274  Biso   1.000  C
  C130     1.0000 0.82881  0.45855  0.31755  Biso   1.000  C
  Na11     1.0000 0.20441  0.00001  0.50001  Biso   1.000  Na
  O41      1.0000 0.24397  0.05452  0.94051  Biso   1.000  O
  O42      1.0000 0.19561  0.00619  0.30976  Biso   1.000  O
  O43      1.0000 0.19572  0.09579  0.84602  Biso   1.000  O
  O44      1.0000 0.15419  0.05428  0.40403  Biso   1.000  O
  N11      1.0000 0.00008  0.17966  0.12887  Biso   1.000  N
  C131     1.0000 0.12059  0.12946  0.12499  Biso   1.000  C
  C132     1.0000 0.09859  0.21210  0.12262  Biso   1.000  C
  C133     1.0000 0.03795  0.15153  0.12724  Biso   1.000  C
  C134     1.0000 0.08383  0.16618  0.12498  Biso   1.000  C
  C135     1.0000 0.18821  0.06182  0.12490  Biso   1.000  C
  H51      1.0000 0.21140  0.03860  0.12480  Biso   1.000  H
  C136     1.0000 0.14601  0.12097  0.03383  Biso   1.000  C
  H52      1.0000 0.14010  0.13830  0.97040  Biso   1.000  H
  C137     1.0000 0.12902  0.10405  0.21676  Biso   1.000  C
  H53      1.0000 0.11170  0.11000  0.28020  Biso   1.000  H
  C138     1.0000 0.16294  0.06943  0.21746  Biso   1.000  C
  C139     1.0000 0.18050  0.08710  0.03284  Biso   1.000  C
  C140     1.0000 0.97678  0.10365  0.12623  Biso   1.000  C
  H54      1.0000 0.95730  0.07730  0.12550  Biso   1.000  H
  C141     1.0000 0.02323  0.10367  0.12633  Biso   1.000  C
  H55      1.0000 0.04270  0.07730  0.12590  Biso   1.000  H
  C142     1.0000 0.20869  0.07891  0.93274  Biso   1.000  C
  C143     1.0000 0.17119  0.04145  0.31755  Biso   1.000  C
  Na12     1.0000 0.70441  0.50001  0.00001  Biso   1.000  Na
  O45      1.0000 0.74397  0.55452  0.44051  Biso   1.000  O
  O46      1.0000 0.69561  0.50619  0.80976  Biso   1.000  O
  O47      1.0000 0.69572  0.59579  0.34602  Biso   1.000  O
  O48      1.0000 0.65419  0.55428  0.90403  Biso   1.000  O
  N12      1.0000 0.50008  0.67966  0.62887  Biso   1.000  N
  C144     1.0000 0.62059  0.62946  0.62499  Biso   1.000  C
  C145     1.0000 0.59859  0.71210  0.62262  Biso   1.000  C
  C146     1.0000 0.53795  0.65153  0.62724  Biso   1.000  C
  C147     1.0000 0.58383  0.66618  0.62498  Biso   1.000  C
  C148     1.0000 0.68821  0.56182  0.62490  Biso   1.000  C
  H56      1.0000 0.71140  0.53860  0.62480  Biso   1.000  H
  C149     1.0000 0.64601  0.62097  0.53383  Biso   1.000  C
  H57      1.0000 0.64010  0.63830  0.47040  Biso   1.000  H
  C150     1.0000 0.62902  0.60405  0.71676  Biso   1.000  C
  H58      1.0000 0.61170  0.61000  0.78020  Biso   1.000  H
  C151     1.0000 0.66294  0.56943  0.71746  Biso   1.000  C
  C152     1.0000 0.68050  0.58710  0.53284  Biso   1.000  C
  C153     1.0000 0.47678  0.60365  0.62623  Biso   1.000  C
  H59      1.0000 0.45730  0.57730  0.62550  Biso   1.000  H
  C154     1.0000 0.52323  0.60367  0.62633  Biso   1.000  C
  H60      1.0000 0.54270  0.57730  0.62590  Biso   1.000  H
  C155     1.0000 0.70869  0.57891  0.43274  Biso   1.000  C
  C156     1.0000 0.67119  0.54145  0.81755  Biso   1.000  C
  Na13     1.0000 0.25001  0.04559  0.75001  Biso   1.000  Na
  O49      1.0000 0.30452  0.00603  0.19051  Biso   1.000  O
  O50      1.0000 0.25619  0.05439  0.55976  Biso   1.000  O
  O51      1.0000 0.34579  0.05428  0.09602  Biso   1.000  O
  O52      1.0000 0.30428  0.09581  0.65403  Biso   1.000  O
  N13      1.0000 0.42966  0.24992  0.37887  Biso   1.000  N
  C157     1.0000 0.37946  0.12941  0.37499  Biso   1.000  C
  C158     1.0000 0.46210  0.15141  0.37262  Biso   1.000  C
  C159     1.0000 0.40153  0.21205  0.37724  Biso   1.000  C
  C160     1.0000 0.41618  0.16617  0.37498  Biso   1.000  C
  C161     1.0000 0.31182  0.06179  0.37490  Biso   1.000  C
  H61      1.0000 0.28860  0.03860  0.37480  Biso   1.000  H
  C162     1.0000 0.37097  0.10399  0.28383  Biso   1.000  C
  H62      1.0000 0.38830  0.10990  0.22040  Biso   1.000  H
  C163     1.0000 0.35405  0.12098  0.46676  Biso   1.000  C
  H63      1.0000 0.36000  0.13830  0.53020  Biso   1.000  H
  C164     1.0000 0.31943  0.08706  0.46746  Biso   1.000  C
  C165     1.0000 0.33710  0.06950  0.28284  Biso   1.000  C
  C166     1.0000 0.35365  0.27322  0.37623  Biso   1.000  C
  H64      1.0000 0.32730  0.29270  0.37550  Biso   1.000  H
  C167     1.0000 0.35367  0.22677  0.37633  Biso   1.000  C
  H65      1.0000 0.32730  0.20730  0.37590  Biso   1.000  H
  C168     1.0000 0.32891  0.04131  0.18274  Biso   1.000  C
  C169     1.0000 0.29145  0.07881  0.56755  Biso   1.000  C
  Na14     1.0000 0.75001  0.54559  0.25001  Biso   1.000  Na
  O53      1.0000 0.80452  0.50603  0.69051  Biso   1.000  O
  O54      1.0000 0.75619  0.55439  0.05976  Biso   1.000  O
  O55      1.0000 0.84579  0.55428  0.59602  Biso   1.000  O
  O56      1.0000 0.80428  0.59581  0.15403  Biso   1.000  O
  N14      1.0000 0.92966  0.74992  0.87887  Biso   1.000  N
  C170     1.0000 0.87946  0.62941  0.87499  Biso   1.000  C
  C171     1.0000 0.96210  0.65141  0.87262  Biso   1.000  C
  C172     1.0000 0.90153  0.71205  0.87724  Biso   1.000  C
  C173     1.0000 0.91618  0.66617  0.87498  Biso   1.000  C
  C174     1.0000 0.81182  0.56179  0.87490  Biso   1.000  C
  H66      1.0000 0.78860  0.53860  0.87480  Biso   1.000  H
  C175     1.0000 0.87097  0.60399  0.78383  Biso   1.000  C
  H67      1.0000 0.88830  0.60990  0.72040  Biso   1.000  H
  C176     1.0000 0.85405  0.62098  0.96676  Biso   1.000  C
  H68      1.0000 0.86000  0.63830  0.03020  Biso   1.000  H
  C177     1.0000 0.81943  0.58706  0.96746  Biso   1.000  C
  C178     1.0000 0.83710  0.56950  0.78284  Biso   1.000  C
  C179     1.0000 0.85365  0.77322  0.87623  Biso   1.000  C
  H69      1.0000 0.82730  0.79270  0.87550  Biso   1.000  H
  C180     1.0000 0.85367  0.72677  0.87633  Biso   1.000  C
  H70      1.0000 0.82730  0.70730  0.87590  Biso   1.000  H
  C181     1.0000 0.82891  0.54131  0.68274  Biso   1.000  C
  C182     1.0000 0.79145  0.57881  0.06755  Biso   1.000  C
  Na15     1.0000 0.24999  0.95441  0.25001  Biso   1.000  Na
  O57      1.0000 0.19548  0.99397  0.69051  Biso   1.000  O
  O58      1.0000 0.24381  0.94561  0.05976  Biso   1.000  O
  O59      1.0000 0.15421  0.94572  0.59602  Biso   1.000  O
  O60      1.0000 0.19572  0.90419  0.15403  Biso   1.000  O
  N15      1.0000 0.07034  0.75008  0.87887  Biso   1.000  N
  C183     1.0000 0.12054  0.87059  0.87499  Biso   1.000  C
  C184     1.0000 0.03790  0.84859  0.87262  Biso   1.000  C
  C185     1.0000 0.09847  0.78795  0.87724  Biso   1.000  C
  C186     1.0000 0.08382  0.83383  0.87498  Biso   1.000  C
  C187     1.0000 0.18818  0.93821  0.87490  Biso   1.000  C
  H71      1.0000 0.21140  0.96140  0.87480  Biso   1.000  H
  C188     1.0000 0.12903  0.89601  0.78383  Biso   1.000  C
  H72      1.0000 0.11170  0.89010  0.72040  Biso   1.000  H
  C189     1.0000 0.14595  0.87902  0.96676  Biso   1.000  C
  H73      1.0000 0.14000  0.86170  0.03020  Biso   1.000  H
  C190     1.0000 0.18057  0.91294  0.96746  Biso   1.000  C
  C191     1.0000 0.16290  0.93050  0.78284  Biso   1.000  C
  C192     1.0000 0.14635  0.72678  0.87623  Biso   1.000  C
  H74      1.0000 0.17270  0.70730  0.87550  Biso   1.000  H
  C193     1.0000 0.14633  0.77323  0.87633  Biso   1.000  C
  H75      1.0000 0.17270  0.79270  0.87590  Biso   1.000  H
  C194     1.0000 0.17109  0.95869  0.68274  Biso   1.000  C
  C195     1.0000 0.20855  0.92119  0.06755  Biso   1.000  C
  Na16     1.0000 0.74999  0.45441  0.75001  Biso   1.000  Na
  O61      1.0000 0.69548  0.49397  0.19051  Biso   1.000  O
  O62      1.0000 0.74381  0.44561  0.55976  Biso   1.000  O
  O63      1.0000 0.65421  0.44572  0.09602  Biso   1.000  O
  O64      1.0000 0.69572  0.40419  0.65403  Biso   1.000  O
  N16      1.0000 0.57034  0.25008  0.37887  Biso   1.000  N
  C196     1.0000 0.62054  0.37059  0.37499  Biso   1.000  C
  C197     1.0000 0.53790  0.34859  0.37262  Biso   1.000  C
  C198     1.0000 0.59847  0.28795  0.37724  Biso   1.000  C
  C199     1.0000 0.58382  0.33383  0.37498  Biso   1.000  C
  C200     1.0000 0.68818  0.43821  0.37490  Biso   1.000  C
  H76      1.0000 0.71140  0.46140  0.37480  Biso   1.000  H
  C201     1.0000 0.62903  0.39601  0.28383  Biso   1.000  C
  H77      1.0000 0.61170  0.39010  0.22040  Biso   1.000  H
  C202     1.0000 0.64595  0.37902  0.46676  Biso   1.000  C
  H78      1.0000 0.64000  0.36170  0.53020  Biso   1.000  H
  C203     1.0000 0.68057  0.41294  0.46746  Biso   1.000  C
  C204     1.0000 0.66290  0.43050  0.28284  Biso   1.000  C
  C205     1.0000 0.64635  0.22678  0.37623  Biso   1.000  C
  H79      1.0000 0.67270  0.20730  0.37550  Biso   1.000  H
  C206     1.0000 0.64633  0.27323  0.37633  Biso   1.000  C
  H80      1.0000 0.67270  0.29270  0.37590  Biso   1.000  H
  C207     1.0000 0.67109  0.45869  0.18274  Biso   1.000  C
  C208     1.0000 0.70855  0.42119  0.56755  Biso   1.000  C
  Zn1      1.0000 0.50000  0.25000  0.34511  Biso   1.000  Zn
  Zn2      1.0000 0.00000  0.75000  0.84511  Biso   1.000  Zn
  Zn3      1.0000 0.50000  0.75000  0.59511  Biso   1.000  Zn
  Zn4      1.0000 0.00000  0.25000  0.09511  Biso   1.000  Zn
  Zn5      1.0000 0.50000  0.75000  0.65489  Biso   1.000  Zn
  Zn6      1.0000 0.00000  0.25000  0.15489  Biso   1.000  Zn
  Zn7      1.0000 0.50000  0.25000  0.40489  Biso   1.000  Zn
  Zn8      1.0000 0.00000  0.75000  0.90489  Biso   1.000  Zn
