data_image0
_cell_length_a       19.959
_cell_length_b       46.019
_cell_length_c       16.271
_cell_angle_alpha    90
_cell_angle_beta     90
_cell_angle_gamma    90

_symmetry_space_group_name_H-M    "P 1"
_symmetry_int_tables_number       1

loop_
  _symmetry_equiv_pos_as_xyz
  'x, y, z'

loop_
  _atom_site_label
  _atom_site_occupancy
  _atom_site_fract_x
  _atom_site_fract_y
  _atom_site_fract_z
  _atom_site_thermal_displace_type
  _atom_site_B_iso_or_equiv
  _atom_site_type_symbol
  Mn1      1.0000 0.23948  0.61869  0.88749  Biso   1.000  Mn
  O1       1.0000 0.31522  0.55219  0.90033  Biso   1.000  O
  O2       1.0000 0.24155  0.57698  0.82539  Biso   1.000  O
  O3       1.0000 0.62521  0.88046  0.88900  Biso   1.000  O
  O4       1.0000 0.32208  0.63446  0.81590  Biso   1.000  O
  O5       1.0000 0.37868  0.61190  0.91230  Biso   1.000  O
  O6       1.0000 0.67782  0.85613  0.79390  Biso   1.000  O
  O7       1.0000 0.24540  0.66305  0.93890  Biso   1.000  O
  C1       1.0000 0.24598  0.52637  0.81080  Biso   1.000  C
  C2       1.0000 0.44002  0.65637  0.74650  Biso   1.000  C
  H1       1.0000 0.39870  0.66280  0.72400  Biso   1.000  H
  C3       1.0000 0.19899  0.52614  0.74620  Biso   1.000  C
  H2       1.0000 0.18420  0.54400  0.72310  Biso   1.000  H
  C4       1.0000 0.44004  0.63662  0.81130  Biso   1.000  C
  C5       1.0000 0.55958  0.85068  0.79830  Biso   1.000  C
  C6       1.0000 0.26970  0.55423  0.84790  Biso   1.000  C
  C7       1.0000 0.55944  0.82909  0.74190  Biso   1.000  C
  H3       1.0000 0.60080  0.82210  0.72090  Biso   1.000  H
  C8       1.0000 0.37520  0.62657  0.84920  Biso   1.000  C
  C9       1.0000 0.62530  0.86317  0.83080  Biso   1.000  C
  Mn2      1.0000 0.73948  0.11869  0.88749  Biso   1.000  Mn
  O8       1.0000 0.81522  0.05219  0.90033  Biso   1.000  O
  O9       1.0000 0.74155  0.07698  0.82539  Biso   1.000  O
  O10      1.0000 0.12521  0.38046  0.88900  Biso   1.000  O
  O11      1.0000 0.82208  0.13446  0.81590  Biso   1.000  O
  O12      1.0000 0.87868  0.11190  0.91230  Biso   1.000  O
  O13      1.0000 0.17782  0.35613  0.79390  Biso   1.000  O
  O14      1.0000 0.74540  0.16305  0.93890  Biso   1.000  O
  C10      1.0000 0.74598  0.02637  0.81080  Biso   1.000  C
  C11      1.0000 0.94002  0.15637  0.74650  Biso   1.000  C
  H4       1.0000 0.89870  0.16280  0.72400  Biso   1.000  H
  C12      1.0000 0.69899  0.02614  0.74620  Biso   1.000  C
  H5       1.0000 0.68420  0.04400  0.72310  Biso   1.000  H
  C13      1.0000 0.94004  0.13662  0.81130  Biso   1.000  C
  C14      1.0000 0.05958  0.35068  0.79830  Biso   1.000  C
  C15      1.0000 0.76970  0.05423  0.84790  Biso   1.000  C
  C16      1.0000 0.05944  0.32909  0.74190  Biso   1.000  C
  H6       1.0000 0.10080  0.32210  0.72090  Biso   1.000  H
  C17      1.0000 0.87520  0.12657  0.84920  Biso   1.000  C
  C18      1.0000 0.12530  0.36317  0.83080  Biso   1.000  C
  Mn3      1.0000 0.76052  0.38131  0.88749  Biso   1.000  Mn
  O15      1.0000 0.68478  0.44781  0.90033  Biso   1.000  O
  O16      1.0000 0.75845  0.42302  0.82539  Biso   1.000  O
  O17      1.0000 0.37479  0.11954  0.88900  Biso   1.000  O
  O18      1.0000 0.67792  0.36554  0.81590  Biso   1.000  O
  O19      1.0000 0.62132  0.38810  0.91230  Biso   1.000  O
  O20      1.0000 0.32218  0.14387  0.79390  Biso   1.000  O
  O21      1.0000 0.75460  0.33695  0.93890  Biso   1.000  O
  C19      1.0000 0.75402  0.47363  0.81080  Biso   1.000  C
  C20      1.0000 0.55998  0.34363  0.74650  Biso   1.000  C
  H7       1.0000 0.60130  0.33720  0.72400  Biso   1.000  H
  C21      1.0000 0.80101  0.47386  0.74620  Biso   1.000  C
  H8       1.0000 0.81580  0.45600  0.72310  Biso   1.000  H
  C22      1.0000 0.55996  0.36338  0.81130  Biso   1.000  C
  C23      1.0000 0.44042  0.14932  0.79830  Biso   1.000  C
  C24      1.0000 0.73030  0.44577  0.84790  Biso   1.000  C
  C25      1.0000 0.44056  0.17091  0.74190  Biso   1.000  C
  H9       1.0000 0.39920  0.17790  0.72090  Biso   1.000  H
  C26      1.0000 0.62480  0.37343  0.84920  Biso   1.000  C
  C27      1.0000 0.37470  0.13683  0.83080  Biso   1.000  C
  Mn4      1.0000 0.26052  0.88131  0.88749  Biso   1.000  Mn
  O22      1.0000 0.18478  0.94781  0.90033  Biso   1.000  O
  O23      1.0000 0.25845  0.92302  0.82539  Biso   1.000  O
  O24      1.0000 0.87479  0.61954  0.88900  Biso   1.000  O
  O25      1.0000 0.17792  0.86554  0.81590  Biso   1.000  O
  O26      1.0000 0.12132  0.88810  0.91230  Biso   1.000  O
  O27      1.0000 0.82218  0.64387  0.79390  Biso   1.000  O
  O28      1.0000 0.25460  0.83695  0.93890  Biso   1.000  O
  C28      1.0000 0.25402  0.97363  0.81080  Biso   1.000  C
  C29      1.0000 0.05998  0.84363  0.74650  Biso   1.000  C
  H10      1.0000 0.10130  0.83720  0.72400  Biso   1.000  H
  C30      1.0000 0.30101  0.97386  0.74620  Biso   1.000  C
  H11      1.0000 0.31580  0.95600  0.72310  Biso   1.000  H
  C31      1.0000 0.05996  0.86338  0.81130  Biso   1.000  C
  C32      1.0000 0.94042  0.64932  0.79830  Biso   1.000  C
  C33      1.0000 0.23030  0.94577  0.84790  Biso   1.000  C
  C34      1.0000 0.94056  0.67091  0.74190  Biso   1.000  C
  H12      1.0000 0.89920  0.67790  0.72090  Biso   1.000  H
  C35      1.0000 0.12480  0.87343  0.84920  Biso   1.000  C
  C36      1.0000 0.87470  0.63683  0.83080  Biso   1.000  C
  Mn5      1.0000 0.76052  0.61869  0.11251  Biso   1.000  Mn
  O29      1.0000 0.68478  0.55219  0.09967  Biso   1.000  O
  O30      1.0000 0.75845  0.57698  0.17461  Biso   1.000  O
  O31      1.0000 0.37479  0.88046  0.11100  Biso   1.000  O
  O32      1.0000 0.67792  0.63446  0.18410  Biso   1.000  O
  O33      1.0000 0.62132  0.61190  0.08770  Biso   1.000  O
  O34      1.0000 0.32218  0.85613  0.20610  Biso   1.000  O
  O35      1.0000 0.75460  0.66305  0.06110  Biso   1.000  O
  C37      1.0000 0.75402  0.52637  0.18920  Biso   1.000  C
  C38      1.0000 0.55998  0.65637  0.25350  Biso   1.000  C
  H13      1.0000 0.60130  0.66280  0.27600  Biso   1.000  H
  C39      1.0000 0.80101  0.52614  0.25380  Biso   1.000  C
  H14      1.0000 0.81580  0.54400  0.27690  Biso   1.000  H
  C40      1.0000 0.55996  0.63662  0.18870  Biso   1.000  C
  C41      1.0000 0.44042  0.85068  0.20170  Biso   1.000  C
  C42      1.0000 0.73030  0.55423  0.15210  Biso   1.000  C
  C43      1.0000 0.44056  0.82909  0.25810  Biso   1.000  C
  H15      1.0000 0.39920  0.82210  0.27910  Biso   1.000  H
  C44      1.0000 0.62480  0.62657  0.15080  Biso   1.000  C
  C45      1.0000 0.37470  0.86317  0.16920  Biso   1.000  C
  Mn6      1.0000 0.26052  0.11869  0.11251  Biso   1.000  Mn
  O36      1.0000 0.18478  0.05219  0.09967  Biso   1.000  O
  O37      1.0000 0.25845  0.07698  0.17461  Biso   1.000  O
  O38      1.0000 0.87479  0.38046  0.11100  Biso   1.000  O
  O39      1.0000 0.17792  0.13446  0.18410  Biso   1.000  O
  O40      1.0000 0.12132  0.11190  0.08770  Biso   1.000  O
  O41      1.0000 0.82218  0.35613  0.20610  Biso   1.000  O
  O42      1.0000 0.25460  0.16305  0.06110  Biso   1.000  O
  C46      1.0000 0.25402  0.02637  0.18920  Biso   1.000  C
  C47      1.0000 0.05998  0.15637  0.25350  Biso   1.000  C
  H16      1.0000 0.10130  0.16280  0.27600  Biso   1.000  H
  C48      1.0000 0.30101  0.02614  0.25380  Biso   1.000  C
  H17      1.0000 0.31580  0.04400  0.27690  Biso   1.000  H
  C49      1.0000 0.05996  0.13662  0.18870  Biso   1.000  C
  C50      1.0000 0.94042  0.35068  0.20170  Biso   1.000  C
  C51      1.0000 0.23030  0.05423  0.15210  Biso   1.000  C
  C52      1.0000 0.94056  0.32909  0.25810  Biso   1.000  C
  H18      1.0000 0.89920  0.32210  0.27910  Biso   1.000  H
  C53      1.0000 0.12480  0.12657  0.15080  Biso   1.000  C
  C54      1.0000 0.87470  0.36317  0.16920  Biso   1.000  C
  Mn7      1.0000 0.23948  0.38131  0.11251  Biso   1.000  Mn
  O43      1.0000 0.31522  0.44781  0.09967  Biso   1.000  O
  O44      1.0000 0.24155  0.42302  0.17461  Biso   1.000  O
  O45      1.0000 0.62521  0.11954  0.11100  Biso   1.000  O
  O46      1.0000 0.32208  0.36554  0.18410  Biso   1.000  O
  O47      1.0000 0.37868  0.38810  0.08770  Biso   1.000  O
  O48      1.0000 0.67782  0.14387  0.20610  Biso   1.000  O
  O49      1.0000 0.24540  0.33695  0.06110  Biso   1.000  O
  C55      1.0000 0.24598  0.47363  0.18920  Biso   1.000  C
  C56      1.0000 0.44002  0.34363  0.25350  Biso   1.000  C
  H19      1.0000 0.39870  0.33720  0.27600  Biso   1.000  H
  C57      1.0000 0.19899  0.47386  0.25380  Biso   1.000  C
  H20      1.0000 0.18420  0.45600  0.27690  Biso   1.000  H
  C58      1.0000 0.44004  0.36338  0.18870  Biso   1.000  C
  C59      1.0000 0.55958  0.14932  0.20170  Biso   1.000  C
  C60      1.0000 0.26970  0.44577  0.15210  Biso   1.000  C
  C61      1.0000 0.55944  0.17091  0.25810  Biso   1.000  C
  H21      1.0000 0.60080  0.17790  0.27910  Biso   1.000  H
  C62      1.0000 0.37520  0.37343  0.15080  Biso   1.000  C
  C63      1.0000 0.62530  0.13683  0.16920  Biso   1.000  C
  Mn8      1.0000 0.73948  0.88131  0.11251  Biso   1.000  Mn
  O50      1.0000 0.81522  0.94781  0.09967  Biso   1.000  O
  O51      1.0000 0.74155  0.92302  0.17461  Biso   1.000  O
  O52      1.0000 0.12521  0.61954  0.11100  Biso   1.000  O
  O53      1.0000 0.82208  0.86554  0.18410  Biso   1.000  O
  O54      1.0000 0.87868  0.88810  0.08770  Biso   1.000  O
  O55      1.0000 0.17782  0.64387  0.20610  Biso   1.000  O
  O56      1.0000 0.74540  0.83695  0.06110  Biso   1.000  O
  C64      1.0000 0.74598  0.97363  0.18920  Biso   1.000  C
  C65      1.0000 0.94002  0.84363  0.25350  Biso   1.000  C
  H22      1.0000 0.89870  0.83720  0.27600  Biso   1.000  H
  C66      1.0000 0.69899  0.97386  0.25380  Biso   1.000  C
  H23      1.0000 0.68420  0.95600  0.27690  Biso   1.000  H
  C67      1.0000 0.94004  0.86338  0.18870  Biso   1.000  C
  C68      1.0000 0.05958  0.64932  0.20170  Biso   1.000  C
  C69      1.0000 0.76970  0.94577  0.15210  Biso   1.000  C
  C70      1.0000 0.05944  0.67091  0.25810  Biso   1.000  C
  H24      1.0000 0.10080  0.67790  0.27910  Biso   1.000  H
  C71      1.0000 0.87520  0.87343  0.15080  Biso   1.000  C
  C72      1.0000 0.12530  0.63683  0.16920  Biso   1.000  C
  Mn9      1.0000 0.76052  0.38131  0.11251  Biso   1.000  Mn
  O57      1.0000 0.68478  0.44781  0.09967  Biso   1.000  O
  O58      1.0000 0.75845  0.42302  0.17461  Biso   1.000  O
  O59      1.0000 0.37479  0.11954  0.11100  Biso   1.000  O
  O60      1.0000 0.67792  0.36554  0.18410  Biso   1.000  O
  O61      1.0000 0.62132  0.38810  0.08770  Biso   1.000  O
  O62      1.0000 0.32218  0.14387  0.20610  Biso   1.000  O
  O63      1.0000 0.75460  0.33695  0.06110  Biso   1.000  O
  C73      1.0000 0.75402  0.47363  0.18920  Biso   1.000  C
  C74      1.0000 0.55998  0.34363  0.25350  Biso   1.000  C
  H25      1.0000 0.60130  0.33720  0.27600  Biso   1.000  H
  C75      1.0000 0.80101  0.47386  0.25380  Biso   1.000  C
  H26      1.0000 0.81580  0.45600  0.27690  Biso   1.000  H
  C76      1.0000 0.55996  0.36338  0.18870  Biso   1.000  C
  C77      1.0000 0.44042  0.14932  0.20170  Biso   1.000  C
  C78      1.0000 0.73030  0.44577  0.15210  Biso   1.000  C
  C79      1.0000 0.44056  0.17091  0.25810  Biso   1.000  C
  H27      1.0000 0.39920  0.17790  0.27910  Biso   1.000  H
  C80      1.0000 0.62480  0.37343  0.15080  Biso   1.000  C
  C81      1.0000 0.37470  0.13683  0.16920  Biso   1.000  C
  Mn10     1.0000 0.26052  0.88131  0.11251  Biso   1.000  Mn
  O64      1.0000 0.18478  0.94781  0.09967  Biso   1.000  O
  O65      1.0000 0.25845  0.92302  0.17461  Biso   1.000  O
  O66      1.0000 0.87479  0.61954  0.11100  Biso   1.000  O
  O67      1.0000 0.17792  0.86554  0.18410  Biso   1.000  O
  O68      1.0000 0.12132  0.88810  0.08770  Biso   1.000  O
  O69      1.0000 0.82218  0.64387  0.20610  Biso   1.000  O
  O70      1.0000 0.25460  0.83695  0.06110  Biso   1.000  O
  C82      1.0000 0.25402  0.97363  0.18920  Biso   1.000  C
  C83      1.0000 0.05998  0.84363  0.25350  Biso   1.000  C
  H28      1.0000 0.10130  0.83720  0.27600  Biso   1.000  H
  C84      1.0000 0.30101  0.97386  0.25380  Biso   1.000  C
  H29      1.0000 0.31580  0.95600  0.27690  Biso   1.000  H
  C85      1.0000 0.05996  0.86338  0.18870  Biso   1.000  C
  C86      1.0000 0.94042  0.64932  0.20170  Biso   1.000  C
  C87      1.0000 0.23030  0.94577  0.15210  Biso   1.000  C
  C88      1.0000 0.94056  0.67091  0.25810  Biso   1.000  C
  H30      1.0000 0.89920  0.67790  0.27910  Biso   1.000  H
  C89      1.0000 0.12480  0.87343  0.15080  Biso   1.000  C
  C90      1.0000 0.87470  0.63683  0.16920  Biso   1.000  C
  Mn11     1.0000 0.23948  0.61869  0.11251  Biso   1.000  Mn
  O71      1.0000 0.31522  0.55219  0.09967  Biso   1.000  O
  O72      1.0000 0.24155  0.57698  0.17461  Biso   1.000  O
  O73      1.0000 0.62521  0.88046  0.11100  Biso   1.000  O
  O74      1.0000 0.32208  0.63446  0.18410  Biso   1.000  O
  O75      1.0000 0.37868  0.61190  0.08770  Biso   1.000  O
  O76      1.0000 0.67782  0.85613  0.20610  Biso   1.000  O
  O77      1.0000 0.24540  0.66305  0.06110  Biso   1.000  O
  C91      1.0000 0.24598  0.52637  0.18920  Biso   1.000  C
  C92      1.0000 0.44002  0.65637  0.25350  Biso   1.000  C
  H31      1.0000 0.39870  0.66280  0.27600  Biso   1.000  H
  C93      1.0000 0.19899  0.52614  0.25380  Biso   1.000  C
  H32      1.0000 0.18420  0.54400  0.27690  Biso   1.000  H
  C94      1.0000 0.44004  0.63662  0.18870  Biso   1.000  C
  C95      1.0000 0.55958  0.85068  0.20170  Biso   1.000  C
  C96      1.0000 0.26970  0.55423  0.15210  Biso   1.000  C
  C97      1.0000 0.55944  0.82909  0.25810  Biso   1.000  C
  H33      1.0000 0.60080  0.82210  0.27910  Biso   1.000  H
  C98      1.0000 0.37520  0.62657  0.15080  Biso   1.000  C
  C99      1.0000 0.62530  0.86317  0.16920  Biso   1.000  C
  Mn12     1.0000 0.73948  0.11869  0.11251  Biso   1.000  Mn
  O78      1.0000 0.81522  0.05219  0.09967  Biso   1.000  O
  O79      1.0000 0.74155  0.07698  0.17461  Biso   1.000  O
  O80      1.0000 0.12521  0.38046  0.11100  Biso   1.000  O
  O81      1.0000 0.82208  0.13446  0.18410  Biso   1.000  O
  O82      1.0000 0.87868  0.11190  0.08770  Biso   1.000  O
  O83      1.0000 0.17782  0.35613  0.20610  Biso   1.000  O
  O84      1.0000 0.74540  0.16305  0.06110  Biso   1.000  O
  C100     1.0000 0.74598  0.02637  0.18920  Biso   1.000  C
  C101     1.0000 0.94002  0.15637  0.25350  Biso   1.000  C
  H34      1.0000 0.89870  0.16280  0.27600  Biso   1.000  H
  C102     1.0000 0.69899  0.02614  0.25380  Biso   1.000  C
  H35      1.0000 0.68420  0.04400  0.27690  Biso   1.000  H
  C103     1.0000 0.94004  0.13662  0.18870  Biso   1.000  C
  C104     1.0000 0.05958  0.35068  0.20170  Biso   1.000  C
  C105     1.0000 0.76970  0.05423  0.15210  Biso   1.000  C
  C106     1.0000 0.05944  0.32909  0.25810  Biso   1.000  C
  H36      1.0000 0.10080  0.32210  0.27910  Biso   1.000  H
  C107     1.0000 0.87520  0.12657  0.15080  Biso   1.000  C
  C108     1.0000 0.12530  0.36317  0.16920  Biso   1.000  C
  Mn13     1.0000 0.23948  0.38131  0.88749  Biso   1.000  Mn
  O85      1.0000 0.31522  0.44781  0.90033  Biso   1.000  O
  O86      1.0000 0.24155  0.42302  0.82539  Biso   1.000  O
  O87      1.0000 0.62521  0.11954  0.88900  Biso   1.000  O
  O88      1.0000 0.32208  0.36554  0.81590  Biso   1.000  O
  O89      1.0000 0.37868  0.38810  0.91230  Biso   1.000  O
  O90      1.0000 0.67782  0.14387  0.79390  Biso   1.000  O
  O91      1.0000 0.24540  0.33695  0.93890  Biso   1.000  O
  C109     1.0000 0.24598  0.47363  0.81080  Biso   1.000  C
  C110     1.0000 0.44002  0.34363  0.74650  Biso   1.000  C
  H37      1.0000 0.39870  0.33720  0.72400  Biso   1.000  H
  C111     1.0000 0.19899  0.47386  0.74620  Biso   1.000  C
  H38      1.0000 0.18420  0.45600  0.72310  Biso   1.000  H
  C112     1.0000 0.44004  0.36338  0.81130  Biso   1.000  C
  C113     1.0000 0.55958  0.14932  0.79830  Biso   1.000  C
  C114     1.0000 0.26970  0.44577  0.84790  Biso   1.000  C
  C115     1.0000 0.55944  0.17091  0.74190  Biso   1.000  C
  H39      1.0000 0.60080  0.17790  0.72090  Biso   1.000  H
  C116     1.0000 0.37520  0.37343  0.84920  Biso   1.000  C
  C117     1.0000 0.62530  0.13683  0.83080  Biso   1.000  C
  Mn14     1.0000 0.73948  0.88131  0.88749  Biso   1.000  Mn
  O92      1.0000 0.81522  0.94781  0.90033  Biso   1.000  O
  O93      1.0000 0.74155  0.92302  0.82539  Biso   1.000  O
  O94      1.0000 0.12521  0.61954  0.88900  Biso   1.000  O
  O95      1.0000 0.82208  0.86554  0.81590  Biso   1.000  O
  O96      1.0000 0.87868  0.88810  0.91230  Biso   1.000  O
  O97      1.0000 0.17782  0.64387  0.79390  Biso   1.000  O
  O98      1.0000 0.74540  0.83695  0.93890  Biso   1.000  O
  C118     1.0000 0.74598  0.97363  0.81080  Biso   1.000  C
  C119     1.0000 0.94002  0.84363  0.74650  Biso   1.000  C
  H40      1.0000 0.89870  0.83720  0.72400  Biso   1.000  H
  C120     1.0000 0.69899  0.97386  0.74620  Biso   1.000  C
  H41      1.0000 0.68420  0.95600  0.72310  Biso   1.000  H
  C121     1.0000 0.94004  0.86338  0.81130  Biso   1.000  C
  C122     1.0000 0.05958  0.64932  0.79830  Biso   1.000  C
  C123     1.0000 0.76970  0.94577  0.84790  Biso   1.000  C
  C124     1.0000 0.05944  0.67091  0.74190  Biso   1.000  C
  H42      1.0000 0.10080  0.67790  0.72090  Biso   1.000  H
  C125     1.0000 0.87520  0.87343  0.84920  Biso   1.000  C
  C126     1.0000 0.12530  0.63683  0.83080  Biso   1.000  C
  Mn15     1.0000 0.76052  0.61869  0.88749  Biso   1.000  Mn
  O99      1.0000 0.68478  0.55219  0.90033  Biso   1.000  O
  O100     1.0000 0.75845  0.57698  0.82539  Biso   1.000  O
  O101     1.0000 0.37479  0.88046  0.88900  Biso   1.000  O
  O102     1.0000 0.67792  0.63446  0.81590  Biso   1.000  O
  O103     1.0000 0.62132  0.61190  0.91230  Biso   1.000  O
  O104     1.0000 0.32218  0.85613  0.79390  Biso   1.000  O
  O105     1.0000 0.75460  0.66305  0.93890  Biso   1.000  O
  C127     1.0000 0.75402  0.52637  0.81080  Biso   1.000  C
  C128     1.0000 0.55998  0.65637  0.74650  Biso   1.000  C
  H43      1.0000 0.60130  0.66280  0.72400  Biso   1.000  H
  C129     1.0000 0.80101  0.52614  0.74620  Biso   1.000  C
  H44      1.0000 0.81580  0.54400  0.72310  Biso   1.000  H
  C130     1.0000 0.55996  0.63662  0.81130  Biso   1.000  C
  C131     1.0000 0.44042  0.85068  0.79830  Biso   1.000  C
  C132     1.0000 0.73030  0.55423  0.84790  Biso   1.000  C
  C133     1.0000 0.44056  0.82909  0.74190  Biso   1.000  C
  H45      1.0000 0.39920  0.82210  0.72090  Biso   1.000  H
  C134     1.0000 0.62480  0.62657  0.84920  Biso   1.000  C
  C135     1.0000 0.37470  0.86317  0.83080  Biso   1.000  C
  Mn16     1.0000 0.26052  0.11869  0.88749  Biso   1.000  Mn
  O106     1.0000 0.18478  0.05219  0.90033  Biso   1.000  O
  O107     1.0000 0.25845  0.07698  0.82539  Biso   1.000  O
  O108     1.0000 0.87479  0.38046  0.88900  Biso   1.000  O
  O109     1.0000 0.17792  0.13446  0.81590  Biso   1.000  O
  O110     1.0000 0.12132  0.11190  0.91230  Biso   1.000  O
  O111     1.0000 0.82218  0.35613  0.79390  Biso   1.000  O
  O112     1.0000 0.25460  0.16305  0.93890  Biso   1.000  O
  C136     1.0000 0.25402  0.02637  0.81080  Biso   1.000  C
  C137     1.0000 0.05998  0.15637  0.74650  Biso   1.000  C
  H46      1.0000 0.10130  0.16280  0.72400  Biso   1.000  H
  C138     1.0000 0.30101  0.02614  0.74620  Biso   1.000  C
  H47      1.0000 0.31580  0.04400  0.72310  Biso   1.000  H
  C139     1.0000 0.05996  0.13662  0.81130  Biso   1.000  C
  C140     1.0000 0.94042  0.35068  0.79830  Biso   1.000  C
  C141     1.0000 0.23030  0.05423  0.84790  Biso   1.000  C
  C142     1.0000 0.94056  0.32909  0.74190  Biso   1.000  C
  H48      1.0000 0.89920  0.32210  0.72090  Biso   1.000  H
  C143     1.0000 0.12480  0.12657  0.84920  Biso   1.000  C
  C144     1.0000 0.87470  0.36317  0.83080  Biso   1.000  C
  Mn17     1.0000 0.34677  0.57963  0.00000  Biso   1.000  Mn
  O113     1.0000 0.24537  0.59666  0.00000  Biso   1.000  O
  O114     1.0000 0.44384  0.55806  0.00000  Biso   1.000  O
  C145     1.0000 0.24950  0.67180  0.00000  Biso   1.000  C
  H49      1.0000 0.25880  0.69210  0.00000  Biso   1.000  H
  Mn18     1.0000 0.84677  0.07963  0.00000  Biso   1.000  Mn
  O115     1.0000 0.74537  0.09666  0.00000  Biso   1.000  O
  O116     1.0000 0.94384  0.05806  0.00000  Biso   1.000  O
  C146     1.0000 0.74950  0.17180  0.00000  Biso   1.000  C
  H50      1.0000 0.75880  0.19210  0.00000  Biso   1.000  H
  Mn19     1.0000 0.65323  0.42037  0.00000  Biso   1.000  Mn
  O117     1.0000 0.75463  0.40334  0.00000  Biso   1.000  O
  O118     1.0000 0.55616  0.44194  0.00000  Biso   1.000  O
  C147     1.0000 0.75050  0.32820  0.00000  Biso   1.000  C
  H51      1.0000 0.74120  0.30790  0.00000  Biso   1.000  H
  Mn20     1.0000 0.15323  0.92037  0.00000  Biso   1.000  Mn
  O119     1.0000 0.25463  0.90334  0.00000  Biso   1.000  O
  O120     1.0000 0.05616  0.94194  0.00000  Biso   1.000  O
  C148     1.0000 0.25050  0.82820  0.00000  Biso   1.000  C
  H52      1.0000 0.24120  0.80790  0.00000  Biso   1.000  H
  Mn21     1.0000 0.65323  0.57963  0.00000  Biso   1.000  Mn
  O121     1.0000 0.75463  0.59666  0.00000  Biso   1.000  O
  O122     1.0000 0.55616  0.55806  0.00000  Biso   1.000  O
  C149     1.0000 0.75050  0.67180  0.00000  Biso   1.000  C
  H53      1.0000 0.74120  0.69210  0.00000  Biso   1.000  H
  Mn22     1.0000 0.15323  0.07963  0.00000  Biso   1.000  Mn
  O123     1.0000 0.25463  0.09666  0.00000  Biso   1.000  O
  O124     1.0000 0.05616  0.05806  0.00000  Biso   1.000  O
  C150     1.0000 0.25050  0.17180  0.00000  Biso   1.000  C
  H54      1.0000 0.24120  0.19210  0.00000  Biso   1.000  H
  Mn23     1.0000 0.34677  0.42037  0.00000  Biso   1.000  Mn
  O125     1.0000 0.24537  0.40334  0.00000  Biso   1.000  O
  O126     1.0000 0.44384  0.44194  0.00000  Biso   1.000  O
  C151     1.0000 0.24950  0.32820  0.00000  Biso   1.000  C
  H55      1.0000 0.25880  0.30790  0.00000  Biso   1.000  H
  Mn24     1.0000 0.84677  0.92037  0.00000  Biso   1.000  Mn
  O127     1.0000 0.74537  0.90334  0.00000  Biso   1.000  O
  O128     1.0000 0.94384  0.94194  0.00000  Biso   1.000  O
  C152     1.0000 0.74950  0.82820  0.00000  Biso   1.000  C
  H56      1.0000 0.75880  0.80790  0.00000  Biso   1.000  H
  Zn1      1.0000 0.00000  0.50780  0.50000  Biso   1.000  Zn
  Zn2      1.0000 0.50000  0.00780  0.50000  Biso   1.000  Zn
  Zn3      1.0000 0.00000  0.49220  0.50000  Biso   1.000  Zn
  Zn4      1.0000 0.50000  0.99220  0.50000  Biso   1.000  Zn
  Zn5      1.0000 0.52301  0.74181  0.50000  Biso   1.000  Zn
  Zn6      1.0000 0.02301  0.24181  0.50000  Biso   1.000  Zn
  Zn7      1.0000 0.47699  0.25819  0.50000  Biso   1.000  Zn
  Zn8      1.0000 0.97699  0.75819  0.50000  Biso   1.000  Zn
  Zn9      1.0000 0.47699  0.74181  0.50000  Biso   1.000  Zn
  Zn10     1.0000 0.97699  0.24181  0.50000  Biso   1.000  Zn
  Zn11     1.0000 0.52301  0.25819  0.50000  Biso   1.000  Zn
  Zn12     1.0000 0.02301  0.75819  0.50000  Biso   1.000  Zn
  N1       1.0000 0.00000  0.50000  0.62570  Biso   1.000  N
  N2       1.0000 0.50000  0.00000  0.62570  Biso   1.000  N
  N3       1.0000 0.00000  0.50000  0.37430  Biso   1.000  N
  N4       1.0000 0.50000  0.00000  0.37430  Biso   1.000  N
  N5       1.0000 0.10270  0.50000  0.50000  Biso   1.000  N
  N6       1.0000 0.60270  0.00000  0.50000  Biso   1.000  N
  N7       1.0000 0.89730  0.50000  0.50000  Biso   1.000  N
  N8       1.0000 0.39730  0.00000  0.50000  Biso   1.000  N
  N9       1.0000 0.50000  0.69808  0.50000  Biso   1.000  N
  N10      1.0000 0.50000  0.78639  0.50000  Biso   1.000  N
  N11      1.0000 0.00000  0.19808  0.50000  Biso   1.000  N
  N12      1.0000 0.00000  0.28639  0.50000  Biso   1.000  N
  N13      1.0000 0.50000  0.30192  0.50000  Biso   1.000  N
  N14      1.0000 0.50000  0.21361  0.50000  Biso   1.000  N
  N15      1.0000 0.00000  0.80192  0.50000  Biso   1.000  N
  N16      1.0000 0.00000  0.71361  0.50000  Biso   1.000  N
  N17      1.0000 0.50000  0.74216  0.62470  Biso   1.000  N
  C153     1.0000 0.50000  0.80361  0.56810  Biso   1.000  C
  C154     1.0000 0.50000  0.76546  0.67470  Biso   1.000  C
  C155     1.0000 0.50000  0.66669  0.71440  Biso   1.000  C
  C156     1.0000 0.50000  0.79458  0.64720  Biso   1.000  C
  C157     1.0000 0.50000  0.71789  0.67550  Biso   1.000  C
  C158     1.0000 0.50000  0.64973  0.54110  Biso   1.000  C
  H57      1.0000 0.50000  0.63300  0.57510  Biso   1.000  H
  C159     1.0000 0.50000  0.81709  0.71440  Biso   1.000  C
  C160     1.0000 0.50000  0.68868  0.65020  Biso   1.000  C
  C161     1.0000 0.50000  0.67933  0.56950  Biso   1.000  C
  C162     1.0000 0.50000  0.62674  0.84320  Biso   1.000  C
  H58      1.0000 0.50000  0.61310  0.88710  Biso   1.000  H
  C163     1.0000 0.50000  0.72686  0.76020  Biso   1.000  C
  H59      1.0000 0.50000  0.71460  0.80710  Biso   1.000  H
  C164     1.0000 0.50000  0.86243  0.82870  Biso   1.000  C
  H60      1.0000 0.50000  0.87770  0.86820  Biso   1.000  H
  C165     1.0000 0.50000  0.83448  0.54000  Biso   1.000  C
  H61      1.0000 0.50000  0.85120  0.57430  Biso   1.000  H
  C166     1.0000 0.50000  0.75658  0.75990  Biso   1.000  C
  H62      1.0000 0.50000  0.76900  0.80660  Biso   1.000  H
  N18      1.0000 0.00000  0.24216  0.62470  Biso   1.000  N
  C167     1.0000 0.00000  0.30361  0.56810  Biso   1.000  C
  C168     1.0000 0.00000  0.26546  0.67470  Biso   1.000  C
  C169     1.0000 0.00000  0.16669  0.71440  Biso   1.000  C
  C170     1.0000 0.00000  0.29458  0.64720  Biso   1.000  C
  C171     1.0000 0.00000  0.21789  0.67550  Biso   1.000  C
  C172     1.0000 0.00000  0.14973  0.54110  Biso   1.000  C
  H63      1.0000 0.00000  0.13300  0.57510  Biso   1.000  H
  C173     1.0000 0.00000  0.31709  0.71440  Biso   1.000  C
  C174     1.0000 0.00000  0.18868  0.65020  Biso   1.000  C
  C175     1.0000 0.00000  0.17933  0.56950  Biso   1.000  C
  C176     1.0000 0.00000  0.12674  0.84320  Biso   1.000  C
  H64      1.0000 0.00000  0.11310  0.88710  Biso   1.000  H
  C177     1.0000 0.00000  0.22686  0.76020  Biso   1.000  C
  H65      1.0000 0.00000  0.21460  0.80710  Biso   1.000  H
  C178     1.0000 0.00000  0.36243  0.82870  Biso   1.000  C
  H66      1.0000 0.00000  0.37770  0.86820  Biso   1.000  H
  C179     1.0000 0.00000  0.33448  0.54000  Biso   1.000  C
  H67      1.0000 0.00000  0.35120  0.57430  Biso   1.000  H
  C180     1.0000 0.00000  0.25658  0.75990  Biso   1.000  C
  H68      1.0000 0.00000  0.26900  0.80660  Biso   1.000  H
  N19      1.0000 0.50000  0.25784  0.62470  Biso   1.000  N
  C181     1.0000 0.50000  0.19639  0.56810  Biso   1.000  C
  C182     1.0000 0.50000  0.23454  0.67470  Biso   1.000  C
  C183     1.0000 0.50000  0.33331  0.71440  Biso   1.000  C
  C184     1.0000 0.50000  0.20542  0.64720  Biso   1.000  C
  C185     1.0000 0.50000  0.28211  0.67550  Biso   1.000  C
  C186     1.0000 0.50000  0.35027  0.54110  Biso   1.000  C
  H69      1.0000 0.50000  0.36700  0.57510  Biso   1.000  H
  C187     1.0000 0.50000  0.18291  0.71440  Biso   1.000  C
  C188     1.0000 0.50000  0.31132  0.65020  Biso   1.000  C
  C189     1.0000 0.50000  0.32067  0.56950  Biso   1.000  C
  C190     1.0000 0.50000  0.37326  0.84320  Biso   1.000  C
  H70      1.0000 0.50000  0.38690  0.88710  Biso   1.000  H
  C191     1.0000 0.50000  0.27314  0.76020  Biso   1.000  C
  H71      1.0000 0.50000  0.28540  0.80710  Biso   1.000  H
  C192     1.0000 0.50000  0.13757  0.82870  Biso   1.000  C
  H72      1.0000 0.50000  0.12230  0.86820  Biso   1.000  H
  C193     1.0000 0.50000  0.16552  0.54000  Biso   1.000  C
  H73      1.0000 0.50000  0.14880  0.57430  Biso   1.000  H
  C194     1.0000 0.50000  0.24342  0.75990  Biso   1.000  C
  H74      1.0000 0.50000  0.23100  0.80660  Biso   1.000  H
  N20      1.0000 0.00000  0.75784  0.62470  Biso   1.000  N
  C195     1.0000 0.00000  0.69639  0.56810  Biso   1.000  C
  C196     1.0000 0.00000  0.73454  0.67470  Biso   1.000  C
  C197     1.0000 0.00000  0.83331  0.71440  Biso   1.000  C
  C198     1.0000 0.00000  0.70542  0.64720  Biso   1.000  C
  C199     1.0000 0.00000  0.78211  0.67550  Biso   1.000  C
  C200     1.0000 0.00000  0.85027  0.54110  Biso   1.000  C
  H75      1.0000 0.00000  0.86700  0.57510  Biso   1.000  H
  C201     1.0000 0.00000  0.68291  0.71440  Biso   1.000  C
  C202     1.0000 0.00000  0.81132  0.65020  Biso   1.000  C
  C203     1.0000 0.00000  0.82067  0.56950  Biso   1.000  C
  C204     1.0000 0.00000  0.87326  0.84320  Biso   1.000  C
  H76      1.0000 0.00000  0.88690  0.88710  Biso   1.000  H
  C205     1.0000 0.00000  0.77314  0.76020  Biso   1.000  C
  H77      1.0000 0.00000  0.78540  0.80710  Biso   1.000  H
  C206     1.0000 0.00000  0.63757  0.82870  Biso   1.000  C
  H78      1.0000 0.00000  0.62230  0.86820  Biso   1.000  H
  C207     1.0000 0.00000  0.66552  0.54000  Biso   1.000  C
  H79      1.0000 0.00000  0.64880  0.57430  Biso   1.000  H
  C208     1.0000 0.00000  0.74342  0.75990  Biso   1.000  C
  H80      1.0000 0.00000  0.73100  0.80660  Biso   1.000  H
  N21      1.0000 0.50000  0.74216  0.37530  Biso   1.000  N
  C209     1.0000 0.50000  0.80361  0.43190  Biso   1.000  C
  C210     1.0000 0.50000  0.76546  0.32530  Biso   1.000  C
  C211     1.0000 0.50000  0.66669  0.28560  Biso   1.000  C
  C212     1.0000 0.50000  0.79458  0.35280  Biso   1.000  C
  C213     1.0000 0.50000  0.71789  0.32450  Biso   1.000  C
  C214     1.0000 0.50000  0.64973  0.45890  Biso   1.000  C
  H81      1.0000 0.50000  0.63300  0.42490  Biso   1.000  H
  C215     1.0000 0.50000  0.81709  0.28560  Biso   1.000  C
  C216     1.0000 0.50000  0.68868  0.34980  Biso   1.000  C
  C217     1.0000 0.50000  0.67933  0.43050  Biso   1.000  C
  C218     1.0000 0.50000  0.62674  0.15680  Biso   1.000  C
  H82      1.0000 0.50000  0.61310  0.11290  Biso   1.000  H
  C219     1.0000 0.50000  0.72686  0.23980  Biso   1.000  C
  H83      1.0000 0.50000  0.71460  0.19290  Biso   1.000  H
  C220     1.0000 0.50000  0.86243  0.17130  Biso   1.000  C
  H84      1.0000 0.50000  0.87770  0.13180  Biso   1.000  H
  C221     1.0000 0.50000  0.83448  0.46000  Biso   1.000  C
  H85      1.0000 0.50000  0.85120  0.42570  Biso   1.000  H
  C222     1.0000 0.50000  0.75658  0.24010  Biso   1.000  C
  H86      1.0000 0.50000  0.76900  0.19340  Biso   1.000  H
  N22      1.0000 0.00000  0.24216  0.37530  Biso   1.000  N
  C223     1.0000 0.00000  0.30361  0.43190  Biso   1.000  C
  C224     1.0000 0.00000  0.26546  0.32530  Biso   1.000  C
  C225     1.0000 0.00000  0.16669  0.28560  Biso   1.000  C
  C226     1.0000 0.00000  0.29458  0.35280  Biso   1.000  C
  C227     1.0000 0.00000  0.21789  0.32450  Biso   1.000  C
  C228     1.0000 0.00000  0.14973  0.45890  Biso   1.000  C
  H87      1.0000 0.00000  0.13300  0.42490  Biso   1.000  H
  C229     1.0000 0.00000  0.31709  0.28560  Biso   1.000  C
  C230     1.0000 0.00000  0.18868  0.34980  Biso   1.000  C
  C231     1.0000 0.00000  0.17933  0.43050  Biso   1.000  C
  C232     1.0000 0.00000  0.12674  0.15680  Biso   1.000  C
  H88      1.0000 0.00000  0.11310  0.11290  Biso   1.000  H
  C233     1.0000 0.00000  0.22686  0.23980  Biso   1.000  C
  H89      1.0000 0.00000  0.21460  0.19290  Biso   1.000  H
  C234     1.0000 0.00000  0.36243  0.17130  Biso   1.000  C
  H90      1.0000 0.00000  0.37770  0.13180  Biso   1.000  H
  C235     1.0000 0.00000  0.33448  0.46000  Biso   1.000  C
  H91      1.0000 0.00000  0.35120  0.42570  Biso   1.000  H
  C236     1.0000 0.00000  0.25658  0.24010  Biso   1.000  C
  H92      1.0000 0.00000  0.26900  0.19340  Biso   1.000  H
  N23      1.0000 0.50000  0.25784  0.37530  Biso   1.000  N
  C237     1.0000 0.50000  0.19639  0.43190  Biso   1.000  C
  C238     1.0000 0.50000  0.23454  0.32530  Biso   1.000  C
  C239     1.0000 0.50000  0.33331  0.28560  Biso   1.000  C
  C240     1.0000 0.50000  0.20542  0.35280  Biso   1.000  C
  C241     1.0000 0.50000  0.28211  0.32450  Biso   1.000  C
  C242     1.0000 0.50000  0.35027  0.45890  Biso   1.000  C
  H93      1.0000 0.50000  0.36700  0.42490  Biso   1.000  H
  C243     1.0000 0.50000  0.18291  0.28560  Biso   1.000  C
  C244     1.0000 0.50000  0.31132  0.34980  Biso   1.000  C
  C245     1.0000 0.50000  0.32067  0.43050  Biso   1.000  C
  C246     1.0000 0.50000  0.37326  0.15680  Biso   1.000  C
  H94      1.0000 0.50000  0.38690  0.11290  Biso   1.000  H
  C247     1.0000 0.50000  0.27314  0.23980  Biso   1.000  C
  H95      1.0000 0.50000  0.28540  0.19290  Biso   1.000  H
  C248     1.0000 0.50000  0.13757  0.17130  Biso   1.000  C
  H96      1.0000 0.50000  0.12230  0.13180  Biso   1.000  H
  C249     1.0000 0.50000  0.16552  0.46000  Biso   1.000  C
  H97      1.0000 0.50000  0.14880  0.42570  Biso   1.000  H
  C250     1.0000 0.50000  0.24342  0.24010  Biso   1.000  C
  H98      1.0000 0.50000  0.23100  0.19340  Biso   1.000  H
  N24      1.0000 0.00000  0.75784  0.37530  Biso   1.000  N
  C251     1.0000 0.00000  0.69639  0.43190  Biso   1.000  C
  C252     1.0000 0.00000  0.73454  0.32530  Biso   1.000  C
  C253     1.0000 0.00000  0.83331  0.28560  Biso   1.000  C
  C254     1.0000 0.00000  0.70542  0.35280  Biso   1.000  C
  C255     1.0000 0.00000  0.78211  0.32450  Biso   1.000  C
  C256     1.0000 0.00000  0.85027  0.45890  Biso   1.000  C
  H99      1.0000 0.00000  0.86700  0.42490  Biso   1.000  H
  C257     1.0000 0.00000  0.68291  0.28560  Biso   1.000  C
  C258     1.0000 0.00000  0.81132  0.34980  Biso   1.000  C
  C259     1.0000 0.00000  0.82067  0.43050  Biso   1.000  C
  C260     1.0000 0.00000  0.87326  0.15680  Biso   1.000  C
  H100     1.0000 0.00000  0.88690  0.11290  Biso   1.000  H
  C261     1.0000 0.00000  0.77314  0.23980  Biso   1.000  C
  H101     1.0000 0.00000  0.78540  0.19290  Biso   1.000  H
  C262     1.0000 0.00000  0.63757  0.17130  Biso   1.000  C
  H102     1.0000 0.00000  0.62230  0.13180  Biso   1.000  H
  C263     1.0000 0.00000  0.66552  0.46000  Biso   1.000  C
  H103     1.0000 0.00000  0.64880  0.42570  Biso   1.000  H
  C264     1.0000 0.00000  0.74342  0.24010  Biso   1.000  C
  H104     1.0000 0.00000  0.73100  0.19340  Biso   1.000  H
  C265     1.0000 0.05520  0.50000  0.67610  Biso   1.000  C
  C266     1.0000 0.14350  0.50000  0.56830  Biso   1.000  C
  C267     1.0000 0.12210  0.50000  0.64890  Biso   1.000  C
  C268     1.0000 0.17400  0.50000  0.71590  Biso   1.000  C
  C269     1.0000 0.26920  0.50000  0.84140  Biso   1.000  C
  H105     1.0000 0.30160  0.50000  0.88410  Biso   1.000  H
  C270     1.0000 0.21200  0.50000  0.54220  Biso   1.000  C
  H106     1.0000 0.25030  0.50000  0.57680  Biso   1.000  H
  C271     1.0000 0.03400  0.50000  0.76040  Biso   1.000  C
  H107     1.0000 0.06230  0.50000  0.80730  Biso   1.000  H
  C272     1.0000 0.55520  0.00000  0.67610  Biso   1.000  C
  C273     1.0000 0.64350  0.00000  0.56830  Biso   1.000  C
  C274     1.0000 0.62210  0.00000  0.64890  Biso   1.000  C
  C275     1.0000 0.67400  0.00000  0.71590  Biso   1.000  C
  C276     1.0000 0.76920  0.00000  0.84140  Biso   1.000  C
  H108     1.0000 0.80160  0.00000  0.88410  Biso   1.000  H
  C277     1.0000 0.71200  0.00000  0.54220  Biso   1.000  C
  H109     1.0000 0.75030  0.00000  0.57680  Biso   1.000  H
  C278     1.0000 0.53400  0.00000  0.76040  Biso   1.000  C
  H110     1.0000 0.56230  0.00000  0.80730  Biso   1.000  H
  C279     1.0000 0.94480  0.50000  0.67610  Biso   1.000  C
  C280     1.0000 0.85650  0.50000  0.56830  Biso   1.000  C
  C281     1.0000 0.87790  0.50000  0.64890  Biso   1.000  C
  C282     1.0000 0.82600  0.50000  0.71590  Biso   1.000  C
  C283     1.0000 0.73080  0.50000  0.84140  Biso   1.000  C
  H111     1.0000 0.69840  0.50000  0.88410  Biso   1.000  H
  C284     1.0000 0.78800  0.50000  0.54220  Biso   1.000  C
  H112     1.0000 0.74970  0.50000  0.57680  Biso   1.000  H
  C285     1.0000 0.96600  0.50000  0.76040  Biso   1.000  C
  H113     1.0000 0.93770  0.50000  0.80730  Biso   1.000  H
  C286     1.0000 0.44480  0.00000  0.67610  Biso   1.000  C
  C287     1.0000 0.35650  0.00000  0.56830  Biso   1.000  C
  C288     1.0000 0.37790  0.00000  0.64890  Biso   1.000  C
  C289     1.0000 0.32600  0.00000  0.71590  Biso   1.000  C
  C290     1.0000 0.23080  0.00000  0.84140  Biso   1.000  C
  H114     1.0000 0.19840  0.00000  0.88410  Biso   1.000  H
  C291     1.0000 0.28800  0.00000  0.54220  Biso   1.000  C
  H115     1.0000 0.24970  0.00000  0.57680  Biso   1.000  H
  C292     1.0000 0.46600  0.00000  0.76040  Biso   1.000  C
  H116     1.0000 0.43770  0.00000  0.80730  Biso   1.000  H
  C293     1.0000 0.94480  0.50000  0.32390  Biso   1.000  C
  C294     1.0000 0.85650  0.50000  0.43170  Biso   1.000  C
  C295     1.0000 0.87790  0.50000  0.35110  Biso   1.000  C
  C296     1.0000 0.82600  0.50000  0.28410  Biso   1.000  C
  C297     1.0000 0.73080  0.50000  0.15860  Biso   1.000  C
  H117     1.0000 0.69840  0.50000  0.11590  Biso   1.000  H
  C298     1.0000 0.78800  0.50000  0.45780  Biso   1.000  C
  H118     1.0000 0.74970  0.50000  0.42320  Biso   1.000  H
  C299     1.0000 0.96600  0.50000  0.23960  Biso   1.000  C
  H119     1.0000 0.93770  0.50000  0.19270  Biso   1.000  H
  C300     1.0000 0.44480  0.00000  0.32390  Biso   1.000  C
  C301     1.0000 0.35650  0.00000  0.43170  Biso   1.000  C
  C302     1.0000 0.37790  0.00000  0.35110  Biso   1.000  C
  C303     1.0000 0.32600  0.00000  0.28410  Biso   1.000  C
  C304     1.0000 0.23080  0.00000  0.15860  Biso   1.000  C
  H120     1.0000 0.19840  0.00000  0.11590  Biso   1.000  H
  C305     1.0000 0.28800  0.00000  0.45780  Biso   1.000  C
  H121     1.0000 0.24970  0.00000  0.42320  Biso   1.000  H
  C306     1.0000 0.46600  0.00000  0.23960  Biso   1.000  C
  H122     1.0000 0.43770  0.00000  0.19270  Biso   1.000  H
  C307     1.0000 0.05520  0.50000  0.32390  Biso   1.000  C
  C308     1.0000 0.14350  0.50000  0.43170  Biso   1.000  C
  C309     1.0000 0.12210  0.50000  0.35110  Biso   1.000  C
  C310     1.0000 0.17400  0.50000  0.28410  Biso   1.000  C
  C311     1.0000 0.26920  0.50000  0.15860  Biso   1.000  C
  H123     1.0000 0.30160  0.50000  0.11590  Biso   1.000  H
  C312     1.0000 0.21200  0.50000  0.45780  Biso   1.000  C
  H124     1.0000 0.25030  0.50000  0.42320  Biso   1.000  H
  C313     1.0000 0.03400  0.50000  0.23960  Biso   1.000  C
  H125     1.0000 0.06230  0.50000  0.19270  Biso   1.000  H
  C314     1.0000 0.55520  0.00000  0.32390  Biso   1.000  C
  C315     1.0000 0.64350  0.00000  0.43170  Biso   1.000  C
  C316     1.0000 0.62210  0.00000  0.35110  Biso   1.000  C
  C317     1.0000 0.67400  0.00000  0.28410  Biso   1.000  C
  C318     1.0000 0.76920  0.00000  0.15860  Biso   1.000  C
  H126     1.0000 0.80160  0.00000  0.11590  Biso   1.000  H
  C319     1.0000 0.71200  0.00000  0.45780  Biso   1.000  C
  H127     1.0000 0.75030  0.00000  0.42320  Biso   1.000  H
  C320     1.0000 0.53400  0.00000  0.23960  Biso   1.000  C
  H128     1.0000 0.56230  0.00000  0.19270  Biso   1.000  H
  C321     1.0000 0.50000  0.57084  0.00000  Biso   1.000  C
  H129     1.0000 0.50000  0.59150  0.00000  Biso   1.000  H
  C322     1.0000 0.00000  0.07084  0.00000  Biso   1.000  C
  H130     1.0000 0.00000  0.09150  0.00000  Biso   1.000  H
  C323     1.0000 0.50000  0.42916  0.00000  Biso   1.000  C
  H131     1.0000 0.50000  0.40850  0.00000  Biso   1.000  H
  C324     1.0000 0.00000  0.92916  0.00000  Biso   1.000  C
  H132     1.0000 0.00000  0.90850  0.00000  Biso   1.000  H
