data_image0
_cell_length_a       7.8224
_cell_length_b       10.6257
_cell_length_c       13.1557
_cell_angle_alpha    94.72
_cell_angle_beta     92.336
_cell_angle_gamma    110.181

_symmetry_space_group_name_H-M    "P 1"
_symmetry_int_tables_number       1

loop_
  _symmetry_equiv_pos_as_xyz
  'x, y, z'

loop_
  _atom_site_label
  _atom_site_occupancy
  _atom_site_fract_x
  _atom_site_fract_y
  _atom_site_fract_z
  _atom_site_thermal_displace_type
  _atom_site_B_iso_or_equiv
  _atom_site_type_symbol
  In1      1.0000 0.47591  0.75318  0.74624  Biso   1.000  In
  In2      1.0000 0.51272  0.77883  0.24906  Biso   1.000  In
  P1       1.0000 0.80590  0.07170  0.78320  Biso   1.000  P
  H1       1.0000 0.93600  0.09200  0.74400  Biso   1.000  H
  P2       1.0000 0.84570  0.09900  0.22430  Biso   1.000  P
  H2       1.0000 0.95680  0.12170  0.26690  Biso   1.000  H
  P3       1.0000 0.57700  0.73650  0.49970  Biso   1.000  P
  H3       1.0000 0.70000  0.80400  0.53300  Biso   1.000  H
  P4       1.0000 0.57530  0.80800  0.00270  Biso   1.000  P
  H4       1.0000 0.57540  0.89840  0.01470  Biso   1.000  H
  O1       1.0000 0.85740  0.08350  0.89550  Biso   1.000  O
  O2       1.0000 0.77550  0.81470  0.00650  Biso   1.000  O
  O3       1.0000 0.47480  0.72780  0.08760  Biso   1.000  O
  O4       1.0000 0.73130  0.18180  0.75660  Biso   1.000  O
  O5       1.0000 0.72640  0.95910  0.24810  Biso   1.000  O
  O6       1.0000 0.69920  0.66510  0.25190  Biso   1.000  O
  O7       1.0000 0.53430  0.80850  0.41140  Biso   1.000  O
  O8       1.0000 0.44030  0.72260  0.58190  Biso   1.000  O
  O9       1.0000 0.68720  0.93540  0.73940  Biso   1.000  O
  O10      1.0000 0.33780  0.36250  0.26000  Biso   1.000  O
  O11      1.0000 0.47060  0.74700  0.90470  Biso   1.000  O
  O12      1.0000 0.70600  0.46040  0.26140  Biso   1.000  O
  O13      1.0000 0.32750  0.56920  0.25460  Biso   1.000  O
  O14      1.0000 0.58670  0.59880  0.46310  Biso   1.000  O
  H5       1.0000 0.61390  0.56470  0.51200  Biso   1.000  H
  O15      1.0000 0.90110  0.10360  0.11740  Biso   1.000  O
  O16      1.0000 0.76610  0.20420  0.25540  Biso   1.000  O
  C1       1.0000 0.62780  0.54250  0.25690  Biso   1.000  C
  C2       1.0000 0.41340  0.48490  0.25730  Biso   1.000  C
  P5       1.0000 0.75380  0.07060  0.17910  Biso   1.000  P
  H6       1.0000 0.64420  0.04690  0.13490  Biso   1.000  H
  P6       1.0000 0.58600  0.72830  0.99450  Biso   1.000  P
  H7       1.0000 0.58640  0.63810  0.98180  Biso   1.000  H
  In3      1.0000 0.52409  0.24682  0.25376  Biso   1.000  In
  In4      1.0000 0.48728  0.22117  0.75094  Biso   1.000  In
  P7       1.0000 0.19410  0.92830  0.21680  Biso   1.000  P
  H8       1.0000 0.06400  0.90800  0.25600  Biso   1.000  H
  P8       1.0000 0.15430  0.90100  0.77570  Biso   1.000  P
  H9       1.0000 0.04320  0.87830  0.73310  Biso   1.000  H
  P9       1.0000 0.42300  0.26350  0.50030  Biso   1.000  P
  H10      1.0000 0.30000  0.19600  0.46700  Biso   1.000  H
  P10      1.0000 0.42470  0.19200  0.99730  Biso   1.000  P
  H11      1.0000 0.42460  0.10160  0.98530  Biso   1.000  H
  O17      1.0000 0.14260  0.91650  0.10450  Biso   1.000  O
  O18      1.0000 0.22450  0.18530  0.99350  Biso   1.000  O
  O19      1.0000 0.52520  0.27220  0.91240  Biso   1.000  O
  O20      1.0000 0.26870  0.81820  0.24340  Biso   1.000  O
  O21      1.0000 0.27360  0.04090  0.75190  Biso   1.000  O
  O22      1.0000 0.30080  0.33490  0.74810  Biso   1.000  O
  O23      1.0000 0.46570  0.19150  0.58860  Biso   1.000  O
  O24      1.0000 0.55970  0.27740  0.41810  Biso   1.000  O
  O25      1.0000 0.31280  0.06460  0.26060  Biso   1.000  O
  O26      1.0000 0.66220  0.63750  0.74000  Biso   1.000  O
  O27      1.0000 0.52940  0.25300  0.09530  Biso   1.000  O
  O28      1.0000 0.29400  0.53960  0.73860  Biso   1.000  O
  O29      1.0000 0.67250  0.43080  0.74540  Biso   1.000  O
  O30      1.0000 0.41330  0.40120  0.53690  Biso   1.000  O
  H12      1.0000 0.38610  0.43530  0.48800  Biso   1.000  H
  O31      1.0000 0.09890  0.89640  0.88260  Biso   1.000  O
  O32      1.0000 0.23390  0.79580  0.74460  Biso   1.000  O
  C3       1.0000 0.37220  0.45750  0.74310  Biso   1.000  C
  C4       1.0000 0.58660  0.51510  0.74270  Biso   1.000  C
  P11      1.0000 0.24620  0.92940  0.82090  Biso   1.000  P
  H13      1.0000 0.35580  0.95310  0.86510  Biso   1.000  H
  P12      1.0000 0.41400  0.27170  0.00550  Biso   1.000  P
  H14      1.0000 0.41360  0.36190  0.01820  Biso   1.000  H
  In5      1.0000 0.00000  0.00000  0.00000  Biso   1.000  In
