data_image0
_cell_length_a       33.2277
_cell_length_b       9.7252
_cell_length_c       18.2913
_cell_angle_alpha    90
_cell_angle_beta     93.676
_cell_angle_gamma    90

_symmetry_space_group_name_H-M    "P 1"
_symmetry_int_tables_number       1

loop_
  _symmetry_equiv_pos_as_xyz
  'x, y, z'

loop_
  _atom_site_label
  _atom_site_occupancy
  _atom_site_fract_x
  _atom_site_fract_y
  _atom_site_fract_z
  _atom_site_thermal_displace_type
  _atom_site_B_iso_or_equiv
  _atom_site_type_symbol
  Co1      1.0000 0.34780  0.19901  0.51686  Biso   1.000  Co
  Co2      1.0000 0.25220  0.25400  0.50530  Biso   1.000  Co
  O1       1.0000 0.34052  0.32140  0.60029  Biso   1.000  O
  O2       1.0000 0.34657  0.69040  0.92560  Biso   1.000  O
  O3       1.0000 0.27320  0.31530  0.60004  Biso   1.000  O
  O4       1.0000 0.29733  0.09120  0.49470  Biso   1.000  O
  O5       1.0000 0.28456  0.61790  0.94386  Biso   1.000  O
  C1       1.0000 0.27326  0.86370  0.51930  Biso   1.000  C
  C2       1.0000 0.31459  0.62700  0.90630  Biso   1.000  C
  C3       1.0000 0.30707  0.34720  0.62720  Biso   1.000  C
  C4       1.0000 0.29953  0.98570  0.53980  Biso   1.000  C
  O6       1.0000 0.32245  0.98520  0.59470  Biso   1.000  O
  C5       1.0000 0.25144  0.85980  0.45220  Biso   1.000  C
  C6       1.0000 0.27654  0.49910  0.80570  Biso   1.000  C
  C7       1.0000 0.34513  0.47810  0.72690  Biso   1.000  C
  C8       1.0000 0.31284  0.55600  0.83390  Biso   1.000  C
  O7       1.0000 0.40480  0.15600  0.53920  Biso   1.000  O
  C9       1.0000 0.34685  0.54630  0.79450  Biso   1.000  C
  C10      1.0000 0.30917  0.42190  0.69920  Biso   1.000  C
  C11      1.0000 0.27472  0.43290  0.73820  Biso   1.000  C
  C12      1.0000 0.27168  0.75310  0.56690  Biso   1.000  C
  C13      1.0000 0.46010  0.03830  0.49850  Biso   1.000  C
  O8       1.0000 0.39100  0.02900  0.44710  Biso   1.000  O
  C14      1.0000 0.41510  0.07910  0.49740  Biso   1.000  C
  C15      1.0000 0.48760  0.10410  0.54410  Biso   1.000  C
  C16      1.0000 0.47200  0.93850  0.45130  Biso   1.000  C
  Co3      1.0000 0.84780  0.69901  0.51686  Biso   1.000  Co
  Co4      1.0000 0.75220  0.75400  0.50530  Biso   1.000  Co
  O9       1.0000 0.84052  0.82140  0.60029  Biso   1.000  O
  O10      1.0000 0.84657  0.19040  0.92560  Biso   1.000  O
  O11      1.0000 0.77320  0.81530  0.60004  Biso   1.000  O
  O12      1.0000 0.79733  0.59120  0.49470  Biso   1.000  O
  O13      1.0000 0.78456  0.11790  0.94386  Biso   1.000  O
  C17      1.0000 0.77326  0.36370  0.51930  Biso   1.000  C
  C18      1.0000 0.81459  0.12700  0.90630  Biso   1.000  C
  C19      1.0000 0.80707  0.84720  0.62720  Biso   1.000  C
  C20      1.0000 0.79953  0.48570  0.53980  Biso   1.000  C
  O14      1.0000 0.82245  0.48520  0.59470  Biso   1.000  O
  C21      1.0000 0.75144  0.35980  0.45220  Biso   1.000  C
  C22      1.0000 0.77654  0.99910  0.80570  Biso   1.000  C
  C23      1.0000 0.84513  0.97810  0.72690  Biso   1.000  C
  C24      1.0000 0.81284  0.05600  0.83390  Biso   1.000  C
  O15      1.0000 0.90480  0.65600  0.53920  Biso   1.000  O
  C25      1.0000 0.84685  0.04630  0.79450  Biso   1.000  C
  C26      1.0000 0.80917  0.92190  0.69920  Biso   1.000  C
  C27      1.0000 0.77472  0.93290  0.73820  Biso   1.000  C
  C28      1.0000 0.77168  0.25310  0.56690  Biso   1.000  C
  C29      1.0000 0.96010  0.53830  0.49850  Biso   1.000  C
  O16      1.0000 0.89100  0.52900  0.44710  Biso   1.000  O
  C30      1.0000 0.91510  0.57910  0.49740  Biso   1.000  C
  C31      1.0000 0.98760  0.60410  0.54410  Biso   1.000  C
  C32      1.0000 0.97200  0.43850  0.45130  Biso   1.000  C
  Co5      1.0000 0.65220  0.19901  0.98314  Biso   1.000  Co
  Co6      1.0000 0.74780  0.25400  0.99470  Biso   1.000  Co
  O17      1.0000 0.65948  0.32140  0.89971  Biso   1.000  O
  O18      1.0000 0.65343  0.69040  0.57440  Biso   1.000  O
  O19      1.0000 0.72680  0.31530  0.89996  Biso   1.000  O
  O20      1.0000 0.70267  0.09120  0.00530  Biso   1.000  O
  O21      1.0000 0.71544  0.61790  0.55614  Biso   1.000  O
  C33      1.0000 0.72674  0.86370  0.98070  Biso   1.000  C
  C34      1.0000 0.68541  0.62700  0.59370  Biso   1.000  C
  C35      1.0000 0.69293  0.34720  0.87280  Biso   1.000  C
  C36      1.0000 0.70047  0.98570  0.96020  Biso   1.000  C
  O22      1.0000 0.67755  0.98520  0.90530  Biso   1.000  O
  C37      1.0000 0.74856  0.85980  0.04780  Biso   1.000  C
  C38      1.0000 0.72346  0.49910  0.69430  Biso   1.000  C
  C39      1.0000 0.65487  0.47810  0.77310  Biso   1.000  C
  C40      1.0000 0.68716  0.55600  0.66610  Biso   1.000  C
  O23      1.0000 0.59520  0.15600  0.96080  Biso   1.000  O
  C41      1.0000 0.65315  0.54630  0.70550  Biso   1.000  C
  C42      1.0000 0.69083  0.42190  0.80080  Biso   1.000  C
  C43      1.0000 0.72528  0.43290  0.76180  Biso   1.000  C
  C44      1.0000 0.72832  0.75310  0.93310  Biso   1.000  C
  C45      1.0000 0.53990  0.03830  0.00150  Biso   1.000  C
  O24      1.0000 0.60900  0.02900  0.05290  Biso   1.000  O
  C46      1.0000 0.58490  0.07910  0.00260  Biso   1.000  C
  C47      1.0000 0.51240  0.10410  0.95590  Biso   1.000  C
  C48      1.0000 0.52800  0.93850  0.04870  Biso   1.000  C
  Co7      1.0000 0.15220  0.69901  0.98314  Biso   1.000  Co
  Co8      1.0000 0.24780  0.75400  0.99470  Biso   1.000  Co
  O25      1.0000 0.15948  0.82140  0.89971  Biso   1.000  O
  O26      1.0000 0.15343  0.19040  0.57440  Biso   1.000  O
  O27      1.0000 0.22680  0.81530  0.89996  Biso   1.000  O
  O28      1.0000 0.20267  0.59120  0.00530  Biso   1.000  O
  O29      1.0000 0.21544  0.11790  0.55614  Biso   1.000  O
  C49      1.0000 0.22674  0.36370  0.98070  Biso   1.000  C
  C50      1.0000 0.18541  0.12700  0.59370  Biso   1.000  C
  C51      1.0000 0.19293  0.84720  0.87280  Biso   1.000  C
  C52      1.0000 0.20047  0.48570  0.96020  Biso   1.000  C
  O30      1.0000 0.17755  0.48520  0.90530  Biso   1.000  O
  C53      1.0000 0.24856  0.35980  0.04780  Biso   1.000  C
  C54      1.0000 0.22346  0.99910  0.69430  Biso   1.000  C
  C55      1.0000 0.15487  0.97810  0.77310  Biso   1.000  C
  C56      1.0000 0.18716  0.05600  0.66610  Biso   1.000  C
  O31      1.0000 0.09520  0.65600  0.96080  Biso   1.000  O
  C57      1.0000 0.15315  0.04630  0.70550  Biso   1.000  C
  C58      1.0000 0.19083  0.92190  0.80080  Biso   1.000  C
  C59      1.0000 0.22528  0.93290  0.76180  Biso   1.000  C
  C60      1.0000 0.22832  0.25310  0.93310  Biso   1.000  C
  C61      1.0000 0.03990  0.53830  0.00150  Biso   1.000  C
  O32      1.0000 0.10900  0.52900  0.05290  Biso   1.000  O
  C62      1.0000 0.08490  0.57910  0.00260  Biso   1.000  C
  C63      1.0000 0.01240  0.60410  0.95590  Biso   1.000  C
  C64      1.0000 0.02800  0.43850  0.04870  Biso   1.000  C
  Co9      1.0000 0.65220  0.80099  0.48314  Biso   1.000  Co
  Co10     1.0000 0.74780  0.74600  0.49470  Biso   1.000  Co
  O33      1.0000 0.65948  0.67860  0.39971  Biso   1.000  O
  O34      1.0000 0.65343  0.30960  0.07440  Biso   1.000  O
  O35      1.0000 0.72680  0.68470  0.39996  Biso   1.000  O
  O36      1.0000 0.70267  0.90880  0.50530  Biso   1.000  O
  O37      1.0000 0.71544  0.38210  0.05614  Biso   1.000  O
  C65      1.0000 0.72674  0.13630  0.48070  Biso   1.000  C
  C66      1.0000 0.68541  0.37300  0.09370  Biso   1.000  C
  C67      1.0000 0.69293  0.65280  0.37280  Biso   1.000  C
  C68      1.0000 0.70047  0.01430  0.46020  Biso   1.000  C
  O38      1.0000 0.67755  0.01480  0.40530  Biso   1.000  O
  C69      1.0000 0.74856  0.14020  0.54780  Biso   1.000  C
  C70      1.0000 0.72346  0.50090  0.19430  Biso   1.000  C
  C71      1.0000 0.65487  0.52190  0.27310  Biso   1.000  C
  C72      1.0000 0.68716  0.44400  0.16610  Biso   1.000  C
  O39      1.0000 0.59520  0.84400  0.46080  Biso   1.000  O
  C73      1.0000 0.65315  0.45370  0.20550  Biso   1.000  C
  C74      1.0000 0.69083  0.57810  0.30080  Biso   1.000  C
  C75      1.0000 0.72528  0.56710  0.26180  Biso   1.000  C
  C76      1.0000 0.72832  0.24690  0.43310  Biso   1.000  C
  C77      1.0000 0.53990  0.96170  0.50150  Biso   1.000  C
  O40      1.0000 0.60900  0.97100  0.55290  Biso   1.000  O
  C78      1.0000 0.58490  0.92090  0.50260  Biso   1.000  C
  C79      1.0000 0.51240  0.89590  0.45590  Biso   1.000  C
  C80      1.0000 0.52800  0.06150  0.54870  Biso   1.000  C
  Co11     1.0000 0.15220  0.30099  0.48314  Biso   1.000  Co
  Co12     1.0000 0.24780  0.24600  0.49470  Biso   1.000  Co
  O41      1.0000 0.15948  0.17860  0.39971  Biso   1.000  O
  O42      1.0000 0.15343  0.80960  0.07440  Biso   1.000  O
  O43      1.0000 0.22680  0.18470  0.39996  Biso   1.000  O
  O44      1.0000 0.20267  0.40880  0.50530  Biso   1.000  O
  O45      1.0000 0.21544  0.88210  0.05614  Biso   1.000  O
  C81      1.0000 0.22674  0.63630  0.48070  Biso   1.000  C
  C82      1.0000 0.18541  0.87300  0.09370  Biso   1.000  C
  C83      1.0000 0.19293  0.15280  0.37280  Biso   1.000  C
  C84      1.0000 0.20047  0.51430  0.46020  Biso   1.000  C
  O46      1.0000 0.17755  0.51480  0.40530  Biso   1.000  O
  C85      1.0000 0.24856  0.64020  0.54780  Biso   1.000  C
  C86      1.0000 0.22346  0.00090  0.19430  Biso   1.000  C
  C87      1.0000 0.15487  0.02190  0.27310  Biso   1.000  C
  C88      1.0000 0.18716  0.94400  0.16610  Biso   1.000  C
  O47      1.0000 0.09520  0.34400  0.46080  Biso   1.000  O
  C89      1.0000 0.15315  0.95370  0.20550  Biso   1.000  C
  C90      1.0000 0.19083  0.07810  0.30080  Biso   1.000  C
  C91      1.0000 0.22528  0.06710  0.26180  Biso   1.000  C
  C92      1.0000 0.22832  0.74690  0.43310  Biso   1.000  C
  C93      1.0000 0.03990  0.46170  0.50150  Biso   1.000  C
  O48      1.0000 0.10900  0.47100  0.55290  Biso   1.000  O
  C94      1.0000 0.08490  0.42090  0.50260  Biso   1.000  C
  C95      1.0000 0.01240  0.39590  0.45590  Biso   1.000  C
  C96      1.0000 0.02800  0.56150  0.54870  Biso   1.000  C
  Co13     1.0000 0.34780  0.80099  0.01686  Biso   1.000  Co
  Co14     1.0000 0.25220  0.74600  0.00530  Biso   1.000  Co
  O49      1.0000 0.34052  0.67860  0.10029  Biso   1.000  O
  O50      1.0000 0.34657  0.30960  0.42560  Biso   1.000  O
  O51      1.0000 0.27320  0.68470  0.10004  Biso   1.000  O
  O52      1.0000 0.29733  0.90880  0.99470  Biso   1.000  O
  O53      1.0000 0.28456  0.38210  0.44386  Biso   1.000  O
  C97      1.0000 0.27326  0.13630  0.01930  Biso   1.000  C
  C98      1.0000 0.31459  0.37300  0.40630  Biso   1.000  C
  C99      1.0000 0.30707  0.65280  0.12720  Biso   1.000  C
  C100     1.0000 0.29953  0.01430  0.03980  Biso   1.000  C
  O54      1.0000 0.32245  0.01480  0.09470  Biso   1.000  O
  C101     1.0000 0.25144  0.14020  0.95220  Biso   1.000  C
  C102     1.0000 0.27654  0.50090  0.30570  Biso   1.000  C
  C103     1.0000 0.34513  0.52190  0.22690  Biso   1.000  C
  C104     1.0000 0.31284  0.44400  0.33390  Biso   1.000  C
  O55      1.0000 0.40480  0.84400  0.03920  Biso   1.000  O
  C105     1.0000 0.34685  0.45370  0.29450  Biso   1.000  C
  C106     1.0000 0.30917  0.57810  0.19920  Biso   1.000  C
  C107     1.0000 0.27472  0.56710  0.23820  Biso   1.000  C
  C108     1.0000 0.27168  0.24690  0.06690  Biso   1.000  C
  C109     1.0000 0.46010  0.96170  0.99850  Biso   1.000  C
  O56      1.0000 0.39100  0.97100  0.94710  Biso   1.000  O
  C110     1.0000 0.41510  0.92090  0.99740  Biso   1.000  C
  C111     1.0000 0.48760  0.89590  0.04410  Biso   1.000  C
  C112     1.0000 0.47200  0.06150  0.95130  Biso   1.000  C
  Co15     1.0000 0.84780  0.30099  0.01686  Biso   1.000  Co
  Co16     1.0000 0.75220  0.24600  0.00530  Biso   1.000  Co
  O57      1.0000 0.84052  0.17860  0.10029  Biso   1.000  O
  O58      1.0000 0.84657  0.80960  0.42560  Biso   1.000  O
  O59      1.0000 0.77320  0.18470  0.10004  Biso   1.000  O
  O60      1.0000 0.79733  0.40880  0.99470  Biso   1.000  O
  O61      1.0000 0.78456  0.88210  0.44386  Biso   1.000  O
  C113     1.0000 0.77326  0.63630  0.01930  Biso   1.000  C
  C114     1.0000 0.81459  0.87300  0.40630  Biso   1.000  C
  C115     1.0000 0.80707  0.15280  0.12720  Biso   1.000  C
  C116     1.0000 0.79953  0.51430  0.03980  Biso   1.000  C
  O62      1.0000 0.82245  0.51480  0.09470  Biso   1.000  O
  C117     1.0000 0.75144  0.64020  0.95220  Biso   1.000  C
  C118     1.0000 0.77654  0.00090  0.30570  Biso   1.000  C
  C119     1.0000 0.84513  0.02190  0.22690  Biso   1.000  C
  C120     1.0000 0.81284  0.94400  0.33390  Biso   1.000  C
  O63      1.0000 0.90480  0.34400  0.03920  Biso   1.000  O
  C121     1.0000 0.84685  0.95370  0.29450  Biso   1.000  C
  C122     1.0000 0.80917  0.07810  0.19920  Biso   1.000  C
  C123     1.0000 0.77472  0.06710  0.23820  Biso   1.000  C
  C124     1.0000 0.77168  0.74690  0.06690  Biso   1.000  C
  C125     1.0000 0.96010  0.46170  0.99850  Biso   1.000  C
  O64      1.0000 0.89100  0.47100  0.94710  Biso   1.000  O
  C126     1.0000 0.91510  0.42090  0.99740  Biso   1.000  C
  C127     1.0000 0.98760  0.39590  0.04410  Biso   1.000  C
  C128     1.0000 0.97200  0.56150  0.95130  Biso   1.000  C
