data_image0
_cell_length_a       18.6881
_cell_length_b       18.6881
_cell_length_c       50.6437
_cell_angle_alpha    90
_cell_angle_beta     90
_cell_angle_gamma    90

_symmetry_space_group_name_H-M    "P 1"
_symmetry_int_tables_number       1

loop_
  _symmetry_equiv_pos_as_xyz
  'x, y, z'

loop_
  _atom_site_label
  _atom_site_occupancy
  _atom_site_fract_x
  _atom_site_fract_y
  _atom_site_fract_z
  _atom_site_thermal_displace_type
  _atom_site_B_iso_or_equiv
  _atom_site_type_symbol
  O1       1.0000 0.76379  0.13134  0.74707  Biso   1.000  O
  O2       1.0000 0.70713  0.18976  0.71416  Biso   1.000  O
  C1       1.0000 0.62990  0.04750  0.60106  Biso   1.000  C
  H1       1.0000 0.64220  0.08220  0.58870  Biso   1.000  H
  C2       1.0000 0.66510  0.04720  0.62600  Biso   1.000  C
  H2       1.0000 0.70150  0.08000  0.62930  Biso   1.000  H
  C3       1.0000 0.69030  0.06479  0.68542  Biso   1.000  C
  H3       1.0000 0.68130  0.10810  0.67700  Biso   1.000  H
  C4       1.0000 0.71837  0.06469  0.71123  Biso   1.000  C
  C5       1.0000 0.73038  0.13442  0.72512  Biso   1.000  C
  C6       1.0000 0.56440  0.05930  0.61291  Biso   1.000  C
  H4       1.0000 0.53440  0.09660  0.60790  Biso   1.000  H
  C7       1.0000 0.59640  0.05750  0.63788  Biso   1.000  C
  H5       1.0000 0.58590  0.09310  0.65010  Biso   1.000  H
  O3       1.0000 0.26379  0.63134  0.24707  Biso   1.000  O
  O4       1.0000 0.20713  0.68976  0.21416  Biso   1.000  O
  C8       1.0000 0.12990  0.54750  0.10106  Biso   1.000  C
  H6       1.0000 0.14220  0.58220  0.08870  Biso   1.000  H
  C9       1.0000 0.16510  0.54720  0.12600  Biso   1.000  C
  H7       1.0000 0.20150  0.58000  0.12930  Biso   1.000  H
  C10      1.0000 0.19030  0.56479  0.18542  Biso   1.000  C
  H8       1.0000 0.18130  0.60810  0.17700  Biso   1.000  H
  C11      1.0000 0.21837  0.56469  0.21123  Biso   1.000  C
  C12      1.0000 0.23038  0.63442  0.22512  Biso   1.000  C
  C13      1.0000 0.06440  0.55930  0.11291  Biso   1.000  C
  H9       1.0000 0.03440  0.59660  0.10790  Biso   1.000  H
  C14      1.0000 0.09640  0.55750  0.13788  Biso   1.000  C
  H10      1.0000 0.08590  0.59310  0.15010  Biso   1.000  H
  O5       1.0000 0.23621  0.86866  0.74707  Biso   1.000  O
  O6       1.0000 0.29287  0.81024  0.71416  Biso   1.000  O
  C15      1.0000 0.37010  0.95250  0.60106  Biso   1.000  C
  H11      1.0000 0.35780  0.91780  0.58870  Biso   1.000  H
  C16      1.0000 0.33490  0.95280  0.62600  Biso   1.000  C
  H12      1.0000 0.29850  0.92000  0.62930  Biso   1.000  H
  C17      1.0000 0.30970  0.93521  0.68542  Biso   1.000  C
  H13      1.0000 0.31870  0.89190  0.67700  Biso   1.000  H
  C18      1.0000 0.28163  0.93531  0.71123  Biso   1.000  C
  C19      1.0000 0.26962  0.86558  0.72512  Biso   1.000  C
  C20      1.0000 0.43560  0.94070  0.61291  Biso   1.000  C
  H14      1.0000 0.46560  0.90340  0.60790  Biso   1.000  H
  C21      1.0000 0.40360  0.94250  0.63788  Biso   1.000  C
  H15      1.0000 0.41410  0.90690  0.65010  Biso   1.000  H
  O7       1.0000 0.73621  0.36866  0.24707  Biso   1.000  O
  O8       1.0000 0.79287  0.31024  0.21416  Biso   1.000  O
  C22      1.0000 0.87010  0.45250  0.10106  Biso   1.000  C
  H16      1.0000 0.85780  0.41780  0.08870  Biso   1.000  H
  C23      1.0000 0.83490  0.45280  0.12600  Biso   1.000  C
  H17      1.0000 0.79850  0.42000  0.12930  Biso   1.000  H
  C24      1.0000 0.80970  0.43521  0.18542  Biso   1.000  C
  H18      1.0000 0.81870  0.39190  0.17700  Biso   1.000  H
  C25      1.0000 0.78163  0.43531  0.21123  Biso   1.000  C
  C26      1.0000 0.76962  0.36558  0.22512  Biso   1.000  C
  C27      1.0000 0.93560  0.44070  0.11291  Biso   1.000  C
  H19      1.0000 0.96560  0.40340  0.10790  Biso   1.000  H
  C28      1.0000 0.90360  0.44250  0.13788  Biso   1.000  C
  H20      1.0000 0.91410  0.40690  0.15010  Biso   1.000  H
  O9       1.0000 0.86866  0.76379  0.74707  Biso   1.000  O
  O10      1.0000 0.81024  0.70713  0.71416  Biso   1.000  O
  C29      1.0000 0.95250  0.62990  0.60106  Biso   1.000  C
  H21      1.0000 0.91780  0.64220  0.58870  Biso   1.000  H
  C30      1.0000 0.95280  0.66510  0.62600  Biso   1.000  C
  H22      1.0000 0.92000  0.70150  0.62930  Biso   1.000  H
  C31      1.0000 0.93521  0.69030  0.68542  Biso   1.000  C
  H23      1.0000 0.89190  0.68130  0.67700  Biso   1.000  H
  C32      1.0000 0.93531  0.71837  0.71123  Biso   1.000  C
  C33      1.0000 0.86558  0.73038  0.72512  Biso   1.000  C
  C34      1.0000 0.94070  0.56440  0.61291  Biso   1.000  C
  H24      1.0000 0.90340  0.53440  0.60790  Biso   1.000  H
  C35      1.0000 0.94250  0.59640  0.63788  Biso   1.000  C
  H25      1.0000 0.90690  0.58590  0.65010  Biso   1.000  H
  O11      1.0000 0.36866  0.26379  0.24707  Biso   1.000  O
  O12      1.0000 0.31024  0.20713  0.21416  Biso   1.000  O
  C36      1.0000 0.45250  0.12990  0.10106  Biso   1.000  C
  H26      1.0000 0.41780  0.14220  0.08870  Biso   1.000  H
  C37      1.0000 0.45280  0.16510  0.12600  Biso   1.000  C
  H27      1.0000 0.42000  0.20150  0.12930  Biso   1.000  H
  C38      1.0000 0.43521  0.19030  0.18542  Biso   1.000  C
  H28      1.0000 0.39190  0.18130  0.17700  Biso   1.000  H
  C39      1.0000 0.43531  0.21837  0.21123  Biso   1.000  C
  C40      1.0000 0.36558  0.23038  0.22512  Biso   1.000  C
  C41      1.0000 0.44070  0.06440  0.11291  Biso   1.000  C
  H29      1.0000 0.40340  0.03440  0.10790  Biso   1.000  H
  C42      1.0000 0.44250  0.09640  0.13788  Biso   1.000  C
  H30      1.0000 0.40690  0.08590  0.15010  Biso   1.000  H
  O13      1.0000 0.13134  0.23621  0.74707  Biso   1.000  O
  O14      1.0000 0.18976  0.29287  0.71416  Biso   1.000  O
  C43      1.0000 0.04750  0.37010  0.60106  Biso   1.000  C
  H31      1.0000 0.08220  0.35780  0.58870  Biso   1.000  H
  C44      1.0000 0.04720  0.33490  0.62600  Biso   1.000  C
  H32      1.0000 0.08000  0.29850  0.62930  Biso   1.000  H
  C45      1.0000 0.06479  0.30970  0.68542  Biso   1.000  C
  H33      1.0000 0.10810  0.31870  0.67700  Biso   1.000  H
  C46      1.0000 0.06469  0.28163  0.71123  Biso   1.000  C
  C47      1.0000 0.13442  0.26962  0.72512  Biso   1.000  C
  C48      1.0000 0.05930  0.43560  0.61291  Biso   1.000  C
  H34      1.0000 0.09660  0.46560  0.60790  Biso   1.000  H
  C49      1.0000 0.05750  0.40360  0.63788  Biso   1.000  C
  H35      1.0000 0.09310  0.41410  0.65010  Biso   1.000  H
  O15      1.0000 0.63134  0.73621  0.24707  Biso   1.000  O
  O16      1.0000 0.68976  0.79287  0.21416  Biso   1.000  O
  C50      1.0000 0.54750  0.87010  0.10106  Biso   1.000  C
  H36      1.0000 0.58220  0.85780  0.08870  Biso   1.000  H
  C51      1.0000 0.54720  0.83490  0.12600  Biso   1.000  C
  H37      1.0000 0.58000  0.79850  0.12930  Biso   1.000  H
  C52      1.0000 0.56479  0.80970  0.18542  Biso   1.000  C
  H38      1.0000 0.60810  0.81870  0.17700  Biso   1.000  H
  C53      1.0000 0.56469  0.78163  0.21123  Biso   1.000  C
  C54      1.0000 0.63442  0.76962  0.22512  Biso   1.000  C
  C55      1.0000 0.55930  0.93560  0.11291  Biso   1.000  C
  H39      1.0000 0.59660  0.96560  0.10790  Biso   1.000  H
  C56      1.0000 0.55750  0.90360  0.13788  Biso   1.000  C
  H40      1.0000 0.59310  0.91410  0.15010  Biso   1.000  H
  O17      1.0000 0.23621  0.13134  0.25293  Biso   1.000  O
  O18      1.0000 0.29287  0.18976  0.28584  Biso   1.000  O
  C57      1.0000 0.37010  0.04750  0.39894  Biso   1.000  C
  H41      1.0000 0.35780  0.08220  0.41130  Biso   1.000  H
  C58      1.0000 0.33490  0.04720  0.37400  Biso   1.000  C
  H42      1.0000 0.29850  0.08000  0.37070  Biso   1.000  H
  C59      1.0000 0.30970  0.06479  0.31458  Biso   1.000  C
  H43      1.0000 0.31870  0.10810  0.32300  Biso   1.000  H
  C60      1.0000 0.28163  0.06469  0.28877  Biso   1.000  C
  C61      1.0000 0.26962  0.13442  0.27488  Biso   1.000  C
  C62      1.0000 0.43560  0.05930  0.38709  Biso   1.000  C
  H44      1.0000 0.46560  0.09660  0.39210  Biso   1.000  H
  C63      1.0000 0.40360  0.05750  0.36212  Biso   1.000  C
  H45      1.0000 0.41410  0.09310  0.34990  Biso   1.000  H
  O19      1.0000 0.73621  0.63134  0.75293  Biso   1.000  O
  O20      1.0000 0.79287  0.68976  0.78584  Biso   1.000  O
  C64      1.0000 0.87010  0.54750  0.89894  Biso   1.000  C
  H46      1.0000 0.85780  0.58220  0.91130  Biso   1.000  H
  C65      1.0000 0.83490  0.54720  0.87400  Biso   1.000  C
  H47      1.0000 0.79850  0.58000  0.87070  Biso   1.000  H
  C66      1.0000 0.80970  0.56479  0.81458  Biso   1.000  C
  H48      1.0000 0.81870  0.60810  0.82300  Biso   1.000  H
  C67      1.0000 0.78163  0.56469  0.78877  Biso   1.000  C
  C68      1.0000 0.76962  0.63442  0.77488  Biso   1.000  C
  C69      1.0000 0.93560  0.55930  0.88709  Biso   1.000  C
  H49      1.0000 0.96560  0.59660  0.89210  Biso   1.000  H
  C70      1.0000 0.90360  0.55750  0.86212  Biso   1.000  C
  H50      1.0000 0.91410  0.59310  0.84990  Biso   1.000  H
  O21      1.0000 0.76379  0.86866  0.25293  Biso   1.000  O
  O22      1.0000 0.70713  0.81024  0.28584  Biso   1.000  O
  C71      1.0000 0.62990  0.95250  0.39894  Biso   1.000  C
  H51      1.0000 0.64220  0.91780  0.41130  Biso   1.000  H
  C72      1.0000 0.66510  0.95280  0.37400  Biso   1.000  C
  H52      1.0000 0.70150  0.92000  0.37070  Biso   1.000  H
  C73      1.0000 0.69030  0.93521  0.31458  Biso   1.000  C
  H53      1.0000 0.68130  0.89190  0.32300  Biso   1.000  H
  C74      1.0000 0.71837  0.93531  0.28877  Biso   1.000  C
  C75      1.0000 0.73038  0.86558  0.27488  Biso   1.000  C
  C76      1.0000 0.56440  0.94070  0.38709  Biso   1.000  C
  H54      1.0000 0.53440  0.90340  0.39210  Biso   1.000  H
  C77      1.0000 0.59640  0.94250  0.36212  Biso   1.000  C
  H55      1.0000 0.58590  0.90690  0.34990  Biso   1.000  H
  O23      1.0000 0.26379  0.36866  0.75293  Biso   1.000  O
  O24      1.0000 0.20713  0.31024  0.78584  Biso   1.000  O
  C78      1.0000 0.12990  0.45250  0.89894  Biso   1.000  C
  H56      1.0000 0.14220  0.41780  0.91130  Biso   1.000  H
  C79      1.0000 0.16510  0.45280  0.87400  Biso   1.000  C
  H57      1.0000 0.20150  0.42000  0.87070  Biso   1.000  H
  C80      1.0000 0.19030  0.43521  0.81458  Biso   1.000  C
  H58      1.0000 0.18130  0.39190  0.82300  Biso   1.000  H
  C81      1.0000 0.21837  0.43531  0.78877  Biso   1.000  C
  C82      1.0000 0.23038  0.36558  0.77488  Biso   1.000  C
  C83      1.0000 0.06440  0.44070  0.88709  Biso   1.000  C
  H59      1.0000 0.03440  0.40340  0.89210  Biso   1.000  H
  C84      1.0000 0.09640  0.44250  0.86212  Biso   1.000  C
  H60      1.0000 0.08590  0.40690  0.84990  Biso   1.000  H
  O25      1.0000 0.13134  0.76379  0.25293  Biso   1.000  O
  O26      1.0000 0.18976  0.70713  0.28584  Biso   1.000  O
  C85      1.0000 0.04750  0.62990  0.39894  Biso   1.000  C
  H61      1.0000 0.08220  0.64220  0.41130  Biso   1.000  H
  C86      1.0000 0.04720  0.66510  0.37400  Biso   1.000  C
  H62      1.0000 0.08000  0.70150  0.37070  Biso   1.000  H
  C87      1.0000 0.06479  0.69030  0.31458  Biso   1.000  C
  H63      1.0000 0.10810  0.68130  0.32300  Biso   1.000  H
  C88      1.0000 0.06469  0.71837  0.28877  Biso   1.000  C
  C89      1.0000 0.13442  0.73038  0.27488  Biso   1.000  C
  C90      1.0000 0.05930  0.56440  0.38709  Biso   1.000  C
  H64      1.0000 0.09660  0.53440  0.39210  Biso   1.000  H
  C91      1.0000 0.05750  0.59640  0.36212  Biso   1.000  C
  H65      1.0000 0.09310  0.58590  0.34990  Biso   1.000  H
  O27      1.0000 0.63134  0.26379  0.75293  Biso   1.000  O
  O28      1.0000 0.68976  0.20713  0.78584  Biso   1.000  O
  C92      1.0000 0.54750  0.12990  0.89894  Biso   1.000  C
  H66      1.0000 0.58220  0.14220  0.91130  Biso   1.000  H
  C93      1.0000 0.54720  0.16510  0.87400  Biso   1.000  C
  H67      1.0000 0.58000  0.20150  0.87070  Biso   1.000  H
  C94      1.0000 0.56479  0.19030  0.81458  Biso   1.000  C
  H68      1.0000 0.60810  0.18130  0.82300  Biso   1.000  H
  C95      1.0000 0.56469  0.21837  0.78877  Biso   1.000  C
  C96      1.0000 0.63442  0.23038  0.77488  Biso   1.000  C
  C97      1.0000 0.55930  0.06440  0.88709  Biso   1.000  C
  H69      1.0000 0.59660  0.03440  0.89210  Biso   1.000  H
  C98      1.0000 0.55750  0.09640  0.86212  Biso   1.000  C
  H70      1.0000 0.59310  0.08590  0.84990  Biso   1.000  H
  O29      1.0000 0.86866  0.23621  0.25293  Biso   1.000  O
  O30      1.0000 0.81024  0.29287  0.28584  Biso   1.000  O
  C99      1.0000 0.95250  0.37010  0.39894  Biso   1.000  C
  H71      1.0000 0.91780  0.35780  0.41130  Biso   1.000  H
  C100     1.0000 0.95280  0.33490  0.37400  Biso   1.000  C
  H72      1.0000 0.92000  0.29850  0.37070  Biso   1.000  H
  C101     1.0000 0.93521  0.30970  0.31458  Biso   1.000  C
  H73      1.0000 0.89190  0.31870  0.32300  Biso   1.000  H
  C102     1.0000 0.93531  0.28163  0.28877  Biso   1.000  C
  C103     1.0000 0.86558  0.26962  0.27488  Biso   1.000  C
  C104     1.0000 0.94070  0.43560  0.38709  Biso   1.000  C
  H74      1.0000 0.90340  0.46560  0.39210  Biso   1.000  H
  C105     1.0000 0.94250  0.40360  0.36212  Biso   1.000  C
  H75      1.0000 0.90690  0.41410  0.34990  Biso   1.000  H
  O31      1.0000 0.36866  0.73621  0.75293  Biso   1.000  O
  O32      1.0000 0.31024  0.79287  0.78584  Biso   1.000  O
  C106     1.0000 0.45250  0.87010  0.89894  Biso   1.000  C
  H76      1.0000 0.41780  0.85780  0.91130  Biso   1.000  H
  C107     1.0000 0.45280  0.83490  0.87400  Biso   1.000  C
  H77      1.0000 0.42000  0.79850  0.87070  Biso   1.000  H
  C108     1.0000 0.43521  0.80970  0.81458  Biso   1.000  C
  H78      1.0000 0.39190  0.81870  0.82300  Biso   1.000  H
  C109     1.0000 0.43531  0.78163  0.78877  Biso   1.000  C
  C110     1.0000 0.36558  0.76962  0.77488  Biso   1.000  C
  C111     1.0000 0.44070  0.93560  0.88709  Biso   1.000  C
  H79      1.0000 0.40340  0.96560  0.89210  Biso   1.000  H
  C112     1.0000 0.44250  0.90360  0.86212  Biso   1.000  C
  H80      1.0000 0.40690  0.91410  0.84990  Biso   1.000  H
  O33      1.0000 0.23621  0.86866  0.25293  Biso   1.000  O
  O34      1.0000 0.29287  0.81024  0.28584  Biso   1.000  O
  C113     1.0000 0.37010  0.95250  0.39894  Biso   1.000  C
  H81      1.0000 0.35780  0.91780  0.41130  Biso   1.000  H
  C114     1.0000 0.33490  0.95280  0.37400  Biso   1.000  C
  H82      1.0000 0.29850  0.92000  0.37070  Biso   1.000  H
  C115     1.0000 0.30970  0.93521  0.31458  Biso   1.000  C
  H83      1.0000 0.31870  0.89190  0.32300  Biso   1.000  H
  C116     1.0000 0.28163  0.93531  0.28877  Biso   1.000  C
  C117     1.0000 0.26962  0.86558  0.27488  Biso   1.000  C
  C118     1.0000 0.43560  0.94070  0.38709  Biso   1.000  C
  H84      1.0000 0.46560  0.90340  0.39210  Biso   1.000  H
  C119     1.0000 0.40360  0.94250  0.36212  Biso   1.000  C
  H85      1.0000 0.41410  0.90690  0.34990  Biso   1.000  H
  O35      1.0000 0.73621  0.36866  0.75293  Biso   1.000  O
  O36      1.0000 0.79287  0.31024  0.78584  Biso   1.000  O
  C120     1.0000 0.87010  0.45250  0.89894  Biso   1.000  C
  H86      1.0000 0.85780  0.41780  0.91130  Biso   1.000  H
  C121     1.0000 0.83490  0.45280  0.87400  Biso   1.000  C
  H87      1.0000 0.79850  0.42000  0.87070  Biso   1.000  H
  C122     1.0000 0.80970  0.43521  0.81458  Biso   1.000  C
  H88      1.0000 0.81870  0.39190  0.82300  Biso   1.000  H
  C123     1.0000 0.78163  0.43531  0.78877  Biso   1.000  C
  C124     1.0000 0.76962  0.36558  0.77488  Biso   1.000  C
  C125     1.0000 0.93560  0.44070  0.88709  Biso   1.000  C
  H89      1.0000 0.96560  0.40340  0.89210  Biso   1.000  H
  C126     1.0000 0.90360  0.44250  0.86212  Biso   1.000  C
  H90      1.0000 0.91410  0.40690  0.84990  Biso   1.000  H
  O37      1.0000 0.76379  0.13134  0.25293  Biso   1.000  O
  O38      1.0000 0.70713  0.18976  0.28584  Biso   1.000  O
  C127     1.0000 0.62990  0.04750  0.39894  Biso   1.000  C
  H91      1.0000 0.64220  0.08220  0.41130  Biso   1.000  H
  C128     1.0000 0.66510  0.04720  0.37400  Biso   1.000  C
  H92      1.0000 0.70150  0.08000  0.37070  Biso   1.000  H
  C129     1.0000 0.69030  0.06479  0.31458  Biso   1.000  C
  H93      1.0000 0.68130  0.10810  0.32300  Biso   1.000  H
  C130     1.0000 0.71837  0.06469  0.28877  Biso   1.000  C
  C131     1.0000 0.73038  0.13442  0.27488  Biso   1.000  C
  C132     1.0000 0.56440  0.05930  0.38709  Biso   1.000  C
  H94      1.0000 0.53440  0.09660  0.39210  Biso   1.000  H
  C133     1.0000 0.59640  0.05750  0.36212  Biso   1.000  C
  H95      1.0000 0.58590  0.09310  0.34990  Biso   1.000  H
  O39      1.0000 0.26379  0.63134  0.75293  Biso   1.000  O
  O40      1.0000 0.20713  0.68976  0.78584  Biso   1.000  O
  C134     1.0000 0.12990  0.54750  0.89894  Biso   1.000  C
  H96      1.0000 0.14220  0.58220  0.91130  Biso   1.000  H
  C135     1.0000 0.16510  0.54720  0.87400  Biso   1.000  C
  H97      1.0000 0.20150  0.58000  0.87070  Biso   1.000  H
  C136     1.0000 0.19030  0.56479  0.81458  Biso   1.000  C
  H98      1.0000 0.18130  0.60810  0.82300  Biso   1.000  H
  C137     1.0000 0.21837  0.56469  0.78877  Biso   1.000  C
  C138     1.0000 0.23038  0.63442  0.77488  Biso   1.000  C
  C139     1.0000 0.06440  0.55930  0.88709  Biso   1.000  C
  H99      1.0000 0.03440  0.59660  0.89210  Biso   1.000  H
  C140     1.0000 0.09640  0.55750  0.86212  Biso   1.000  C
  H100     1.0000 0.08590  0.59310  0.84990  Biso   1.000  H
  O41      1.0000 0.13134  0.23621  0.25293  Biso   1.000  O
  O42      1.0000 0.18976  0.29287  0.28584  Biso   1.000  O
  C141     1.0000 0.04750  0.37010  0.39894  Biso   1.000  C
  H101     1.0000 0.08220  0.35780  0.41130  Biso   1.000  H
  C142     1.0000 0.04720  0.33490  0.37400  Biso   1.000  C
  H102     1.0000 0.08000  0.29850  0.37070  Biso   1.000  H
  C143     1.0000 0.06479  0.30970  0.31458  Biso   1.000  C
  H103     1.0000 0.10810  0.31870  0.32300  Biso   1.000  H
  C144     1.0000 0.06469  0.28163  0.28877  Biso   1.000  C
  C145     1.0000 0.13442  0.26962  0.27488  Biso   1.000  C
  C146     1.0000 0.05930  0.43560  0.38709  Biso   1.000  C
  H104     1.0000 0.09660  0.46560  0.39210  Biso   1.000  H
  C147     1.0000 0.05750  0.40360  0.36212  Biso   1.000  C
  H105     1.0000 0.09310  0.41410  0.34990  Biso   1.000  H
  O43      1.0000 0.63134  0.73621  0.75293  Biso   1.000  O
  O44      1.0000 0.68976  0.79287  0.78584  Biso   1.000  O
  C148     1.0000 0.54750  0.87010  0.89894  Biso   1.000  C
  H106     1.0000 0.58220  0.85780  0.91130  Biso   1.000  H
  C149     1.0000 0.54720  0.83490  0.87400  Biso   1.000  C
  H107     1.0000 0.58000  0.79850  0.87070  Biso   1.000  H
  C150     1.0000 0.56479  0.80970  0.81458  Biso   1.000  C
  H108     1.0000 0.60810  0.81870  0.82300  Biso   1.000  H
  C151     1.0000 0.56469  0.78163  0.78877  Biso   1.000  C
  C152     1.0000 0.63442  0.76962  0.77488  Biso   1.000  C
  C153     1.0000 0.55930  0.93560  0.88709  Biso   1.000  C
  H109     1.0000 0.59660  0.96560  0.89210  Biso   1.000  H
  C154     1.0000 0.55750  0.90360  0.86212  Biso   1.000  C
  H110     1.0000 0.59310  0.91410  0.84990  Biso   1.000  H
  O45      1.0000 0.86866  0.76379  0.25293  Biso   1.000  O
  O46      1.0000 0.81024  0.70713  0.28584  Biso   1.000  O
  C155     1.0000 0.95250  0.62990  0.39894  Biso   1.000  C
  H111     1.0000 0.91780  0.64220  0.41130  Biso   1.000  H
  C156     1.0000 0.95280  0.66510  0.37400  Biso   1.000  C
  H112     1.0000 0.92000  0.70150  0.37070  Biso   1.000  H
  C157     1.0000 0.93521  0.69030  0.31458  Biso   1.000  C
  H113     1.0000 0.89190  0.68130  0.32300  Biso   1.000  H
  C158     1.0000 0.93531  0.71837  0.28877  Biso   1.000  C
  C159     1.0000 0.86558  0.73038  0.27488  Biso   1.000  C
  C160     1.0000 0.94070  0.56440  0.38709  Biso   1.000  C
  H114     1.0000 0.90340  0.53440  0.39210  Biso   1.000  H
  C161     1.0000 0.94250  0.59640  0.36212  Biso   1.000  C
  H115     1.0000 0.90690  0.58590  0.34990  Biso   1.000  H
  O47      1.0000 0.36866  0.26379  0.75293  Biso   1.000  O
  O48      1.0000 0.31024  0.20713  0.78584  Biso   1.000  O
  C162     1.0000 0.45250  0.12990  0.89894  Biso   1.000  C
  H116     1.0000 0.41780  0.14220  0.91130  Biso   1.000  H
  C163     1.0000 0.45280  0.16510  0.87400  Biso   1.000  C
  H117     1.0000 0.42000  0.20150  0.87070  Biso   1.000  H
  C164     1.0000 0.43521  0.19030  0.81458  Biso   1.000  C
  H118     1.0000 0.39190  0.18130  0.82300  Biso   1.000  H
  C165     1.0000 0.43531  0.21837  0.78877  Biso   1.000  C
  C166     1.0000 0.36558  0.23038  0.77488  Biso   1.000  C
  C167     1.0000 0.44070  0.06440  0.88709  Biso   1.000  C
  H119     1.0000 0.40340  0.03440  0.89210  Biso   1.000  H
  C168     1.0000 0.44250  0.09640  0.86212  Biso   1.000  C
  H120     1.0000 0.40690  0.08590  0.84990  Biso   1.000  H
  O49      1.0000 0.76379  0.86866  0.74707  Biso   1.000  O
  O50      1.0000 0.70713  0.81024  0.71416  Biso   1.000  O
  C169     1.0000 0.62990  0.95250  0.60106  Biso   1.000  C
  H121     1.0000 0.64220  0.91780  0.58870  Biso   1.000  H
  C170     1.0000 0.66510  0.95280  0.62600  Biso   1.000  C
  H122     1.0000 0.70150  0.92000  0.62930  Biso   1.000  H
  C171     1.0000 0.69030  0.93521  0.68542  Biso   1.000  C
  H123     1.0000 0.68130  0.89190  0.67700  Biso   1.000  H
  C172     1.0000 0.71837  0.93531  0.71123  Biso   1.000  C
  C173     1.0000 0.73038  0.86558  0.72512  Biso   1.000  C
  C174     1.0000 0.56440  0.94070  0.61291  Biso   1.000  C
  H124     1.0000 0.53440  0.90340  0.60790  Biso   1.000  H
  C175     1.0000 0.59640  0.94250  0.63788  Biso   1.000  C
  H125     1.0000 0.58590  0.90690  0.65010  Biso   1.000  H
  O51      1.0000 0.26379  0.36866  0.24707  Biso   1.000  O
  O52      1.0000 0.20713  0.31024  0.21416  Biso   1.000  O
  C176     1.0000 0.12990  0.45250  0.10106  Biso   1.000  C
  H126     1.0000 0.14220  0.41780  0.08870  Biso   1.000  H
  C177     1.0000 0.16510  0.45280  0.12600  Biso   1.000  C
  H127     1.0000 0.20150  0.42000  0.12930  Biso   1.000  H
  C178     1.0000 0.19030  0.43521  0.18542  Biso   1.000  C
  H128     1.0000 0.18130  0.39190  0.17700  Biso   1.000  H
  C179     1.0000 0.21837  0.43531  0.21123  Biso   1.000  C
  C180     1.0000 0.23038  0.36558  0.22512  Biso   1.000  C
  C181     1.0000 0.06440  0.44070  0.11291  Biso   1.000  C
  H129     1.0000 0.03440  0.40340  0.10790  Biso   1.000  H
  C182     1.0000 0.09640  0.44250  0.13788  Biso   1.000  C
  H130     1.0000 0.08590  0.40690  0.15010  Biso   1.000  H
  O53      1.0000 0.23621  0.13134  0.74707  Biso   1.000  O
  O54      1.0000 0.29287  0.18976  0.71416  Biso   1.000  O
  C183     1.0000 0.37010  0.04750  0.60106  Biso   1.000  C
  H131     1.0000 0.35780  0.08220  0.58870  Biso   1.000  H
  C184     1.0000 0.33490  0.04720  0.62600  Biso   1.000  C
  H132     1.0000 0.29850  0.08000  0.62930  Biso   1.000  H
  C185     1.0000 0.30970  0.06479  0.68542  Biso   1.000  C
  H133     1.0000 0.31870  0.10810  0.67700  Biso   1.000  H
  C186     1.0000 0.28163  0.06469  0.71123  Biso   1.000  C
  C187     1.0000 0.26962  0.13442  0.72512  Biso   1.000  C
  C188     1.0000 0.43560  0.05930  0.61291  Biso   1.000  C
  H134     1.0000 0.46560  0.09660  0.60790  Biso   1.000  H
  C189     1.0000 0.40360  0.05750  0.63788  Biso   1.000  C
  H135     1.0000 0.41410  0.09310  0.65010  Biso   1.000  H
  O55      1.0000 0.73621  0.63134  0.24707  Biso   1.000  O
  O56      1.0000 0.79287  0.68976  0.21416  Biso   1.000  O
  C190     1.0000 0.87010  0.54750  0.10106  Biso   1.000  C
  H136     1.0000 0.85780  0.58220  0.08870  Biso   1.000  H
  C191     1.0000 0.83490  0.54720  0.12600  Biso   1.000  C
  H137     1.0000 0.79850  0.58000  0.12930  Biso   1.000  H
  C192     1.0000 0.80970  0.56479  0.18542  Biso   1.000  C
  H138     1.0000 0.81870  0.60810  0.17700  Biso   1.000  H
  C193     1.0000 0.78163  0.56469  0.21123  Biso   1.000  C
  C194     1.0000 0.76962  0.63442  0.22512  Biso   1.000  C
  C195     1.0000 0.93560  0.55930  0.11291  Biso   1.000  C
  H139     1.0000 0.96560  0.59660  0.10790  Biso   1.000  H
  C196     1.0000 0.90360  0.55750  0.13788  Biso   1.000  C
  H140     1.0000 0.91410  0.59310  0.15010  Biso   1.000  H
  O57      1.0000 0.86866  0.23621  0.74707  Biso   1.000  O
  O58      1.0000 0.81024  0.29287  0.71416  Biso   1.000  O
  C197     1.0000 0.95250  0.37010  0.60106  Biso   1.000  C
  H141     1.0000 0.91780  0.35780  0.58870  Biso   1.000  H
  C198     1.0000 0.95280  0.33490  0.62600  Biso   1.000  C
  H142     1.0000 0.92000  0.29850  0.62930  Biso   1.000  H
  C199     1.0000 0.93521  0.30970  0.68542  Biso   1.000  C
  H143     1.0000 0.89190  0.31870  0.67700  Biso   1.000  H
  C200     1.0000 0.93531  0.28163  0.71123  Biso   1.000  C
  C201     1.0000 0.86558  0.26962  0.72512  Biso   1.000  C
  C202     1.0000 0.94070  0.43560  0.61291  Biso   1.000  C
  H144     1.0000 0.90340  0.46560  0.60790  Biso   1.000  H
  C203     1.0000 0.94250  0.40360  0.63788  Biso   1.000  C
  H145     1.0000 0.90690  0.41410  0.65010  Biso   1.000  H
  O59      1.0000 0.36866  0.73621  0.24707  Biso   1.000  O
  O60      1.0000 0.31024  0.79287  0.21416  Biso   1.000  O
  C204     1.0000 0.45250  0.87010  0.10106  Biso   1.000  C
  H146     1.0000 0.41780  0.85780  0.08870  Biso   1.000  H
  C205     1.0000 0.45280  0.83490  0.12600  Biso   1.000  C
  H147     1.0000 0.42000  0.79850  0.12930  Biso   1.000  H
  C206     1.0000 0.43521  0.80970  0.18542  Biso   1.000  C
  H148     1.0000 0.39190  0.81870  0.17700  Biso   1.000  H
  C207     1.0000 0.43531  0.78163  0.21123  Biso   1.000  C
  C208     1.0000 0.36558  0.76962  0.22512  Biso   1.000  C
  C209     1.0000 0.44070  0.93560  0.11291  Biso   1.000  C
  H149     1.0000 0.40340  0.96560  0.10790  Biso   1.000  H
  C210     1.0000 0.44250  0.90360  0.13788  Biso   1.000  C
  H150     1.0000 0.40690  0.91410  0.15010  Biso   1.000  H
  O61      1.0000 0.13134  0.76379  0.74707  Biso   1.000  O
  O62      1.0000 0.18976  0.70713  0.71416  Biso   1.000  O
  C211     1.0000 0.04750  0.62990  0.60106  Biso   1.000  C
  H151     1.0000 0.08220  0.64220  0.58870  Biso   1.000  H
  C212     1.0000 0.04720  0.66510  0.62600  Biso   1.000  C
  H152     1.0000 0.08000  0.70150  0.62930  Biso   1.000  H
  C213     1.0000 0.06479  0.69030  0.68542  Biso   1.000  C
  H153     1.0000 0.10810  0.68130  0.67700  Biso   1.000  H
  C214     1.0000 0.06469  0.71837  0.71123  Biso   1.000  C
  C215     1.0000 0.13442  0.73038  0.72512  Biso   1.000  C
  C216     1.0000 0.05930  0.56440  0.61291  Biso   1.000  C
  H154     1.0000 0.09660  0.53440  0.60790  Biso   1.000  H
  C217     1.0000 0.05750  0.59640  0.63788  Biso   1.000  C
  H155     1.0000 0.09310  0.58590  0.65010  Biso   1.000  H
  O63      1.0000 0.63134  0.26379  0.24707  Biso   1.000  O
  O64      1.0000 0.68976  0.20713  0.21416  Biso   1.000  O
  C218     1.0000 0.54750  0.12990  0.10106  Biso   1.000  C
  H156     1.0000 0.58220  0.14220  0.08870  Biso   1.000  H
  C219     1.0000 0.54720  0.16510  0.12600  Biso   1.000  C
  H157     1.0000 0.58000  0.20150  0.12930  Biso   1.000  H
  C220     1.0000 0.56479  0.19030  0.18542  Biso   1.000  C
  H158     1.0000 0.60810  0.18130  0.17700  Biso   1.000  H
  C221     1.0000 0.56469  0.21837  0.21123  Biso   1.000  C
  C222     1.0000 0.63442  0.23038  0.22512  Biso   1.000  C
  C223     1.0000 0.55930  0.06440  0.11291  Biso   1.000  C
  H159     1.0000 0.59660  0.03440  0.10790  Biso   1.000  H
  C224     1.0000 0.55750  0.09640  0.13788  Biso   1.000  C
  H160     1.0000 0.59310  0.08590  0.15010  Biso   1.000  H
  Cu1      1.0000 0.71514  0.28486  0.73083  Biso   1.000  Cu
  Cu2      1.0000 0.21514  0.78486  0.23083  Biso   1.000  Cu
  Cu3      1.0000 0.28486  0.71514  0.73083  Biso   1.000  Cu
  Cu4      1.0000 0.78486  0.21514  0.23083  Biso   1.000  Cu
  Cu5      1.0000 0.71514  0.71514  0.73083  Biso   1.000  Cu
  Cu6      1.0000 0.21514  0.21514  0.23083  Biso   1.000  Cu
  Cu7      1.0000 0.28486  0.28486  0.73083  Biso   1.000  Cu
  Cu8      1.0000 0.78486  0.78486  0.23083  Biso   1.000  Cu
  Cu9      1.0000 0.28486  0.28486  0.26917  Biso   1.000  Cu
  Cu10     1.0000 0.78486  0.78486  0.76917  Biso   1.000  Cu
  Cu11     1.0000 0.71514  0.71514  0.26917  Biso   1.000  Cu
  Cu12     1.0000 0.21514  0.21514  0.76917  Biso   1.000  Cu
  Cu13     1.0000 0.28486  0.71514  0.26917  Biso   1.000  Cu
  Cu14     1.0000 0.78486  0.21514  0.76917  Biso   1.000  Cu
  Cu15     1.0000 0.71514  0.28486  0.26917  Biso   1.000  Cu
  Cu16     1.0000 0.21514  0.78486  0.76917  Biso   1.000  Cu
  N1       1.0000 0.57580  0.00000  0.54741  Biso   1.000  N
  C225     1.0000 0.53790  0.00000  0.52409  Biso   1.000  C
  C226     1.0000 0.53810  0.00000  0.56953  Biso   1.000  C
  C227     1.0000 0.58020  0.00000  0.59505  Biso   1.000  C
  C228     1.0000 0.64640  0.00000  0.64487  Biso   1.000  C
  C229     1.0000 0.67580  0.00000  0.67225  Biso   1.000  C
  C230     1.0000 0.73280  0.00000  0.72369  Biso   1.000  C
  H161     1.0000 0.75240  0.00000  0.74060  Biso   1.000  H
  N2       1.0000 0.07580  0.50000  0.04741  Biso   1.000  N
  C231     1.0000 0.03790  0.50000  0.02409  Biso   1.000  C
  C232     1.0000 0.03810  0.50000  0.06953  Biso   1.000  C
  C233     1.0000 0.08020  0.50000  0.09505  Biso   1.000  C
  C234     1.0000 0.14640  0.50000  0.14487  Biso   1.000  C
  C235     1.0000 0.17580  0.50000  0.17225  Biso   1.000  C
  C236     1.0000 0.23280  0.50000  0.22369  Biso   1.000  C
  H162     1.0000 0.25240  0.50000  0.24060  Biso   1.000  H
  N3       1.0000 0.42420  0.00000  0.54741  Biso   1.000  N
  C237     1.0000 0.46210  0.00000  0.52409  Biso   1.000  C
  C238     1.0000 0.46190  0.00000  0.56953  Biso   1.000  C
  C239     1.0000 0.41980  0.00000  0.59505  Biso   1.000  C
  C240     1.0000 0.35360  0.00000  0.64487  Biso   1.000  C
  C241     1.0000 0.32420  0.00000  0.67225  Biso   1.000  C
  C242     1.0000 0.26720  0.00000  0.72369  Biso   1.000  C
  H163     1.0000 0.24760  0.00000  0.74060  Biso   1.000  H
  N4       1.0000 0.92420  0.50000  0.04741  Biso   1.000  N
  C243     1.0000 0.96210  0.50000  0.02409  Biso   1.000  C
  C244     1.0000 0.96190  0.50000  0.06953  Biso   1.000  C
  C245     1.0000 0.91980  0.50000  0.09505  Biso   1.000  C
  C246     1.0000 0.85360  0.50000  0.14487  Biso   1.000  C
  C247     1.0000 0.82420  0.50000  0.17225  Biso   1.000  C
  C248     1.0000 0.76720  0.50000  0.22369  Biso   1.000  C
  H164     1.0000 0.74760  0.50000  0.24060  Biso   1.000  H
  N5       1.0000 0.00000  0.57580  0.54741  Biso   1.000  N
  C249     1.0000 0.00000  0.53790  0.52409  Biso   1.000  C
  C250     1.0000 0.00000  0.53810  0.56953  Biso   1.000  C
  C251     1.0000 0.00000  0.58020  0.59505  Biso   1.000  C
  C252     1.0000 0.00000  0.64640  0.64487  Biso   1.000  C
  C253     1.0000 0.00000  0.67580  0.67225  Biso   1.000  C
  C254     1.0000 0.00000  0.73280  0.72369  Biso   1.000  C
  H165     1.0000 0.00000  0.75240  0.74060  Biso   1.000  H
  N6       1.0000 0.50000  0.07580  0.04741  Biso   1.000  N
  C255     1.0000 0.50000  0.03790  0.02409  Biso   1.000  C
  C256     1.0000 0.50000  0.03810  0.06953  Biso   1.000  C
  C257     1.0000 0.50000  0.08020  0.09505  Biso   1.000  C
  C258     1.0000 0.50000  0.14640  0.14487  Biso   1.000  C
  C259     1.0000 0.50000  0.17580  0.17225  Biso   1.000  C
  C260     1.0000 0.50000  0.23280  0.22369  Biso   1.000  C
  H166     1.0000 0.50000  0.25240  0.24060  Biso   1.000  H
  N7       1.0000 0.00000  0.42420  0.54741  Biso   1.000  N
  C261     1.0000 0.00000  0.46210  0.52409  Biso   1.000  C
  C262     1.0000 0.00000  0.46190  0.56953  Biso   1.000  C
  C263     1.0000 0.00000  0.41980  0.59505  Biso   1.000  C
  C264     1.0000 0.00000  0.35360  0.64487  Biso   1.000  C
  C265     1.0000 0.00000  0.32420  0.67225  Biso   1.000  C
  C266     1.0000 0.00000  0.26720  0.72369  Biso   1.000  C
  H167     1.0000 0.00000  0.24760  0.74060  Biso   1.000  H
  N8       1.0000 0.50000  0.92420  0.04741  Biso   1.000  N
  C267     1.0000 0.50000  0.96210  0.02409  Biso   1.000  C
  C268     1.0000 0.50000  0.96190  0.06953  Biso   1.000  C
  C269     1.0000 0.50000  0.91980  0.09505  Biso   1.000  C
  C270     1.0000 0.50000  0.85360  0.14487  Biso   1.000  C
  C271     1.0000 0.50000  0.82420  0.17225  Biso   1.000  C
  C272     1.0000 0.50000  0.76720  0.22369  Biso   1.000  C
  H168     1.0000 0.50000  0.74760  0.24060  Biso   1.000  H
  N9       1.0000 0.42420  0.00000  0.45259  Biso   1.000  N
  C273     1.0000 0.46210  0.00000  0.47591  Biso   1.000  C
  C274     1.0000 0.46190  0.00000  0.43047  Biso   1.000  C
  C275     1.0000 0.41980  0.00000  0.40495  Biso   1.000  C
  C276     1.0000 0.35360  0.00000  0.35513  Biso   1.000  C
  C277     1.0000 0.32420  0.00000  0.32775  Biso   1.000  C
  C278     1.0000 0.26720  0.00000  0.27631  Biso   1.000  C
  H169     1.0000 0.24760  0.00000  0.25940  Biso   1.000  H
  N10      1.0000 0.92420  0.50000  0.95259  Biso   1.000  N
  C279     1.0000 0.96210  0.50000  0.97591  Biso   1.000  C
  C280     1.0000 0.96190  0.50000  0.93047  Biso   1.000  C
  C281     1.0000 0.91980  0.50000  0.90495  Biso   1.000  C
  C282     1.0000 0.85360  0.50000  0.85513  Biso   1.000  C
  C283     1.0000 0.82420  0.50000  0.82775  Biso   1.000  C
  C284     1.0000 0.76720  0.50000  0.77631  Biso   1.000  C
  H170     1.0000 0.74760  0.50000  0.75940  Biso   1.000  H
  N11      1.0000 0.57580  0.00000  0.45259  Biso   1.000  N
  C285     1.0000 0.53790  0.00000  0.47591  Biso   1.000  C
  C286     1.0000 0.53810  0.00000  0.43047  Biso   1.000  C
  C287     1.0000 0.58020  0.00000  0.40495  Biso   1.000  C
  C288     1.0000 0.64640  0.00000  0.35513  Biso   1.000  C
  C289     1.0000 0.67580  0.00000  0.32775  Biso   1.000  C
  C290     1.0000 0.73280  0.00000  0.27631  Biso   1.000  C
  H171     1.0000 0.75240  0.00000  0.25940  Biso   1.000  H
  N12      1.0000 0.07580  0.50000  0.95259  Biso   1.000  N
  C291     1.0000 0.03790  0.50000  0.97591  Biso   1.000  C
  C292     1.0000 0.03810  0.50000  0.93047  Biso   1.000  C
  C293     1.0000 0.08020  0.50000  0.90495  Biso   1.000  C
  C294     1.0000 0.14640  0.50000  0.85513  Biso   1.000  C
  C295     1.0000 0.17580  0.50000  0.82775  Biso   1.000  C
  C296     1.0000 0.23280  0.50000  0.77631  Biso   1.000  C
  H172     1.0000 0.25240  0.50000  0.75940  Biso   1.000  H
  N13      1.0000 0.00000  0.57580  0.45259  Biso   1.000  N
  C297     1.0000 0.00000  0.53790  0.47591  Biso   1.000  C
  C298     1.0000 0.00000  0.53810  0.43047  Biso   1.000  C
  C299     1.0000 0.00000  0.58020  0.40495  Biso   1.000  C
  C300     1.0000 0.00000  0.64640  0.35513  Biso   1.000  C
  C301     1.0000 0.00000  0.67580  0.32775  Biso   1.000  C
  C302     1.0000 0.00000  0.73280  0.27631  Biso   1.000  C
  H173     1.0000 0.00000  0.75240  0.25940  Biso   1.000  H
  N14      1.0000 0.50000  0.07580  0.95259  Biso   1.000  N
  C303     1.0000 0.50000  0.03790  0.97591  Biso   1.000  C
  C304     1.0000 0.50000  0.03810  0.93047  Biso   1.000  C
  C305     1.0000 0.50000  0.08020  0.90495  Biso   1.000  C
  C306     1.0000 0.50000  0.14640  0.85513  Biso   1.000  C
  C307     1.0000 0.50000  0.17580  0.82775  Biso   1.000  C
  C308     1.0000 0.50000  0.23280  0.77631  Biso   1.000  C
  H174     1.0000 0.50000  0.25240  0.75940  Biso   1.000  H
  N15      1.0000 0.00000  0.42420  0.45259  Biso   1.000  N
  C309     1.0000 0.00000  0.46210  0.47591  Biso   1.000  C
  C310     1.0000 0.00000  0.46190  0.43047  Biso   1.000  C
  C311     1.0000 0.00000  0.41980  0.40495  Biso   1.000  C
  C312     1.0000 0.00000  0.35360  0.35513  Biso   1.000  C
  C313     1.0000 0.00000  0.32420  0.32775  Biso   1.000  C
  C314     1.0000 0.00000  0.26720  0.27631  Biso   1.000  C
  H175     1.0000 0.00000  0.24760  0.25940  Biso   1.000  H
  N16      1.0000 0.50000  0.92420  0.95259  Biso   1.000  N
  C315     1.0000 0.50000  0.96210  0.97591  Biso   1.000  C
  C316     1.0000 0.50000  0.96190  0.93047  Biso   1.000  C
  C317     1.0000 0.50000  0.91980  0.90495  Biso   1.000  C
  C318     1.0000 0.50000  0.85360  0.85513  Biso   1.000  C
  C319     1.0000 0.50000  0.82420  0.82775  Biso   1.000  C
  C320     1.0000 0.50000  0.76720  0.77631  Biso   1.000  C
  H176     1.0000 0.50000  0.74760  0.75940  Biso   1.000  H
  C321     1.0000 0.57600  0.00000  0.50000  Biso   1.000  C
  H177     1.0000 0.62570  0.00000  0.50000  Biso   1.000  H
  C322     1.0000 0.07600  0.50000  0.00000  Biso   1.000  C
  H178     1.0000 0.12570  0.50000  0.00000  Biso   1.000  H
  C323     1.0000 0.42400  0.00000  0.50000  Biso   1.000  C
  H179     1.0000 0.37430  0.00000  0.50000  Biso   1.000  H
  C324     1.0000 0.92400  0.50000  0.00000  Biso   1.000  C
  H180     1.0000 0.87430  0.50000  0.00000  Biso   1.000  H
  C325     1.0000 0.00000  0.57600  0.50000  Biso   1.000  C
  H181     1.0000 0.00000  0.62570  0.50000  Biso   1.000  H
  C326     1.0000 0.50000  0.07600  0.00000  Biso   1.000  C
  H182     1.0000 0.50000  0.12570  0.00000  Biso   1.000  H
  C327     1.0000 0.00000  0.42400  0.50000  Biso   1.000  C
  H183     1.0000 0.00000  0.37430  0.50000  Biso   1.000  H
  C328     1.0000 0.50000  0.92400  0.00000  Biso   1.000  C
  H184     1.0000 0.50000  0.87430  0.00000  Biso   1.000  H
