data_image0
_cell_length_a       18.5871
_cell_length_b       18.5871
_cell_length_c       41.033
_cell_angle_alpha    90
_cell_angle_beta     90
_cell_angle_gamma    90

_symmetry_space_group_name_H-M    "P 1"
_symmetry_int_tables_number       1

loop_
  _symmetry_equiv_pos_as_xyz
  'x, y, z'

loop_
  _atom_site_label
  _atom_site_occupancy
  _atom_site_fract_x
  _atom_site_fract_y
  _atom_site_fract_z
  _atom_site_thermal_displace_type
  _atom_site_B_iso_or_equiv
  _atom_site_type_symbol
  O1       1.0000 0.13166  0.23587  0.24683  Biso   1.000  O
  O2       1.0000 0.18965  0.29247  0.20662  Biso   1.000  O
  C1       1.0000 0.05800  0.43780  0.08350  Biso   1.000  C
  H1       1.0000 0.09290  0.47170  0.07830  Biso   1.000  H
  C2       1.0000 0.05950  0.40150  0.11317  Biso   1.000  C
  H2       1.0000 0.09740  0.40840  0.12760  Biso   1.000  H
  C3       1.0000 0.95470  0.33510  0.09858  Biso   1.000  C
  H3       1.0000 0.92060  0.29970  0.10270  Biso   1.000  H
  C4       1.0000 0.95500  0.36820  0.06830  Biso   1.000  C
  H4       1.0000 0.92240  0.35280  0.05260  Biso   1.000  H
  C5       1.0000 0.06473  0.30628  0.17105  Biso   1.000  C
  H5       1.0000 0.10820  0.31590  0.16080  Biso   1.000  H
  C6       1.0000 0.06485  0.27877  0.20199  Biso   1.000  C
  C7       1.0000 0.13361  0.26752  0.21983  Biso   1.000  C
  O3       1.0000 0.63166  0.73587  0.74683  Biso   1.000  O
  O4       1.0000 0.68965  0.79247  0.70662  Biso   1.000  O
  C8       1.0000 0.55800  0.93780  0.58350  Biso   1.000  C
  H6       1.0000 0.59290  0.97170  0.57830  Biso   1.000  H
  C9       1.0000 0.55950  0.90150  0.61317  Biso   1.000  C
  H7       1.0000 0.59740  0.90840  0.62760  Biso   1.000  H
  C10      1.0000 0.45470  0.83510  0.59858  Biso   1.000  C
  H8       1.0000 0.42060  0.79970  0.60270  Biso   1.000  H
  C11      1.0000 0.45500  0.86820  0.56830  Biso   1.000  C
  H9       1.0000 0.42240  0.85280  0.55260  Biso   1.000  H
  C12      1.0000 0.56473  0.80628  0.67105  Biso   1.000  C
  H10      1.0000 0.60820  0.81590  0.66080  Biso   1.000  H
  C13      1.0000 0.56485  0.77877  0.70199  Biso   1.000  C
  C14      1.0000 0.63361  0.76752  0.71983  Biso   1.000  C
  O5       1.0000 0.86834  0.76413  0.24683  Biso   1.000  O
  O6       1.0000 0.81035  0.70753  0.20662  Biso   1.000  O
  C15      1.0000 0.94200  0.56220  0.08350  Biso   1.000  C
  H11      1.0000 0.90710  0.52830  0.07830  Biso   1.000  H
  C16      1.0000 0.94050  0.59850  0.11317  Biso   1.000  C
  H12      1.0000 0.90260  0.59160  0.12760  Biso   1.000  H
  C17      1.0000 0.04530  0.66490  0.09858  Biso   1.000  C
  H13      1.0000 0.07940  0.70030  0.10270  Biso   1.000  H
  C18      1.0000 0.04500  0.63180  0.06830  Biso   1.000  C
  H14      1.0000 0.07760  0.64720  0.05260  Biso   1.000  H
  C19      1.0000 0.93527  0.69372  0.17105  Biso   1.000  C
  H15      1.0000 0.89180  0.68410  0.16080  Biso   1.000  H
  C20      1.0000 0.93515  0.72123  0.20199  Biso   1.000  C
  C21      1.0000 0.86639  0.73248  0.21983  Biso   1.000  C
  O7       1.0000 0.36834  0.26413  0.74683  Biso   1.000  O
  O8       1.0000 0.31035  0.20753  0.70662  Biso   1.000  O
  C22      1.0000 0.44200  0.06220  0.58350  Biso   1.000  C
  H16      1.0000 0.40710  0.02830  0.57830  Biso   1.000  H
  C23      1.0000 0.44050  0.09850  0.61317  Biso   1.000  C
  H17      1.0000 0.40260  0.09160  0.62760  Biso   1.000  H
  C24      1.0000 0.54530  0.16490  0.59858  Biso   1.000  C
  H18      1.0000 0.57940  0.20030  0.60270  Biso   1.000  H
  C25      1.0000 0.54500  0.13180  0.56830  Biso   1.000  C
  H19      1.0000 0.57760  0.14720  0.55260  Biso   1.000  H
  C26      1.0000 0.43527  0.19372  0.67105  Biso   1.000  C
  H20      1.0000 0.39180  0.18410  0.66080  Biso   1.000  H
  C27      1.0000 0.43515  0.22123  0.70199  Biso   1.000  C
  C28      1.0000 0.36639  0.23248  0.71983  Biso   1.000  C
  O9       1.0000 0.76413  0.13166  0.24683  Biso   1.000  O
  O10      1.0000 0.70753  0.18965  0.20662  Biso   1.000  O
  C29      1.0000 0.56220  0.05800  0.08350  Biso   1.000  C
  H21      1.0000 0.52830  0.09290  0.07830  Biso   1.000  H
  C30      1.0000 0.59850  0.05950  0.11317  Biso   1.000  C
  H22      1.0000 0.59160  0.09740  0.12760  Biso   1.000  H
  C31      1.0000 0.66490  0.95470  0.09858  Biso   1.000  C
  H23      1.0000 0.70030  0.92060  0.10270  Biso   1.000  H
  C32      1.0000 0.63180  0.95500  0.06830  Biso   1.000  C
  H24      1.0000 0.64720  0.92240  0.05260  Biso   1.000  H
  C33      1.0000 0.69372  0.06473  0.17105  Biso   1.000  C
  H25      1.0000 0.68410  0.10820  0.16080  Biso   1.000  H
  C34      1.0000 0.72123  0.06485  0.20199  Biso   1.000  C
  C35      1.0000 0.73248  0.13361  0.21983  Biso   1.000  C
  O11      1.0000 0.26413  0.63166  0.74683  Biso   1.000  O
  O12      1.0000 0.20753  0.68965  0.70662  Biso   1.000  O
  C36      1.0000 0.06220  0.55800  0.58350  Biso   1.000  C
  H26      1.0000 0.02830  0.59290  0.57830  Biso   1.000  H
  C37      1.0000 0.09850  0.55950  0.61317  Biso   1.000  C
  H27      1.0000 0.09160  0.59740  0.62760  Biso   1.000  H
  C38      1.0000 0.16490  0.45470  0.59858  Biso   1.000  C
  H28      1.0000 0.20030  0.42060  0.60270  Biso   1.000  H
  C39      1.0000 0.13180  0.45500  0.56830  Biso   1.000  C
  H29      1.0000 0.14720  0.42240  0.55260  Biso   1.000  H
  C40      1.0000 0.19372  0.56473  0.67105  Biso   1.000  C
  H30      1.0000 0.18410  0.60820  0.66080  Biso   1.000  H
  C41      1.0000 0.22123  0.56485  0.70199  Biso   1.000  C
  C42      1.0000 0.23248  0.63361  0.71983  Biso   1.000  C
  O13      1.0000 0.23587  0.86834  0.24683  Biso   1.000  O
  O14      1.0000 0.29247  0.81035  0.20662  Biso   1.000  O
  C43      1.0000 0.43780  0.94200  0.08350  Biso   1.000  C
  H31      1.0000 0.47170  0.90710  0.07830  Biso   1.000  H
  C44      1.0000 0.40150  0.94050  0.11317  Biso   1.000  C
  H32      1.0000 0.40840  0.90260  0.12760  Biso   1.000  H
  C45      1.0000 0.33510  0.04530  0.09858  Biso   1.000  C
  H33      1.0000 0.29970  0.07940  0.10270  Biso   1.000  H
  C46      1.0000 0.36820  0.04500  0.06830  Biso   1.000  C
  H34      1.0000 0.35280  0.07760  0.05260  Biso   1.000  H
  C47      1.0000 0.30628  0.93527  0.17105  Biso   1.000  C
  H35      1.0000 0.31590  0.89180  0.16080  Biso   1.000  H
  C48      1.0000 0.27877  0.93515  0.20199  Biso   1.000  C
  C49      1.0000 0.26752  0.86639  0.21983  Biso   1.000  C
  O15      1.0000 0.73587  0.36834  0.74683  Biso   1.000  O
  O16      1.0000 0.79247  0.31035  0.70662  Biso   1.000  O
  C50      1.0000 0.93780  0.44200  0.58350  Biso   1.000  C
  H36      1.0000 0.97170  0.40710  0.57830  Biso   1.000  H
  C51      1.0000 0.90150  0.44050  0.61317  Biso   1.000  C
  H37      1.0000 0.90840  0.40260  0.62760  Biso   1.000  H
  C52      1.0000 0.83510  0.54530  0.59858  Biso   1.000  C
  H38      1.0000 0.79970  0.57940  0.60270  Biso   1.000  H
  C53      1.0000 0.86820  0.54500  0.56830  Biso   1.000  C
  H39      1.0000 0.85280  0.57760  0.55260  Biso   1.000  H
  C54      1.0000 0.80628  0.43527  0.67105  Biso   1.000  C
  H40      1.0000 0.81590  0.39180  0.66080  Biso   1.000  H
  C55      1.0000 0.77877  0.43515  0.70199  Biso   1.000  C
  C56      1.0000 0.76752  0.36639  0.71983  Biso   1.000  C
  O17      1.0000 0.86834  0.23587  0.75317  Biso   1.000  O
  O18      1.0000 0.81035  0.29247  0.79338  Biso   1.000  O
  C57      1.0000 0.94200  0.43780  0.91650  Biso   1.000  C
  H41      1.0000 0.90710  0.47170  0.92170  Biso   1.000  H
  C58      1.0000 0.94050  0.40150  0.88683  Biso   1.000  C
  H42      1.0000 0.90260  0.40840  0.87240  Biso   1.000  H
  C59      1.0000 0.04530  0.33510  0.90142  Biso   1.000  C
  H43      1.0000 0.07940  0.29970  0.89730  Biso   1.000  H
  C60      1.0000 0.04500  0.36820  0.93170  Biso   1.000  C
  H44      1.0000 0.07760  0.35280  0.94740  Biso   1.000  H
  C61      1.0000 0.93527  0.30628  0.82895  Biso   1.000  C
  H45      1.0000 0.89180  0.31590  0.83920  Biso   1.000  H
  C62      1.0000 0.93515  0.27877  0.79801  Biso   1.000  C
  C63      1.0000 0.86639  0.26752  0.78017  Biso   1.000  C
  O19      1.0000 0.36834  0.73587  0.25317  Biso   1.000  O
  O20      1.0000 0.31035  0.79247  0.29338  Biso   1.000  O
  C64      1.0000 0.44200  0.93780  0.41650  Biso   1.000  C
  H46      1.0000 0.40710  0.97170  0.42170  Biso   1.000  H
  C65      1.0000 0.44050  0.90150  0.38683  Biso   1.000  C
  H47      1.0000 0.40260  0.90840  0.37240  Biso   1.000  H
  C66      1.0000 0.54530  0.83510  0.40142  Biso   1.000  C
  H48      1.0000 0.57940  0.79970  0.39730  Biso   1.000  H
  C67      1.0000 0.54500  0.86820  0.43170  Biso   1.000  C
  H49      1.0000 0.57760  0.85280  0.44740  Biso   1.000  H
  C68      1.0000 0.43527  0.80628  0.32895  Biso   1.000  C
  H50      1.0000 0.39180  0.81590  0.33920  Biso   1.000  H
  C69      1.0000 0.43515  0.77877  0.29801  Biso   1.000  C
  C70      1.0000 0.36639  0.76752  0.28017  Biso   1.000  C
  O21      1.0000 0.13166  0.76413  0.75317  Biso   1.000  O
  O22      1.0000 0.18965  0.70753  0.79338  Biso   1.000  O
  C71      1.0000 0.05800  0.56220  0.91650  Biso   1.000  C
  H51      1.0000 0.09290  0.52830  0.92170  Biso   1.000  H
  C72      1.0000 0.05950  0.59850  0.88683  Biso   1.000  C
  H52      1.0000 0.09740  0.59160  0.87240  Biso   1.000  H
  C73      1.0000 0.95470  0.66490  0.90142  Biso   1.000  C
  H53      1.0000 0.92060  0.70030  0.89730  Biso   1.000  H
  C74      1.0000 0.95500  0.63180  0.93170  Biso   1.000  C
  H54      1.0000 0.92240  0.64720  0.94740  Biso   1.000  H
  C75      1.0000 0.06473  0.69372  0.82895  Biso   1.000  C
  H55      1.0000 0.10820  0.68410  0.83920  Biso   1.000  H
  C76      1.0000 0.06485  0.72123  0.79801  Biso   1.000  C
  C77      1.0000 0.13361  0.73248  0.78017  Biso   1.000  C
  O23      1.0000 0.63166  0.26413  0.25317  Biso   1.000  O
  O24      1.0000 0.68965  0.20753  0.29338  Biso   1.000  O
  C78      1.0000 0.55800  0.06220  0.41650  Biso   1.000  C
  H56      1.0000 0.59290  0.02830  0.42170  Biso   1.000  H
  C79      1.0000 0.55950  0.09850  0.38683  Biso   1.000  C
  H57      1.0000 0.59740  0.09160  0.37240  Biso   1.000  H
  C80      1.0000 0.45470  0.16490  0.40142  Biso   1.000  C
  H58      1.0000 0.42060  0.20030  0.39730  Biso   1.000  H
  C81      1.0000 0.45500  0.13180  0.43170  Biso   1.000  C
  H59      1.0000 0.42240  0.14720  0.44740  Biso   1.000  H
  C82      1.0000 0.56473  0.19372  0.32895  Biso   1.000  C
  H60      1.0000 0.60820  0.18410  0.33920  Biso   1.000  H
  C83      1.0000 0.56485  0.22123  0.29801  Biso   1.000  C
  C84      1.0000 0.63361  0.23248  0.28017  Biso   1.000  C
  O25      1.0000 0.23587  0.13166  0.75317  Biso   1.000  O
  O26      1.0000 0.29247  0.18965  0.79338  Biso   1.000  O
  C85      1.0000 0.43780  0.05800  0.91650  Biso   1.000  C
  H61      1.0000 0.47170  0.09290  0.92170  Biso   1.000  H
  C86      1.0000 0.40150  0.05950  0.88683  Biso   1.000  C
  H62      1.0000 0.40840  0.09740  0.87240  Biso   1.000  H
  C87      1.0000 0.33510  0.95470  0.90142  Biso   1.000  C
  H63      1.0000 0.29970  0.92060  0.89730  Biso   1.000  H
  C88      1.0000 0.36820  0.95500  0.93170  Biso   1.000  C
  H64      1.0000 0.35280  0.92240  0.94740  Biso   1.000  H
  C89      1.0000 0.30628  0.06473  0.82895  Biso   1.000  C
  H65      1.0000 0.31590  0.10820  0.83920  Biso   1.000  H
  C90      1.0000 0.27877  0.06485  0.79801  Biso   1.000  C
  C91      1.0000 0.26752  0.13361  0.78017  Biso   1.000  C
  O27      1.0000 0.73587  0.63166  0.25317  Biso   1.000  O
  O28      1.0000 0.79247  0.68965  0.29338  Biso   1.000  O
  C92      1.0000 0.93780  0.55800  0.41650  Biso   1.000  C
  H66      1.0000 0.97170  0.59290  0.42170  Biso   1.000  H
  C93      1.0000 0.90150  0.55950  0.38683  Biso   1.000  C
  H67      1.0000 0.90840  0.59740  0.37240  Biso   1.000  H
  C94      1.0000 0.83510  0.45470  0.40142  Biso   1.000  C
  H68      1.0000 0.79970  0.42060  0.39730  Biso   1.000  H
  C95      1.0000 0.86820  0.45500  0.43170  Biso   1.000  C
  H69      1.0000 0.85280  0.42240  0.44740  Biso   1.000  H
  C96      1.0000 0.80628  0.56473  0.32895  Biso   1.000  C
  H70      1.0000 0.81590  0.60820  0.33920  Biso   1.000  H
  C97      1.0000 0.77877  0.56485  0.29801  Biso   1.000  C
  C98      1.0000 0.76752  0.63361  0.28017  Biso   1.000  C
  O29      1.0000 0.76413  0.86834  0.75317  Biso   1.000  O
  O30      1.0000 0.70753  0.81035  0.79338  Biso   1.000  O
  C99      1.0000 0.56220  0.94200  0.91650  Biso   1.000  C
  H71      1.0000 0.52830  0.90710  0.92170  Biso   1.000  H
  C100     1.0000 0.59850  0.94050  0.88683  Biso   1.000  C
  H72      1.0000 0.59160  0.90260  0.87240  Biso   1.000  H
  C101     1.0000 0.66490  0.04530  0.90142  Biso   1.000  C
  H73      1.0000 0.70030  0.07940  0.89730  Biso   1.000  H
  C102     1.0000 0.63180  0.04500  0.93170  Biso   1.000  C
  H74      1.0000 0.64720  0.07760  0.94740  Biso   1.000  H
  C103     1.0000 0.69372  0.93527  0.82895  Biso   1.000  C
  H75      1.0000 0.68410  0.89180  0.83920  Biso   1.000  H
  C104     1.0000 0.72123  0.93515  0.79801  Biso   1.000  C
  C105     1.0000 0.73248  0.86639  0.78017  Biso   1.000  C
  O31      1.0000 0.26413  0.36834  0.25317  Biso   1.000  O
  O32      1.0000 0.20753  0.31035  0.29338  Biso   1.000  O
  C106     1.0000 0.06220  0.44200  0.41650  Biso   1.000  C
  H76      1.0000 0.02830  0.40710  0.42170  Biso   1.000  H
  C107     1.0000 0.09850  0.44050  0.38683  Biso   1.000  C
  H77      1.0000 0.09160  0.40260  0.37240  Biso   1.000  H
  C108     1.0000 0.16490  0.54530  0.40142  Biso   1.000  C
  H78      1.0000 0.20030  0.57940  0.39730  Biso   1.000  H
  C109     1.0000 0.13180  0.54500  0.43170  Biso   1.000  C
  H79      1.0000 0.14720  0.57760  0.44740  Biso   1.000  H
  C110     1.0000 0.19372  0.43527  0.32895  Biso   1.000  C
  H80      1.0000 0.18410  0.39180  0.33920  Biso   1.000  H
  C111     1.0000 0.22123  0.43515  0.29801  Biso   1.000  C
  C112     1.0000 0.23248  0.36639  0.28017  Biso   1.000  C
  O33      1.0000 0.86834  0.76413  0.75317  Biso   1.000  O
  O34      1.0000 0.81035  0.70753  0.79338  Biso   1.000  O
  C113     1.0000 0.94200  0.56220  0.91650  Biso   1.000  C
  H81      1.0000 0.90710  0.52830  0.92170  Biso   1.000  H
  C114     1.0000 0.94050  0.59850  0.88683  Biso   1.000  C
  H82      1.0000 0.90260  0.59160  0.87240  Biso   1.000  H
  C115     1.0000 0.04530  0.66490  0.90142  Biso   1.000  C
  H83      1.0000 0.07940  0.70030  0.89730  Biso   1.000  H
  C116     1.0000 0.04500  0.63180  0.93170  Biso   1.000  C
  H84      1.0000 0.07760  0.64720  0.94740  Biso   1.000  H
  C117     1.0000 0.93527  0.69372  0.82895  Biso   1.000  C
  H85      1.0000 0.89180  0.68410  0.83920  Biso   1.000  H
  C118     1.0000 0.93515  0.72123  0.79801  Biso   1.000  C
  C119     1.0000 0.86639  0.73248  0.78017  Biso   1.000  C
  O35      1.0000 0.36834  0.26413  0.25317  Biso   1.000  O
  O36      1.0000 0.31035  0.20753  0.29338  Biso   1.000  O
  C120     1.0000 0.44200  0.06220  0.41650  Biso   1.000  C
  H86      1.0000 0.40710  0.02830  0.42170  Biso   1.000  H
  C121     1.0000 0.44050  0.09850  0.38683  Biso   1.000  C
  H87      1.0000 0.40260  0.09160  0.37240  Biso   1.000  H
  C122     1.0000 0.54530  0.16490  0.40142  Biso   1.000  C
  H88      1.0000 0.57940  0.20030  0.39730  Biso   1.000  H
  C123     1.0000 0.54500  0.13180  0.43170  Biso   1.000  C
  H89      1.0000 0.57760  0.14720  0.44740  Biso   1.000  H
  C124     1.0000 0.43527  0.19372  0.32895  Biso   1.000  C
  H90      1.0000 0.39180  0.18410  0.33920  Biso   1.000  H
  C125     1.0000 0.43515  0.22123  0.29801  Biso   1.000  C
  C126     1.0000 0.36639  0.23248  0.28017  Biso   1.000  C
  O37      1.0000 0.13166  0.23587  0.75317  Biso   1.000  O
  O38      1.0000 0.18965  0.29247  0.79338  Biso   1.000  O
  C127     1.0000 0.05800  0.43780  0.91650  Biso   1.000  C
  H91      1.0000 0.09290  0.47170  0.92170  Biso   1.000  H
  C128     1.0000 0.05950  0.40150  0.88683  Biso   1.000  C
  H92      1.0000 0.09740  0.40840  0.87240  Biso   1.000  H
  C129     1.0000 0.95470  0.33510  0.90142  Biso   1.000  C
  H93      1.0000 0.92060  0.29970  0.89730  Biso   1.000  H
  C130     1.0000 0.95500  0.36820  0.93170  Biso   1.000  C
  H94      1.0000 0.92240  0.35280  0.94740  Biso   1.000  H
  C131     1.0000 0.06473  0.30628  0.82895  Biso   1.000  C
  H95      1.0000 0.10820  0.31590  0.83920  Biso   1.000  H
  C132     1.0000 0.06485  0.27877  0.79801  Biso   1.000  C
  C133     1.0000 0.13361  0.26752  0.78017  Biso   1.000  C
  O39      1.0000 0.63166  0.73587  0.25317  Biso   1.000  O
  O40      1.0000 0.68965  0.79247  0.29338  Biso   1.000  O
  C134     1.0000 0.55800  0.93780  0.41650  Biso   1.000  C
  H96      1.0000 0.59290  0.97170  0.42170  Biso   1.000  H
  C135     1.0000 0.55950  0.90150  0.38683  Biso   1.000  C
  H97      1.0000 0.59740  0.90840  0.37240  Biso   1.000  H
  C136     1.0000 0.45470  0.83510  0.40142  Biso   1.000  C
  H98      1.0000 0.42060  0.79970  0.39730  Biso   1.000  H
  C137     1.0000 0.45500  0.86820  0.43170  Biso   1.000  C
  H99      1.0000 0.42240  0.85280  0.44740  Biso   1.000  H
  C138     1.0000 0.56473  0.80628  0.32895  Biso   1.000  C
  H100     1.0000 0.60820  0.81590  0.33920  Biso   1.000  H
  C139     1.0000 0.56485  0.77877  0.29801  Biso   1.000  C
  C140     1.0000 0.63361  0.76752  0.28017  Biso   1.000  C
  O41      1.0000 0.23587  0.86834  0.75317  Biso   1.000  O
  O42      1.0000 0.29247  0.81035  0.79338  Biso   1.000  O
  C141     1.0000 0.43780  0.94200  0.91650  Biso   1.000  C
  H101     1.0000 0.47170  0.90710  0.92170  Biso   1.000  H
  C142     1.0000 0.40150  0.94050  0.88683  Biso   1.000  C
  H102     1.0000 0.40840  0.90260  0.87240  Biso   1.000  H
  C143     1.0000 0.33510  0.04530  0.90142  Biso   1.000  C
  H103     1.0000 0.29970  0.07940  0.89730  Biso   1.000  H
  C144     1.0000 0.36820  0.04500  0.93170  Biso   1.000  C
  H104     1.0000 0.35280  0.07760  0.94740  Biso   1.000  H
  C145     1.0000 0.30628  0.93527  0.82895  Biso   1.000  C
  H105     1.0000 0.31590  0.89180  0.83920  Biso   1.000  H
  C146     1.0000 0.27877  0.93515  0.79801  Biso   1.000  C
  C147     1.0000 0.26752  0.86639  0.78017  Biso   1.000  C
  O43      1.0000 0.73587  0.36834  0.25317  Biso   1.000  O
  O44      1.0000 0.79247  0.31035  0.29338  Biso   1.000  O
  C148     1.0000 0.93780  0.44200  0.41650  Biso   1.000  C
  H106     1.0000 0.97170  0.40710  0.42170  Biso   1.000  H
  C149     1.0000 0.90150  0.44050  0.38683  Biso   1.000  C
  H107     1.0000 0.90840  0.40260  0.37240  Biso   1.000  H
  C150     1.0000 0.83510  0.54530  0.40142  Biso   1.000  C
  H108     1.0000 0.79970  0.57940  0.39730  Biso   1.000  H
  C151     1.0000 0.86820  0.54500  0.43170  Biso   1.000  C
  H109     1.0000 0.85280  0.57760  0.44740  Biso   1.000  H
  C152     1.0000 0.80628  0.43527  0.32895  Biso   1.000  C
  H110     1.0000 0.81590  0.39180  0.33920  Biso   1.000  H
  C153     1.0000 0.77877  0.43515  0.29801  Biso   1.000  C
  C154     1.0000 0.76752  0.36639  0.28017  Biso   1.000  C
  O45      1.0000 0.76413  0.13166  0.75317  Biso   1.000  O
  O46      1.0000 0.70753  0.18965  0.79338  Biso   1.000  O
  C155     1.0000 0.56220  0.05800  0.91650  Biso   1.000  C
  H111     1.0000 0.52830  0.09290  0.92170  Biso   1.000  H
  C156     1.0000 0.59850  0.05950  0.88683  Biso   1.000  C
  H112     1.0000 0.59160  0.09740  0.87240  Biso   1.000  H
  C157     1.0000 0.66490  0.95470  0.90142  Biso   1.000  C
  H113     1.0000 0.70030  0.92060  0.89730  Biso   1.000  H
  C158     1.0000 0.63180  0.95500  0.93170  Biso   1.000  C
  H114     1.0000 0.64720  0.92240  0.94740  Biso   1.000  H
  C159     1.0000 0.69372  0.06473  0.82895  Biso   1.000  C
  H115     1.0000 0.68410  0.10820  0.83920  Biso   1.000  H
  C160     1.0000 0.72123  0.06485  0.79801  Biso   1.000  C
  C161     1.0000 0.73248  0.13361  0.78017  Biso   1.000  C
  O47      1.0000 0.26413  0.63166  0.25317  Biso   1.000  O
  O48      1.0000 0.20753  0.68965  0.29338  Biso   1.000  O
  C162     1.0000 0.06220  0.55800  0.41650  Biso   1.000  C
  H116     1.0000 0.02830  0.59290  0.42170  Biso   1.000  H
  C163     1.0000 0.09850  0.55950  0.38683  Biso   1.000  C
  H117     1.0000 0.09160  0.59740  0.37240  Biso   1.000  H
  C164     1.0000 0.16490  0.45470  0.40142  Biso   1.000  C
  H118     1.0000 0.20030  0.42060  0.39730  Biso   1.000  H
  C165     1.0000 0.13180  0.45500  0.43170  Biso   1.000  C
  H119     1.0000 0.14720  0.42240  0.44740  Biso   1.000  H
  C166     1.0000 0.19372  0.56473  0.32895  Biso   1.000  C
  H120     1.0000 0.18410  0.60820  0.33920  Biso   1.000  H
  C167     1.0000 0.22123  0.56485  0.29801  Biso   1.000  C
  C168     1.0000 0.23248  0.63361  0.28017  Biso   1.000  C
  O49      1.0000 0.13166  0.76413  0.24683  Biso   1.000  O
  O50      1.0000 0.18965  0.70753  0.20662  Biso   1.000  O
  C169     1.0000 0.05800  0.56220  0.08350  Biso   1.000  C
  H121     1.0000 0.09290  0.52830  0.07830  Biso   1.000  H
  C170     1.0000 0.05950  0.59850  0.11317  Biso   1.000  C
  H122     1.0000 0.09740  0.59160  0.12760  Biso   1.000  H
  C171     1.0000 0.95470  0.66490  0.09858  Biso   1.000  C
  H123     1.0000 0.92060  0.70030  0.10270  Biso   1.000  H
  C172     1.0000 0.95500  0.63180  0.06830  Biso   1.000  C
  H124     1.0000 0.92240  0.64720  0.05260  Biso   1.000  H
  C173     1.0000 0.06473  0.69372  0.17105  Biso   1.000  C
  H125     1.0000 0.10820  0.68410  0.16080  Biso   1.000  H
  C174     1.0000 0.06485  0.72123  0.20199  Biso   1.000  C
  C175     1.0000 0.13361  0.73248  0.21983  Biso   1.000  C
  O51      1.0000 0.63166  0.26413  0.74683  Biso   1.000  O
  O52      1.0000 0.68965  0.20753  0.70662  Biso   1.000  O
  C176     1.0000 0.55800  0.06220  0.58350  Biso   1.000  C
  H126     1.0000 0.59290  0.02830  0.57830  Biso   1.000  H
  C177     1.0000 0.55950  0.09850  0.61317  Biso   1.000  C
  H127     1.0000 0.59740  0.09160  0.62760  Biso   1.000  H
  C178     1.0000 0.45470  0.16490  0.59858  Biso   1.000  C
  H128     1.0000 0.42060  0.20030  0.60270  Biso   1.000  H
  C179     1.0000 0.45500  0.13180  0.56830  Biso   1.000  C
  H129     1.0000 0.42240  0.14720  0.55260  Biso   1.000  H
  C180     1.0000 0.56473  0.19372  0.67105  Biso   1.000  C
  H130     1.0000 0.60820  0.18410  0.66080  Biso   1.000  H
  C181     1.0000 0.56485  0.22123  0.70199  Biso   1.000  C
  C182     1.0000 0.63361  0.23248  0.71983  Biso   1.000  C
  O53      1.0000 0.86834  0.23587  0.24683  Biso   1.000  O
  O54      1.0000 0.81035  0.29247  0.20662  Biso   1.000  O
  C183     1.0000 0.94200  0.43780  0.08350  Biso   1.000  C
  H131     1.0000 0.90710  0.47170  0.07830  Biso   1.000  H
  C184     1.0000 0.94050  0.40150  0.11317  Biso   1.000  C
  H132     1.0000 0.90260  0.40840  0.12760  Biso   1.000  H
  C185     1.0000 0.04530  0.33510  0.09858  Biso   1.000  C
  H133     1.0000 0.07940  0.29970  0.10270  Biso   1.000  H
  C186     1.0000 0.04500  0.36820  0.06830  Biso   1.000  C
  H134     1.0000 0.07760  0.35280  0.05260  Biso   1.000  H
  C187     1.0000 0.93527  0.30628  0.17105  Biso   1.000  C
  H135     1.0000 0.89180  0.31590  0.16080  Biso   1.000  H
  C188     1.0000 0.93515  0.27877  0.20199  Biso   1.000  C
  C189     1.0000 0.86639  0.26752  0.21983  Biso   1.000  C
  O55      1.0000 0.36834  0.73587  0.74683  Biso   1.000  O
  O56      1.0000 0.31035  0.79247  0.70662  Biso   1.000  O
  C190     1.0000 0.44200  0.93780  0.58350  Biso   1.000  C
  H136     1.0000 0.40710  0.97170  0.57830  Biso   1.000  H
  C191     1.0000 0.44050  0.90150  0.61317  Biso   1.000  C
  H137     1.0000 0.40260  0.90840  0.62760  Biso   1.000  H
  C192     1.0000 0.54530  0.83510  0.59858  Biso   1.000  C
  H138     1.0000 0.57940  0.79970  0.60270  Biso   1.000  H
  C193     1.0000 0.54500  0.86820  0.56830  Biso   1.000  C
  H139     1.0000 0.57760  0.85280  0.55260  Biso   1.000  H
  C194     1.0000 0.43527  0.80628  0.67105  Biso   1.000  C
  H140     1.0000 0.39180  0.81590  0.66080  Biso   1.000  H
  C195     1.0000 0.43515  0.77877  0.70199  Biso   1.000  C
  C196     1.0000 0.36639  0.76752  0.71983  Biso   1.000  C
  O57      1.0000 0.76413  0.86834  0.24683  Biso   1.000  O
  O58      1.0000 0.70753  0.81035  0.20662  Biso   1.000  O
  C197     1.0000 0.56220  0.94200  0.08350  Biso   1.000  C
  H141     1.0000 0.52830  0.90710  0.07830  Biso   1.000  H
  C198     1.0000 0.59850  0.94050  0.11317  Biso   1.000  C
  H142     1.0000 0.59160  0.90260  0.12760  Biso   1.000  H
  C199     1.0000 0.66490  0.04530  0.09858  Biso   1.000  C
  H143     1.0000 0.70030  0.07940  0.10270  Biso   1.000  H
  C200     1.0000 0.63180  0.04500  0.06830  Biso   1.000  C
  H144     1.0000 0.64720  0.07760  0.05260  Biso   1.000  H
  C201     1.0000 0.69372  0.93527  0.17105  Biso   1.000  C
  H145     1.0000 0.68410  0.89180  0.16080  Biso   1.000  H
  C202     1.0000 0.72123  0.93515  0.20199  Biso   1.000  C
  C203     1.0000 0.73248  0.86639  0.21983  Biso   1.000  C
  O59      1.0000 0.26413  0.36834  0.74683  Biso   1.000  O
  O60      1.0000 0.20753  0.31035  0.70662  Biso   1.000  O
  C204     1.0000 0.06220  0.44200  0.58350  Biso   1.000  C
  H146     1.0000 0.02830  0.40710  0.57830  Biso   1.000  H
  C205     1.0000 0.09850  0.44050  0.61317  Biso   1.000  C
  H147     1.0000 0.09160  0.40260  0.62760  Biso   1.000  H
  C206     1.0000 0.16490  0.54530  0.59858  Biso   1.000  C
  H148     1.0000 0.20030  0.57940  0.60270  Biso   1.000  H
  C207     1.0000 0.13180  0.54500  0.56830  Biso   1.000  C
  H149     1.0000 0.14720  0.57760  0.55260  Biso   1.000  H
  C208     1.0000 0.19372  0.43527  0.67105  Biso   1.000  C
  H150     1.0000 0.18410  0.39180  0.66080  Biso   1.000  H
  C209     1.0000 0.22123  0.43515  0.70199  Biso   1.000  C
  C210     1.0000 0.23248  0.36639  0.71983  Biso   1.000  C
  O61      1.0000 0.23587  0.13166  0.24683  Biso   1.000  O
  O62      1.0000 0.29247  0.18965  0.20662  Biso   1.000  O
  C211     1.0000 0.43780  0.05800  0.08350  Biso   1.000  C
  H151     1.0000 0.47170  0.09290  0.07830  Biso   1.000  H
  C212     1.0000 0.40150  0.05950  0.11317  Biso   1.000  C
  H152     1.0000 0.40840  0.09740  0.12760  Biso   1.000  H
  C213     1.0000 0.33510  0.95470  0.09858  Biso   1.000  C
  H153     1.0000 0.29970  0.92060  0.10270  Biso   1.000  H
  C214     1.0000 0.36820  0.95500  0.06830  Biso   1.000  C
  H154     1.0000 0.35280  0.92240  0.05260  Biso   1.000  H
  C215     1.0000 0.30628  0.06473  0.17105  Biso   1.000  C
  H155     1.0000 0.31590  0.10820  0.16080  Biso   1.000  H
  C216     1.0000 0.27877  0.06485  0.20199  Biso   1.000  C
  C217     1.0000 0.26752  0.13361  0.21983  Biso   1.000  C
  O63      1.0000 0.73587  0.63166  0.74683  Biso   1.000  O
  O64      1.0000 0.79247  0.68965  0.70662  Biso   1.000  O
  C218     1.0000 0.93780  0.55800  0.58350  Biso   1.000  C
  H156     1.0000 0.97170  0.59290  0.57830  Biso   1.000  H
  C219     1.0000 0.90150  0.55950  0.61317  Biso   1.000  C
  H157     1.0000 0.90840  0.59740  0.62760  Biso   1.000  H
  C220     1.0000 0.83510  0.45470  0.59858  Biso   1.000  C
  H158     1.0000 0.79970  0.42060  0.60270  Biso   1.000  H
  C221     1.0000 0.86820  0.45500  0.56830  Biso   1.000  C
  H159     1.0000 0.85280  0.42240  0.55260  Biso   1.000  H
  C222     1.0000 0.80628  0.56473  0.67105  Biso   1.000  C
  H160     1.0000 0.81590  0.60820  0.66080  Biso   1.000  H
  C223     1.0000 0.77877  0.56485  0.70199  Biso   1.000  C
  C224     1.0000 0.76752  0.63361  0.71983  Biso   1.000  C
  Cu1      1.0000 0.28407  0.28407  0.22665  Biso   1.000  Cu
  Cu2      1.0000 0.78407  0.78407  0.72665  Biso   1.000  Cu
  Cu3      1.0000 0.71593  0.71593  0.22665  Biso   1.000  Cu
  Cu4      1.0000 0.21593  0.21593  0.72665  Biso   1.000  Cu
  Cu5      1.0000 0.71593  0.28407  0.22665  Biso   1.000  Cu
  Cu6      1.0000 0.21593  0.78407  0.72665  Biso   1.000  Cu
  Cu7      1.0000 0.28407  0.71593  0.22665  Biso   1.000  Cu
  Cu8      1.0000 0.78407  0.21593  0.72665  Biso   1.000  Cu
  Cu9      1.0000 0.71593  0.28407  0.77335  Biso   1.000  Cu
  Cu10     1.0000 0.21593  0.78407  0.27335  Biso   1.000  Cu
  Cu11     1.0000 0.28407  0.71593  0.77335  Biso   1.000  Cu
  Cu12     1.0000 0.78407  0.21593  0.27335  Biso   1.000  Cu
  Cu13     1.0000 0.28407  0.28407  0.77335  Biso   1.000  Cu
  Cu14     1.0000 0.78407  0.78407  0.27335  Biso   1.000  Cu
  Cu15     1.0000 0.71593  0.71593  0.77335  Biso   1.000  Cu
  Cu16     1.0000 0.21593  0.21593  0.27335  Biso   1.000  Cu
  C225     1.0000 0.00000  0.42630  0.00000  Biso   1.000  C
  H161     1.0000 0.00000  0.37630  0.00000  Biso   1.000  H
  C226     1.0000 0.50000  0.92630  0.50000  Biso   1.000  C
  H162     1.0000 0.50000  0.87630  0.50000  Biso   1.000  H
  C227     1.0000 0.00000  0.57370  0.00000  Biso   1.000  C
  H163     1.0000 0.00000  0.62370  0.00000  Biso   1.000  H
  C228     1.0000 0.50000  0.07370  0.50000  Biso   1.000  C
  H164     1.0000 0.50000  0.12370  0.50000  Biso   1.000  H
  C229     1.0000 0.57370  0.00000  0.00000  Biso   1.000  C
  H165     1.0000 0.62370  0.00000  0.00000  Biso   1.000  H
  C230     1.0000 0.07370  0.50000  0.50000  Biso   1.000  C
  H166     1.0000 0.12370  0.50000  0.50000  Biso   1.000  H
  C231     1.0000 0.42630  0.00000  0.00000  Biso   1.000  C
  H167     1.0000 0.37630  0.00000  0.00000  Biso   1.000  H
  C232     1.0000 0.92630  0.50000  0.50000  Biso   1.000  C
  H168     1.0000 0.87630  0.50000  0.50000  Biso   1.000  H
  C233     1.0000 0.00000  0.46280  0.02950  Biso   1.000  C
  C234     1.0000 0.00000  0.42090  0.06085  Biso   1.000  C
  C235     1.0000 0.00000  0.35160  0.12139  Biso   1.000  C
  C236     1.0000 0.00000  0.32020  0.15463  Biso   1.000  C
  C237     1.0000 0.00000  0.26400  0.21787  Biso   1.000  C
  H169     1.0000 0.00000  0.24460  0.23880  Biso   1.000  H
  C238     1.0000 0.50000  0.96280  0.52950  Biso   1.000  C
  C239     1.0000 0.50000  0.92090  0.56085  Biso   1.000  C
  C240     1.0000 0.50000  0.85160  0.62139  Biso   1.000  C
  C241     1.0000 0.50000  0.82020  0.65463  Biso   1.000  C
  C242     1.0000 0.50000  0.76400  0.71787  Biso   1.000  C
  H170     1.0000 0.50000  0.74460  0.73880  Biso   1.000  H
  C243     1.0000 0.00000  0.53720  0.02950  Biso   1.000  C
  C244     1.0000 0.00000  0.57910  0.06085  Biso   1.000  C
  C245     1.0000 0.00000  0.64840  0.12139  Biso   1.000  C
  C246     1.0000 0.00000  0.67980  0.15463  Biso   1.000  C
  C247     1.0000 0.00000  0.73600  0.21787  Biso   1.000  C
  H171     1.0000 0.00000  0.75540  0.23880  Biso   1.000  H
  C248     1.0000 0.50000  0.03720  0.52950  Biso   1.000  C
  C249     1.0000 0.50000  0.07910  0.56085  Biso   1.000  C
  C250     1.0000 0.50000  0.14840  0.62139  Biso   1.000  C
  C251     1.0000 0.50000  0.17980  0.65463  Biso   1.000  C
  C252     1.0000 0.50000  0.23600  0.71787  Biso   1.000  C
  H172     1.0000 0.50000  0.25540  0.73880  Biso   1.000  H
  C253     1.0000 0.53720  0.00000  0.02950  Biso   1.000  C
  C254     1.0000 0.57910  0.00000  0.06085  Biso   1.000  C
  C255     1.0000 0.64840  0.00000  0.12139  Biso   1.000  C
  C256     1.0000 0.67980  0.00000  0.15463  Biso   1.000  C
  C257     1.0000 0.73600  0.00000  0.21787  Biso   1.000  C
  H173     1.0000 0.75540  0.00000  0.23880  Biso   1.000  H
  C258     1.0000 0.03720  0.50000  0.52950  Biso   1.000  C
  C259     1.0000 0.07910  0.50000  0.56085  Biso   1.000  C
  C260     1.0000 0.14840  0.50000  0.62139  Biso   1.000  C
  C261     1.0000 0.17980  0.50000  0.65463  Biso   1.000  C
  C262     1.0000 0.23600  0.50000  0.71787  Biso   1.000  C
  H174     1.0000 0.25540  0.50000  0.73880  Biso   1.000  H
  C263     1.0000 0.46280  0.00000  0.02950  Biso   1.000  C
  C264     1.0000 0.42090  0.00000  0.06085  Biso   1.000  C
  C265     1.0000 0.35160  0.00000  0.12139  Biso   1.000  C
  C266     1.0000 0.32020  0.00000  0.15463  Biso   1.000  C
  C267     1.0000 0.26400  0.00000  0.21787  Biso   1.000  C
  H175     1.0000 0.24460  0.00000  0.23880  Biso   1.000  H
  C268     1.0000 0.96280  0.50000  0.52950  Biso   1.000  C
  C269     1.0000 0.92090  0.50000  0.56085  Biso   1.000  C
  C270     1.0000 0.85160  0.50000  0.62139  Biso   1.000  C
  C271     1.0000 0.82020  0.50000  0.65463  Biso   1.000  C
  C272     1.0000 0.76400  0.50000  0.71787  Biso   1.000  C
  H176     1.0000 0.74460  0.50000  0.73880  Biso   1.000  H
  C273     1.0000 0.00000  0.46280  0.97050  Biso   1.000  C
  C274     1.0000 0.00000  0.42090  0.93915  Biso   1.000  C
  C275     1.0000 0.00000  0.35160  0.87861  Biso   1.000  C
  C276     1.0000 0.00000  0.32020  0.84537  Biso   1.000  C
  C277     1.0000 0.00000  0.26400  0.78213  Biso   1.000  C
  H177     1.0000 0.00000  0.24460  0.76120  Biso   1.000  H
  C278     1.0000 0.50000  0.96280  0.47050  Biso   1.000  C
  C279     1.0000 0.50000  0.92090  0.43915  Biso   1.000  C
  C280     1.0000 0.50000  0.85160  0.37861  Biso   1.000  C
  C281     1.0000 0.50000  0.82020  0.34537  Biso   1.000  C
  C282     1.0000 0.50000  0.76400  0.28213  Biso   1.000  C
  H178     1.0000 0.50000  0.74460  0.26120  Biso   1.000  H
  C283     1.0000 0.00000  0.53720  0.97050  Biso   1.000  C
  C284     1.0000 0.00000  0.57910  0.93915  Biso   1.000  C
  C285     1.0000 0.00000  0.64840  0.87861  Biso   1.000  C
  C286     1.0000 0.00000  0.67980  0.84537  Biso   1.000  C
  C287     1.0000 0.00000  0.73600  0.78213  Biso   1.000  C
  H179     1.0000 0.00000  0.75540  0.76120  Biso   1.000  H
  C288     1.0000 0.50000  0.03720  0.47050  Biso   1.000  C
  C289     1.0000 0.50000  0.07910  0.43915  Biso   1.000  C
  C290     1.0000 0.50000  0.14840  0.37861  Biso   1.000  C
  C291     1.0000 0.50000  0.17980  0.34537  Biso   1.000  C
  C292     1.0000 0.50000  0.23600  0.28213  Biso   1.000  C
  H180     1.0000 0.50000  0.25540  0.26120  Biso   1.000  H
  C293     1.0000 0.46280  0.00000  0.97050  Biso   1.000  C
  C294     1.0000 0.42090  0.00000  0.93915  Biso   1.000  C
  C295     1.0000 0.35160  0.00000  0.87861  Biso   1.000  C
  C296     1.0000 0.32020  0.00000  0.84537  Biso   1.000  C
  C297     1.0000 0.26400  0.00000  0.78213  Biso   1.000  C
  H181     1.0000 0.24460  0.00000  0.76120  Biso   1.000  H
  C298     1.0000 0.96280  0.50000  0.47050  Biso   1.000  C
  C299     1.0000 0.92090  0.50000  0.43915  Biso   1.000  C
  C300     1.0000 0.85160  0.50000  0.37861  Biso   1.000  C
  C301     1.0000 0.82020  0.50000  0.34537  Biso   1.000  C
  C302     1.0000 0.76400  0.50000  0.28213  Biso   1.000  C
  H182     1.0000 0.74460  0.50000  0.26120  Biso   1.000  H
  C303     1.0000 0.53720  0.00000  0.97050  Biso   1.000  C
  C304     1.0000 0.57910  0.00000  0.93915  Biso   1.000  C
  C305     1.0000 0.64840  0.00000  0.87861  Biso   1.000  C
  C306     1.0000 0.67980  0.00000  0.84537  Biso   1.000  C
  C307     1.0000 0.73600  0.00000  0.78213  Biso   1.000  C
  H183     1.0000 0.75540  0.00000  0.76120  Biso   1.000  H
  C308     1.0000 0.03720  0.50000  0.47050  Biso   1.000  C
  C309     1.0000 0.07910  0.50000  0.43915  Biso   1.000  C
  C310     1.0000 0.14840  0.50000  0.37861  Biso   1.000  C
  C311     1.0000 0.17980  0.50000  0.34537  Biso   1.000  C
  C312     1.0000 0.23600  0.50000  0.28213  Biso   1.000  C
  H184     1.0000 0.25540  0.50000  0.26120  Biso   1.000  H
