data_image0
_cell_length_a       18.5802
_cell_length_b       18.5802
_cell_length_c       45.903
_cell_angle_alpha    90
_cell_angle_beta     90
_cell_angle_gamma    90

_symmetry_space_group_name_H-M    "P 1"
_symmetry_int_tables_number       1

loop_
  _symmetry_equiv_pos_as_xyz
  'x, y, z'

loop_
  _atom_site_label
  _atom_site_occupancy
  _atom_site_fract_x
  _atom_site_fract_y
  _atom_site_fract_z
  _atom_site_thermal_displace_type
  _atom_site_B_iso_or_equiv
  _atom_site_type_symbol
  C1       1.0000 0.36586  0.23102  0.22327  Biso   1.000  C
  O1       1.0000 0.31040  0.20720  0.21121  Biso   1.000  O
  O2       1.0000 0.36897  0.26400  0.24734  Biso   1.000  O
  C2       1.0000 0.43546  0.21930  0.20773  Biso   1.000  C
  C3       1.0000 0.43527  0.19080  0.18009  Biso   1.000  C
  H1       1.0000 0.39170  0.18190  0.17080  Biso   1.000  H
  C4       1.0000 0.55620  0.06300  0.10079  Biso   1.000  C
  H2       1.0000 0.59220  0.03040  0.09590  Biso   1.000  H
  C5       1.0000 0.45240  0.12840  0.08821  Biso   1.000  C
  H3       1.0000 0.41780  0.14120  0.07450  Biso   1.000  H
  C6       1.0000 0.45040  0.16250  0.11499  Biso   1.000  C
  H4       1.0000 0.41600  0.19760  0.11890  Biso   1.000  H
  C7       1.0000 0.55660  0.09640  0.12757  Biso   1.000  C
  H5       1.0000 0.59420  0.08800  0.14050  Biso   1.000  H
  C8       1.0000 0.86586  0.73102  0.72327  Biso   1.000  C
  O3       1.0000 0.81040  0.70720  0.71121  Biso   1.000  O
  O4       1.0000 0.86897  0.76400  0.74734  Biso   1.000  O
  C9       1.0000 0.93546  0.71930  0.70773  Biso   1.000  C
  C10      1.0000 0.93527  0.69080  0.68009  Biso   1.000  C
  H6       1.0000 0.89170  0.68190  0.67080  Biso   1.000  H
  C11      1.0000 0.05620  0.56300  0.60079  Biso   1.000  C
  H7       1.0000 0.09220  0.53040  0.59590  Biso   1.000  H
  C12      1.0000 0.95240  0.62840  0.58821  Biso   1.000  C
  H8       1.0000 0.91780  0.64120  0.57450  Biso   1.000  H
  C13      1.0000 0.95040  0.66250  0.61499  Biso   1.000  C
  H9       1.0000 0.91600  0.69760  0.61890  Biso   1.000  H
  C14      1.0000 0.05660  0.59640  0.62757  Biso   1.000  C
  H10      1.0000 0.09420  0.58800  0.64050  Biso   1.000  H
  C15      1.0000 0.63414  0.76898  0.22327  Biso   1.000  C
  O5       1.0000 0.68960  0.79280  0.21121  Biso   1.000  O
  O6       1.0000 0.63103  0.73600  0.24734  Biso   1.000  O
  C16      1.0000 0.56454  0.78070  0.20773  Biso   1.000  C
  C17      1.0000 0.56473  0.80920  0.18009  Biso   1.000  C
  H11      1.0000 0.60830  0.81810  0.17080  Biso   1.000  H
  C18      1.0000 0.44380  0.93700  0.10079  Biso   1.000  C
  H12      1.0000 0.40780  0.96960  0.09590  Biso   1.000  H
  C19      1.0000 0.54760  0.87160  0.08821  Biso   1.000  C
  H13      1.0000 0.58220  0.85880  0.07450  Biso   1.000  H
  C20      1.0000 0.54960  0.83750  0.11499  Biso   1.000  C
  H14      1.0000 0.58400  0.80240  0.11890  Biso   1.000  H
  C21      1.0000 0.44340  0.90360  0.12757  Biso   1.000  C
  H15      1.0000 0.40580  0.91200  0.14050  Biso   1.000  H
  C22      1.0000 0.13414  0.26898  0.72327  Biso   1.000  C
  O7       1.0000 0.18960  0.29280  0.71121  Biso   1.000  O
  O8       1.0000 0.13103  0.23600  0.74734  Biso   1.000  O
  C23      1.0000 0.06454  0.28070  0.70773  Biso   1.000  C
  C24      1.0000 0.06473  0.30920  0.68009  Biso   1.000  C
  H16      1.0000 0.10830  0.31810  0.67080  Biso   1.000  H
  C25      1.0000 0.94380  0.43700  0.60079  Biso   1.000  C
  H17      1.0000 0.90780  0.46960  0.59590  Biso   1.000  H
  C26      1.0000 0.04760  0.37160  0.58821  Biso   1.000  C
  H18      1.0000 0.08220  0.35880  0.57450  Biso   1.000  H
  C27      1.0000 0.04960  0.33750  0.61499  Biso   1.000  C
  H19      1.0000 0.08400  0.30240  0.61890  Biso   1.000  H
  C28      1.0000 0.94340  0.40360  0.62757  Biso   1.000  C
  H20      1.0000 0.90580  0.41200  0.64050  Biso   1.000  H
  C29      1.0000 0.76898  0.36586  0.22327  Biso   1.000  C
  O9       1.0000 0.79280  0.31040  0.21121  Biso   1.000  O
  O10      1.0000 0.73600  0.36897  0.24734  Biso   1.000  O
  C30      1.0000 0.78070  0.43546  0.20773  Biso   1.000  C
  C31      1.0000 0.80920  0.43527  0.18009  Biso   1.000  C
  H21      1.0000 0.81810  0.39170  0.17080  Biso   1.000  H
  C32      1.0000 0.93700  0.55620  0.10079  Biso   1.000  C
  H22      1.0000 0.96960  0.59220  0.09590  Biso   1.000  H
  C33      1.0000 0.87160  0.45240  0.08821  Biso   1.000  C
  H23      1.0000 0.85880  0.41780  0.07450  Biso   1.000  H
  C34      1.0000 0.83750  0.45040  0.11499  Biso   1.000  C
  H24      1.0000 0.80240  0.41600  0.11890  Biso   1.000  H
  C35      1.0000 0.90360  0.55660  0.12757  Biso   1.000  C
  H25      1.0000 0.91200  0.59420  0.14050  Biso   1.000  H
  C36      1.0000 0.26898  0.86586  0.72327  Biso   1.000  C
  O11      1.0000 0.29280  0.81040  0.71121  Biso   1.000  O
  O12      1.0000 0.23600  0.86897  0.74734  Biso   1.000  O
  C37      1.0000 0.28070  0.93546  0.70773  Biso   1.000  C
  C38      1.0000 0.30920  0.93527  0.68009  Biso   1.000  C
  H26      1.0000 0.31810  0.89170  0.67080  Biso   1.000  H
  C39      1.0000 0.43700  0.05620  0.60079  Biso   1.000  C
  H27      1.0000 0.46960  0.09220  0.59590  Biso   1.000  H
  C40      1.0000 0.37160  0.95240  0.58821  Biso   1.000  C
  H28      1.0000 0.35880  0.91780  0.57450  Biso   1.000  H
  C41      1.0000 0.33750  0.95040  0.61499  Biso   1.000  C
  H29      1.0000 0.30240  0.91600  0.61890  Biso   1.000  H
  C42      1.0000 0.40360  0.05660  0.62757  Biso   1.000  C
  H30      1.0000 0.41200  0.09420  0.64050  Biso   1.000  H
  C43      1.0000 0.23102  0.63414  0.22327  Biso   1.000  C
  O13      1.0000 0.20720  0.68960  0.21121  Biso   1.000  O
  O14      1.0000 0.26400  0.63103  0.24734  Biso   1.000  O
  C44      1.0000 0.21930  0.56454  0.20773  Biso   1.000  C
  C45      1.0000 0.19080  0.56473  0.18009  Biso   1.000  C
  H31      1.0000 0.18190  0.60830  0.17080  Biso   1.000  H
  C46      1.0000 0.06300  0.44380  0.10079  Biso   1.000  C
  H32      1.0000 0.03040  0.40780  0.09590  Biso   1.000  H
  C47      1.0000 0.12840  0.54760  0.08821  Biso   1.000  C
  H33      1.0000 0.14120  0.58220  0.07450  Biso   1.000  H
  C48      1.0000 0.16250  0.54960  0.11499  Biso   1.000  C
  H34      1.0000 0.19760  0.58400  0.11890  Biso   1.000  H
  C49      1.0000 0.09640  0.44340  0.12757  Biso   1.000  C
  H35      1.0000 0.08800  0.40580  0.14050  Biso   1.000  H
  C50      1.0000 0.73102  0.13414  0.72327  Biso   1.000  C
  O15      1.0000 0.70720  0.18960  0.71121  Biso   1.000  O
  O16      1.0000 0.76400  0.13103  0.74734  Biso   1.000  O
  C51      1.0000 0.71930  0.06454  0.70773  Biso   1.000  C
  C52      1.0000 0.69080  0.06473  0.68009  Biso   1.000  C
  H36      1.0000 0.68190  0.10830  0.67080  Biso   1.000  H
  C53      1.0000 0.56300  0.94380  0.60079  Biso   1.000  C
  H37      1.0000 0.53040  0.90780  0.59590  Biso   1.000  H
  C54      1.0000 0.62840  0.04760  0.58821  Biso   1.000  C
  H38      1.0000 0.64120  0.08220  0.57450  Biso   1.000  H
  C55      1.0000 0.66250  0.04960  0.61499  Biso   1.000  C
  H39      1.0000 0.69760  0.08400  0.61890  Biso   1.000  H
  C56      1.0000 0.59640  0.94340  0.62757  Biso   1.000  C
  H40      1.0000 0.58800  0.90580  0.64050  Biso   1.000  H
  C57      1.0000 0.63414  0.23102  0.77673  Biso   1.000  C
  O17      1.0000 0.68960  0.20720  0.78879  Biso   1.000  O
  O18      1.0000 0.63103  0.26400  0.75266  Biso   1.000  O
  C58      1.0000 0.56454  0.21930  0.79227  Biso   1.000  C
  C59      1.0000 0.56473  0.19080  0.81991  Biso   1.000  C
  H41      1.0000 0.60830  0.18190  0.82920  Biso   1.000  H
  C60      1.0000 0.44380  0.06300  0.89921  Biso   1.000  C
  H42      1.0000 0.40780  0.03040  0.90410  Biso   1.000  H
  C61      1.0000 0.54760  0.12840  0.91179  Biso   1.000  C
  H43      1.0000 0.58220  0.14120  0.92550  Biso   1.000  H
  C62      1.0000 0.54960  0.16250  0.88501  Biso   1.000  C
  H44      1.0000 0.58400  0.19760  0.88110  Biso   1.000  H
  C63      1.0000 0.44340  0.09640  0.87243  Biso   1.000  C
  H45      1.0000 0.40580  0.08800  0.85950  Biso   1.000  H
  C64      1.0000 0.13414  0.73102  0.27673  Biso   1.000  C
  O19      1.0000 0.18960  0.70720  0.28879  Biso   1.000  O
  O20      1.0000 0.13103  0.76400  0.25266  Biso   1.000  O
  C65      1.0000 0.06454  0.71930  0.29227  Biso   1.000  C
  C66      1.0000 0.06473  0.69080  0.31991  Biso   1.000  C
  H46      1.0000 0.10830  0.68190  0.32920  Biso   1.000  H
  C67      1.0000 0.94380  0.56300  0.39921  Biso   1.000  C
  H47      1.0000 0.90780  0.53040  0.40410  Biso   1.000  H
  C68      1.0000 0.04760  0.62840  0.41179  Biso   1.000  C
  H48      1.0000 0.08220  0.64120  0.42550  Biso   1.000  H
  C69      1.0000 0.04960  0.66250  0.38501  Biso   1.000  C
  H49      1.0000 0.08400  0.69760  0.38110  Biso   1.000  H
  C70      1.0000 0.94340  0.59640  0.37243  Biso   1.000  C
  H50      1.0000 0.90580  0.58800  0.35950  Biso   1.000  H
  C71      1.0000 0.36586  0.76898  0.77673  Biso   1.000  C
  O21      1.0000 0.31040  0.79280  0.78879  Biso   1.000  O
  O22      1.0000 0.36897  0.73600  0.75266  Biso   1.000  O
  C72      1.0000 0.43546  0.78070  0.79227  Biso   1.000  C
  C73      1.0000 0.43527  0.80920  0.81991  Biso   1.000  C
  H51      1.0000 0.39170  0.81810  0.82920  Biso   1.000  H
  C74      1.0000 0.55620  0.93700  0.89921  Biso   1.000  C
  H52      1.0000 0.59220  0.96960  0.90410  Biso   1.000  H
  C75      1.0000 0.45240  0.87160  0.91179  Biso   1.000  C
  H53      1.0000 0.41780  0.85880  0.92550  Biso   1.000  H
  C76      1.0000 0.45040  0.83750  0.88501  Biso   1.000  C
  H54      1.0000 0.41600  0.80240  0.88110  Biso   1.000  H
  C77      1.0000 0.55660  0.90360  0.87243  Biso   1.000  C
  H55      1.0000 0.59420  0.91200  0.85950  Biso   1.000  H
  C78      1.0000 0.86586  0.26898  0.27673  Biso   1.000  C
  O23      1.0000 0.81040  0.29280  0.28879  Biso   1.000  O
  O24      1.0000 0.86897  0.23600  0.25266  Biso   1.000  O
  C79      1.0000 0.93546  0.28070  0.29227  Biso   1.000  C
  C80      1.0000 0.93527  0.30920  0.31991  Biso   1.000  C
  H56      1.0000 0.89170  0.31810  0.32920  Biso   1.000  H
  C81      1.0000 0.05620  0.43700  0.39921  Biso   1.000  C
  H57      1.0000 0.09220  0.46960  0.40410  Biso   1.000  H
  C82      1.0000 0.95240  0.37160  0.41179  Biso   1.000  C
  H58      1.0000 0.91780  0.35880  0.42550  Biso   1.000  H
  C83      1.0000 0.95040  0.33750  0.38501  Biso   1.000  C
  H59      1.0000 0.91600  0.30240  0.38110  Biso   1.000  H
  C84      1.0000 0.05660  0.40360  0.37243  Biso   1.000  C
  H60      1.0000 0.09420  0.41200  0.35950  Biso   1.000  H
  C85      1.0000 0.23102  0.36586  0.77673  Biso   1.000  C
  O25      1.0000 0.20720  0.31040  0.78879  Biso   1.000  O
  O26      1.0000 0.26400  0.36897  0.75266  Biso   1.000  O
  C86      1.0000 0.21930  0.43546  0.79227  Biso   1.000  C
  C87      1.0000 0.19080  0.43527  0.81991  Biso   1.000  C
  H61      1.0000 0.18190  0.39170  0.82920  Biso   1.000  H
  C88      1.0000 0.06300  0.55620  0.89921  Biso   1.000  C
  H62      1.0000 0.03040  0.59220  0.90410  Biso   1.000  H
  C89      1.0000 0.12840  0.45240  0.91179  Biso   1.000  C
  H63      1.0000 0.14120  0.41780  0.92550  Biso   1.000  H
  C90      1.0000 0.16250  0.45040  0.88501  Biso   1.000  C
  H64      1.0000 0.19760  0.41600  0.88110  Biso   1.000  H
  C91      1.0000 0.09640  0.55660  0.87243  Biso   1.000  C
  H65      1.0000 0.08800  0.59420  0.85950  Biso   1.000  H
  C92      1.0000 0.73102  0.86586  0.27673  Biso   1.000  C
  O27      1.0000 0.70720  0.81040  0.28879  Biso   1.000  O
  O28      1.0000 0.76400  0.86897  0.25266  Biso   1.000  O
  C93      1.0000 0.71930  0.93546  0.29227  Biso   1.000  C
  C94      1.0000 0.69080  0.93527  0.31991  Biso   1.000  C
  H66      1.0000 0.68190  0.89170  0.32920  Biso   1.000  H
  C95      1.0000 0.56300  0.05620  0.39921  Biso   1.000  C
  H67      1.0000 0.53040  0.09220  0.40410  Biso   1.000  H
  C96      1.0000 0.62840  0.95240  0.41179  Biso   1.000  C
  H68      1.0000 0.64120  0.91780  0.42550  Biso   1.000  H
  C97      1.0000 0.66250  0.95040  0.38501  Biso   1.000  C
  H69      1.0000 0.69760  0.91600  0.38110  Biso   1.000  H
  C98      1.0000 0.59640  0.05660  0.37243  Biso   1.000  C
  H70      1.0000 0.58800  0.09420  0.35950  Biso   1.000  H
  C99      1.0000 0.76898  0.63414  0.77673  Biso   1.000  C
  O29      1.0000 0.79280  0.68960  0.78879  Biso   1.000  O
  O30      1.0000 0.73600  0.63103  0.75266  Biso   1.000  O
  C100     1.0000 0.78070  0.56454  0.79227  Biso   1.000  C
  C101     1.0000 0.80920  0.56473  0.81991  Biso   1.000  C
  H71      1.0000 0.81810  0.60830  0.82920  Biso   1.000  H
  C102     1.0000 0.93700  0.44380  0.89921  Biso   1.000  C
  H72      1.0000 0.96960  0.40780  0.90410  Biso   1.000  H
  C103     1.0000 0.87160  0.54760  0.91179  Biso   1.000  C
  H73      1.0000 0.85880  0.58220  0.92550  Biso   1.000  H
  C104     1.0000 0.83750  0.54960  0.88501  Biso   1.000  C
  H74      1.0000 0.80240  0.58400  0.88110  Biso   1.000  H
  C105     1.0000 0.90360  0.44340  0.87243  Biso   1.000  C
  H75      1.0000 0.91200  0.40580  0.85950  Biso   1.000  H
  C106     1.0000 0.26898  0.13414  0.27673  Biso   1.000  C
  O31      1.0000 0.29280  0.18960  0.28879  Biso   1.000  O
  O32      1.0000 0.23600  0.13103  0.25266  Biso   1.000  O
  C107     1.0000 0.28070  0.06454  0.29227  Biso   1.000  C
  C108     1.0000 0.30920  0.06473  0.31991  Biso   1.000  C
  H76      1.0000 0.31810  0.10830  0.32920  Biso   1.000  H
  C109     1.0000 0.43700  0.94380  0.39921  Biso   1.000  C
  H77      1.0000 0.46960  0.90780  0.40410  Biso   1.000  H
  C110     1.0000 0.37160  0.04760  0.41179  Biso   1.000  C
  H78      1.0000 0.35880  0.08220  0.42550  Biso   1.000  H
  C111     1.0000 0.33750  0.04960  0.38501  Biso   1.000  C
  H79      1.0000 0.30240  0.08400  0.38110  Biso   1.000  H
  C112     1.0000 0.40360  0.94340  0.37243  Biso   1.000  C
  H80      1.0000 0.41200  0.90580  0.35950  Biso   1.000  H
  C113     1.0000 0.63414  0.76898  0.77673  Biso   1.000  C
  O33      1.0000 0.68960  0.79280  0.78879  Biso   1.000  O
  O34      1.0000 0.63103  0.73600  0.75266  Biso   1.000  O
  C114     1.0000 0.56454  0.78070  0.79227  Biso   1.000  C
  C115     1.0000 0.56473  0.80920  0.81991  Biso   1.000  C
  H81      1.0000 0.60830  0.81810  0.82920  Biso   1.000  H
  C116     1.0000 0.44380  0.93700  0.89921  Biso   1.000  C
  H82      1.0000 0.40780  0.96960  0.90410  Biso   1.000  H
  C117     1.0000 0.54760  0.87160  0.91179  Biso   1.000  C
  H83      1.0000 0.58220  0.85880  0.92550  Biso   1.000  H
  C118     1.0000 0.54960  0.83750  0.88501  Biso   1.000  C
  H84      1.0000 0.58400  0.80240  0.88110  Biso   1.000  H
  C119     1.0000 0.44340  0.90360  0.87243  Biso   1.000  C
  H85      1.0000 0.40580  0.91200  0.85950  Biso   1.000  H
  C120     1.0000 0.13414  0.26898  0.27673  Biso   1.000  C
  O35      1.0000 0.18960  0.29280  0.28879  Biso   1.000  O
  O36      1.0000 0.13103  0.23600  0.25266  Biso   1.000  O
  C121     1.0000 0.06454  0.28070  0.29227  Biso   1.000  C
  C122     1.0000 0.06473  0.30920  0.31991  Biso   1.000  C
  H86      1.0000 0.10830  0.31810  0.32920  Biso   1.000  H
  C123     1.0000 0.94380  0.43700  0.39921  Biso   1.000  C
  H87      1.0000 0.90780  0.46960  0.40410  Biso   1.000  H
  C124     1.0000 0.04760  0.37160  0.41179  Biso   1.000  C
  H88      1.0000 0.08220  0.35880  0.42550  Biso   1.000  H
  C125     1.0000 0.04960  0.33750  0.38501  Biso   1.000  C
  H89      1.0000 0.08400  0.30240  0.38110  Biso   1.000  H
  C126     1.0000 0.94340  0.40360  0.37243  Biso   1.000  C
  H90      1.0000 0.90580  0.41200  0.35950  Biso   1.000  H
  C127     1.0000 0.36586  0.23102  0.77673  Biso   1.000  C
  O37      1.0000 0.31040  0.20720  0.78879  Biso   1.000  O
  O38      1.0000 0.36897  0.26400  0.75266  Biso   1.000  O
  C128     1.0000 0.43546  0.21930  0.79227  Biso   1.000  C
  C129     1.0000 0.43527  0.19080  0.81991  Biso   1.000  C
  H91      1.0000 0.39170  0.18190  0.82920  Biso   1.000  H
  C130     1.0000 0.55620  0.06300  0.89921  Biso   1.000  C
  H92      1.0000 0.59220  0.03040  0.90410  Biso   1.000  H
  C131     1.0000 0.45240  0.12840  0.91179  Biso   1.000  C
  H93      1.0000 0.41780  0.14120  0.92550  Biso   1.000  H
  C132     1.0000 0.45040  0.16250  0.88501  Biso   1.000  C
  H94      1.0000 0.41600  0.19760  0.88110  Biso   1.000  H
  C133     1.0000 0.55660  0.09640  0.87243  Biso   1.000  C
  H95      1.0000 0.59420  0.08800  0.85950  Biso   1.000  H
  C134     1.0000 0.86586  0.73102  0.27673  Biso   1.000  C
  O39      1.0000 0.81040  0.70720  0.28879  Biso   1.000  O
  O40      1.0000 0.86897  0.76400  0.25266  Biso   1.000  O
  C135     1.0000 0.93546  0.71930  0.29227  Biso   1.000  C
  C136     1.0000 0.93527  0.69080  0.31991  Biso   1.000  C
  H96      1.0000 0.89170  0.68190  0.32920  Biso   1.000  H
  C137     1.0000 0.05620  0.56300  0.39921  Biso   1.000  C
  H97      1.0000 0.09220  0.53040  0.40410  Biso   1.000  H
  C138     1.0000 0.95240  0.62840  0.41179  Biso   1.000  C
  H98      1.0000 0.91780  0.64120  0.42550  Biso   1.000  H
  C139     1.0000 0.95040  0.66250  0.38501  Biso   1.000  C
  H99      1.0000 0.91600  0.69760  0.38110  Biso   1.000  H
  C140     1.0000 0.05660  0.59640  0.37243  Biso   1.000  C
  H100     1.0000 0.09420  0.58800  0.35950  Biso   1.000  H
  C141     1.0000 0.23102  0.63414  0.77673  Biso   1.000  C
  O41      1.0000 0.20720  0.68960  0.78879  Biso   1.000  O
  O42      1.0000 0.26400  0.63103  0.75266  Biso   1.000  O
  C142     1.0000 0.21930  0.56454  0.79227  Biso   1.000  C
  C143     1.0000 0.19080  0.56473  0.81991  Biso   1.000  C
  H101     1.0000 0.18190  0.60830  0.82920  Biso   1.000  H
  C144     1.0000 0.06300  0.44380  0.89921  Biso   1.000  C
  H102     1.0000 0.03040  0.40780  0.90410  Biso   1.000  H
  C145     1.0000 0.12840  0.54760  0.91179  Biso   1.000  C
  H103     1.0000 0.14120  0.58220  0.92550  Biso   1.000  H
  C146     1.0000 0.16250  0.54960  0.88501  Biso   1.000  C
  H104     1.0000 0.19760  0.58400  0.88110  Biso   1.000  H
  C147     1.0000 0.09640  0.44340  0.87243  Biso   1.000  C
  H105     1.0000 0.08800  0.40580  0.85950  Biso   1.000  H
  C148     1.0000 0.73102  0.13414  0.27673  Biso   1.000  C
  O43      1.0000 0.70720  0.18960  0.28879  Biso   1.000  O
  O44      1.0000 0.76400  0.13103  0.25266  Biso   1.000  O
  C149     1.0000 0.71930  0.06454  0.29227  Biso   1.000  C
  C150     1.0000 0.69080  0.06473  0.31991  Biso   1.000  C
  H106     1.0000 0.68190  0.10830  0.32920  Biso   1.000  H
  C151     1.0000 0.56300  0.94380  0.39921  Biso   1.000  C
  H107     1.0000 0.53040  0.90780  0.40410  Biso   1.000  H
  C152     1.0000 0.62840  0.04760  0.41179  Biso   1.000  C
  H108     1.0000 0.64120  0.08220  0.42550  Biso   1.000  H
  C153     1.0000 0.66250  0.04960  0.38501  Biso   1.000  C
  H109     1.0000 0.69760  0.08400  0.38110  Biso   1.000  H
  C154     1.0000 0.59640  0.94340  0.37243  Biso   1.000  C
  H110     1.0000 0.58800  0.90580  0.35950  Biso   1.000  H
  C155     1.0000 0.76898  0.36586  0.77673  Biso   1.000  C
  O45      1.0000 0.79280  0.31040  0.78879  Biso   1.000  O
  O46      1.0000 0.73600  0.36897  0.75266  Biso   1.000  O
  C156     1.0000 0.78070  0.43546  0.79227  Biso   1.000  C
  C157     1.0000 0.80920  0.43527  0.81991  Biso   1.000  C
  H111     1.0000 0.81810  0.39170  0.82920  Biso   1.000  H
  C158     1.0000 0.93700  0.55620  0.89921  Biso   1.000  C
  H112     1.0000 0.96960  0.59220  0.90410  Biso   1.000  H
  C159     1.0000 0.87160  0.45240  0.91179  Biso   1.000  C
  H113     1.0000 0.85880  0.41780  0.92550  Biso   1.000  H
  C160     1.0000 0.83750  0.45040  0.88501  Biso   1.000  C
  H114     1.0000 0.80240  0.41600  0.88110  Biso   1.000  H
  C161     1.0000 0.90360  0.55660  0.87243  Biso   1.000  C
  H115     1.0000 0.91200  0.59420  0.85950  Biso   1.000  H
  C162     1.0000 0.26898  0.86586  0.27673  Biso   1.000  C
  O47      1.0000 0.29280  0.81040  0.28879  Biso   1.000  O
  O48      1.0000 0.23600  0.86897  0.25266  Biso   1.000  O
  C163     1.0000 0.28070  0.93546  0.29227  Biso   1.000  C
  C164     1.0000 0.30920  0.93527  0.31991  Biso   1.000  C
  H116     1.0000 0.31810  0.89170  0.32920  Biso   1.000  H
  C165     1.0000 0.43700  0.05620  0.39921  Biso   1.000  C
  H117     1.0000 0.46960  0.09220  0.40410  Biso   1.000  H
  C166     1.0000 0.37160  0.95240  0.41179  Biso   1.000  C
  H118     1.0000 0.35880  0.91780  0.42550  Biso   1.000  H
  C167     1.0000 0.33750  0.95040  0.38501  Biso   1.000  C
  H119     1.0000 0.30240  0.91600  0.38110  Biso   1.000  H
  C168     1.0000 0.40360  0.05660  0.37243  Biso   1.000  C
  H120     1.0000 0.41200  0.09420  0.35950  Biso   1.000  H
  C169     1.0000 0.36586  0.76898  0.22327  Biso   1.000  C
  O49      1.0000 0.31040  0.79280  0.21121  Biso   1.000  O
  O50      1.0000 0.36897  0.73600  0.24734  Biso   1.000  O
  C170     1.0000 0.43546  0.78070  0.20773  Biso   1.000  C
  C171     1.0000 0.43527  0.80920  0.18009  Biso   1.000  C
  H121     1.0000 0.39170  0.81810  0.17080  Biso   1.000  H
  C172     1.0000 0.55620  0.93700  0.10079  Biso   1.000  C
  H122     1.0000 0.59220  0.96960  0.09590  Biso   1.000  H
  C173     1.0000 0.45240  0.87160  0.08821  Biso   1.000  C
  H123     1.0000 0.41780  0.85880  0.07450  Biso   1.000  H
  C174     1.0000 0.45040  0.83750  0.11499  Biso   1.000  C
  H124     1.0000 0.41600  0.80240  0.11890  Biso   1.000  H
  C175     1.0000 0.55660  0.90360  0.12757  Biso   1.000  C
  H125     1.0000 0.59420  0.91200  0.14050  Biso   1.000  H
  C176     1.0000 0.86586  0.26898  0.72327  Biso   1.000  C
  O51      1.0000 0.81040  0.29280  0.71121  Biso   1.000  O
  O52      1.0000 0.86897  0.23600  0.74734  Biso   1.000  O
  C177     1.0000 0.93546  0.28070  0.70773  Biso   1.000  C
  C178     1.0000 0.93527  0.30920  0.68009  Biso   1.000  C
  H126     1.0000 0.89170  0.31810  0.67080  Biso   1.000  H
  C179     1.0000 0.05620  0.43700  0.60079  Biso   1.000  C
  H127     1.0000 0.09220  0.46960  0.59590  Biso   1.000  H
  C180     1.0000 0.95240  0.37160  0.58821  Biso   1.000  C
  H128     1.0000 0.91780  0.35880  0.57450  Biso   1.000  H
  C181     1.0000 0.95040  0.33750  0.61499  Biso   1.000  C
  H129     1.0000 0.91600  0.30240  0.61890  Biso   1.000  H
  C182     1.0000 0.05660  0.40360  0.62757  Biso   1.000  C
  H130     1.0000 0.09420  0.41200  0.64050  Biso   1.000  H
  C183     1.0000 0.63414  0.23102  0.22327  Biso   1.000  C
  O53      1.0000 0.68960  0.20720  0.21121  Biso   1.000  O
  O54      1.0000 0.63103  0.26400  0.24734  Biso   1.000  O
  C184     1.0000 0.56454  0.21930  0.20773  Biso   1.000  C
  C185     1.0000 0.56473  0.19080  0.18009  Biso   1.000  C
  H131     1.0000 0.60830  0.18190  0.17080  Biso   1.000  H
  C186     1.0000 0.44380  0.06300  0.10079  Biso   1.000  C
  H132     1.0000 0.40780  0.03040  0.09590  Biso   1.000  H
  C187     1.0000 0.54760  0.12840  0.08821  Biso   1.000  C
  H133     1.0000 0.58220  0.14120  0.07450  Biso   1.000  H
  C188     1.0000 0.54960  0.16250  0.11499  Biso   1.000  C
  H134     1.0000 0.58400  0.19760  0.11890  Biso   1.000  H
  C189     1.0000 0.44340  0.09640  0.12757  Biso   1.000  C
  H135     1.0000 0.40580  0.08800  0.14050  Biso   1.000  H
  C190     1.0000 0.13414  0.73102  0.72327  Biso   1.000  C
  O55      1.0000 0.18960  0.70720  0.71121  Biso   1.000  O
  O56      1.0000 0.13103  0.76400  0.74734  Biso   1.000  O
  C191     1.0000 0.06454  0.71930  0.70773  Biso   1.000  C
  C192     1.0000 0.06473  0.69080  0.68009  Biso   1.000  C
  H136     1.0000 0.10830  0.68190  0.67080  Biso   1.000  H
  C193     1.0000 0.94380  0.56300  0.60079  Biso   1.000  C
  H137     1.0000 0.90780  0.53040  0.59590  Biso   1.000  H
  C194     1.0000 0.04760  0.62840  0.58821  Biso   1.000  C
  H138     1.0000 0.08220  0.64120  0.57450  Biso   1.000  H
  C195     1.0000 0.04960  0.66250  0.61499  Biso   1.000  C
  H139     1.0000 0.08400  0.69760  0.61890  Biso   1.000  H
  C196     1.0000 0.94340  0.59640  0.62757  Biso   1.000  C
  H140     1.0000 0.90580  0.58800  0.64050  Biso   1.000  H
  C197     1.0000 0.76898  0.63414  0.22327  Biso   1.000  C
  O57      1.0000 0.79280  0.68960  0.21121  Biso   1.000  O
  O58      1.0000 0.73600  0.63103  0.24734  Biso   1.000  O
  C198     1.0000 0.78070  0.56454  0.20773  Biso   1.000  C
  C199     1.0000 0.80920  0.56473  0.18009  Biso   1.000  C
  H141     1.0000 0.81810  0.60830  0.17080  Biso   1.000  H
  C200     1.0000 0.93700  0.44380  0.10079  Biso   1.000  C
  H142     1.0000 0.96960  0.40780  0.09590  Biso   1.000  H
  C201     1.0000 0.87160  0.54760  0.08821  Biso   1.000  C
  H143     1.0000 0.85880  0.58220  0.07450  Biso   1.000  H
  C202     1.0000 0.83750  0.54960  0.11499  Biso   1.000  C
  H144     1.0000 0.80240  0.58400  0.11890  Biso   1.000  H
  C203     1.0000 0.90360  0.44340  0.12757  Biso   1.000  C
  H145     1.0000 0.91200  0.40580  0.14050  Biso   1.000  H
  C204     1.0000 0.26898  0.13414  0.72327  Biso   1.000  C
  O59      1.0000 0.29280  0.18960  0.71121  Biso   1.000  O
  O60      1.0000 0.23600  0.13103  0.74734  Biso   1.000  O
  C205     1.0000 0.28070  0.06454  0.70773  Biso   1.000  C
  C206     1.0000 0.30920  0.06473  0.68009  Biso   1.000  C
  H146     1.0000 0.31810  0.10830  0.67080  Biso   1.000  H
  C207     1.0000 0.43700  0.94380  0.60079  Biso   1.000  C
  H147     1.0000 0.46960  0.90780  0.59590  Biso   1.000  H
  C208     1.0000 0.37160  0.04760  0.58821  Biso   1.000  C
  H148     1.0000 0.35880  0.08220  0.57450  Biso   1.000  H
  C209     1.0000 0.33750  0.04960  0.61499  Biso   1.000  C
  H149     1.0000 0.30240  0.08400  0.61890  Biso   1.000  H
  C210     1.0000 0.40360  0.94340  0.62757  Biso   1.000  C
  H150     1.0000 0.41200  0.90580  0.64050  Biso   1.000  H
  C211     1.0000 0.23102  0.36586  0.22327  Biso   1.000  C
  O61      1.0000 0.20720  0.31040  0.21121  Biso   1.000  O
  O62      1.0000 0.26400  0.36897  0.24734  Biso   1.000  O
  C212     1.0000 0.21930  0.43546  0.20773  Biso   1.000  C
  C213     1.0000 0.19080  0.43527  0.18009  Biso   1.000  C
  H151     1.0000 0.18190  0.39170  0.17080  Biso   1.000  H
  C214     1.0000 0.06300  0.55620  0.10079  Biso   1.000  C
  H152     1.0000 0.03040  0.59220  0.09590  Biso   1.000  H
  C215     1.0000 0.12840  0.45240  0.08821  Biso   1.000  C
  H153     1.0000 0.14120  0.41780  0.07450  Biso   1.000  H
  C216     1.0000 0.16250  0.45040  0.11499  Biso   1.000  C
  H154     1.0000 0.19760  0.41600  0.11890  Biso   1.000  H
  C217     1.0000 0.09640  0.55660  0.12757  Biso   1.000  C
  H155     1.0000 0.08800  0.59420  0.14050  Biso   1.000  H
  C218     1.0000 0.73102  0.86586  0.72327  Biso   1.000  C
  O63      1.0000 0.70720  0.81040  0.71121  Biso   1.000  O
  O64      1.0000 0.76400  0.86897  0.74734  Biso   1.000  O
  C219     1.0000 0.71930  0.93546  0.70773  Biso   1.000  C
  C220     1.0000 0.69080  0.93527  0.68009  Biso   1.000  C
  H156     1.0000 0.68190  0.89170  0.67080  Biso   1.000  H
  C221     1.0000 0.56300  0.05620  0.60079  Biso   1.000  C
  H157     1.0000 0.53040  0.09220  0.59590  Biso   1.000  H
  C222     1.0000 0.62840  0.95240  0.58821  Biso   1.000  C
  H158     1.0000 0.64120  0.91780  0.57450  Biso   1.000  H
  C223     1.0000 0.66250  0.95040  0.61499  Biso   1.000  C
  H159     1.0000 0.69760  0.91600  0.61890  Biso   1.000  H
  C224     1.0000 0.59640  0.05660  0.62757  Biso   1.000  C
  H160     1.0000 0.58800  0.09420  0.64050  Biso   1.000  H
  Cu1      1.0000 0.21546  0.21546  0.22885  Biso   1.000  Cu
  Cu2      1.0000 0.71546  0.71546  0.72885  Biso   1.000  Cu
  Cu3      1.0000 0.78454  0.78454  0.22885  Biso   1.000  Cu
  Cu4      1.0000 0.28454  0.28454  0.72885  Biso   1.000  Cu
  Cu5      1.0000 0.78454  0.21546  0.22885  Biso   1.000  Cu
  Cu6      1.0000 0.28454  0.71546  0.72885  Biso   1.000  Cu
  Cu7      1.0000 0.21546  0.78454  0.22885  Biso   1.000  Cu
  Cu8      1.0000 0.71546  0.28454  0.72885  Biso   1.000  Cu
  Cu9      1.0000 0.78454  0.21546  0.77115  Biso   1.000  Cu
  Cu10     1.0000 0.28454  0.71546  0.27115  Biso   1.000  Cu
  Cu11     1.0000 0.21546  0.78454  0.77115  Biso   1.000  Cu
  Cu12     1.0000 0.71546  0.28454  0.27115  Biso   1.000  Cu
  Cu13     1.0000 0.21546  0.21546  0.77115  Biso   1.000  Cu
  Cu14     1.0000 0.71546  0.71546  0.27115  Biso   1.000  Cu
  Cu15     1.0000 0.78454  0.78454  0.77115  Biso   1.000  Cu
  Cu16     1.0000 0.28454  0.28454  0.27115  Biso   1.000  Cu
  C225     1.0000 0.50000  0.17500  0.16572  Biso   1.000  C
  C226     1.0000 0.50000  0.14340  0.13556  Biso   1.000  C
  C227     1.0000 0.50000  0.23440  0.22170  Biso   1.000  C
  H161     1.0000 0.50000  0.25460  0.24020  Biso   1.000  H
  C228     1.0000 0.50000  0.07880  0.08061  Biso   1.000  C
  C229     1.0000 0.50000  0.07460  0.02687  Biso   1.000  C
  H162     1.0000 0.50000  0.12460  0.02710  Biso   1.000  H
  C230     1.0000 0.50000  0.03740  0.05277  Biso   1.000  C
  C231     1.0000 0.00000  0.67500  0.66572  Biso   1.000  C
  C232     1.0000 0.00000  0.64340  0.63556  Biso   1.000  C
  C233     1.0000 0.00000  0.73440  0.72170  Biso   1.000  C
  H163     1.0000 0.00000  0.75460  0.74020  Biso   1.000  H
  C234     1.0000 0.00000  0.57880  0.58061  Biso   1.000  C
  C235     1.0000 0.00000  0.57460  0.52687  Biso   1.000  C
  H164     1.0000 0.00000  0.62460  0.52710  Biso   1.000  H
  C236     1.0000 0.00000  0.53740  0.55277  Biso   1.000  C
  C237     1.0000 0.50000  0.82500  0.16572  Biso   1.000  C
  C238     1.0000 0.50000  0.85660  0.13556  Biso   1.000  C
  C239     1.0000 0.50000  0.76560  0.22170  Biso   1.000  C
  H165     1.0000 0.50000  0.74540  0.24020  Biso   1.000  H
  C240     1.0000 0.50000  0.92120  0.08061  Biso   1.000  C
  C241     1.0000 0.50000  0.92540  0.02687  Biso   1.000  C
  H166     1.0000 0.50000  0.87540  0.02710  Biso   1.000  H
  C242     1.0000 0.50000  0.96260  0.05277  Biso   1.000  C
  C243     1.0000 0.00000  0.32500  0.66572  Biso   1.000  C
  C244     1.0000 0.00000  0.35660  0.63556  Biso   1.000  C
  C245     1.0000 0.00000  0.26560  0.72170  Biso   1.000  C
  H167     1.0000 0.00000  0.24540  0.74020  Biso   1.000  H
  C246     1.0000 0.00000  0.42120  0.58061  Biso   1.000  C
  C247     1.0000 0.00000  0.42540  0.52687  Biso   1.000  C
  H168     1.0000 0.00000  0.37540  0.52710  Biso   1.000  H
  C248     1.0000 0.00000  0.46260  0.55277  Biso   1.000  C
  C249     1.0000 0.82500  0.50000  0.16572  Biso   1.000  C
  C250     1.0000 0.85660  0.50000  0.13556  Biso   1.000  C
  C251     1.0000 0.76560  0.50000  0.22170  Biso   1.000  C
  H169     1.0000 0.74540  0.50000  0.24020  Biso   1.000  H
  C252     1.0000 0.92120  0.50000  0.08061  Biso   1.000  C
  C253     1.0000 0.92540  0.50000  0.02687  Biso   1.000  C
  H170     1.0000 0.87540  0.50000  0.02710  Biso   1.000  H
  C254     1.0000 0.96260  0.50000  0.05277  Biso   1.000  C
  C255     1.0000 0.32500  0.00000  0.66572  Biso   1.000  C
  C256     1.0000 0.35660  0.00000  0.63556  Biso   1.000  C
  C257     1.0000 0.26560  0.00000  0.72170  Biso   1.000  C
  H171     1.0000 0.24540  0.00000  0.74020  Biso   1.000  H
  C258     1.0000 0.42120  0.00000  0.58061  Biso   1.000  C
  C259     1.0000 0.42540  0.00000  0.52687  Biso   1.000  C
  H172     1.0000 0.37540  0.00000  0.52710  Biso   1.000  H
  C260     1.0000 0.46260  0.00000  0.55277  Biso   1.000  C
  C261     1.0000 0.17500  0.50000  0.16572  Biso   1.000  C
  C262     1.0000 0.14340  0.50000  0.13556  Biso   1.000  C
  C263     1.0000 0.23440  0.50000  0.22170  Biso   1.000  C
  H173     1.0000 0.25460  0.50000  0.24020  Biso   1.000  H
  C264     1.0000 0.07880  0.50000  0.08061  Biso   1.000  C
  C265     1.0000 0.07460  0.50000  0.02687  Biso   1.000  C
  H174     1.0000 0.12460  0.50000  0.02710  Biso   1.000  H
  C266     1.0000 0.03740  0.50000  0.05277  Biso   1.000  C
  C267     1.0000 0.67500  0.00000  0.66572  Biso   1.000  C
  C268     1.0000 0.64340  0.00000  0.63556  Biso   1.000  C
  C269     1.0000 0.73440  0.00000  0.72170  Biso   1.000  C
  H175     1.0000 0.75460  0.00000  0.74020  Biso   1.000  H
  C270     1.0000 0.57880  0.00000  0.58061  Biso   1.000  C
  C271     1.0000 0.57460  0.00000  0.52687  Biso   1.000  C
  H176     1.0000 0.62460  0.00000  0.52710  Biso   1.000  H
  C272     1.0000 0.53740  0.00000  0.55277  Biso   1.000  C
  C273     1.0000 0.50000  0.17500  0.83428  Biso   1.000  C
  C274     1.0000 0.50000  0.14340  0.86444  Biso   1.000  C
  C275     1.0000 0.50000  0.23440  0.77830  Biso   1.000  C
  H177     1.0000 0.50000  0.25460  0.75980  Biso   1.000  H
  C276     1.0000 0.50000  0.07880  0.91939  Biso   1.000  C
  C277     1.0000 0.50000  0.07460  0.97313  Biso   1.000  C
  H178     1.0000 0.50000  0.12460  0.97290  Biso   1.000  H
  C278     1.0000 0.50000  0.03740  0.94723  Biso   1.000  C
  C279     1.0000 0.00000  0.67500  0.33428  Biso   1.000  C
  C280     1.0000 0.00000  0.64340  0.36444  Biso   1.000  C
  C281     1.0000 0.00000  0.73440  0.27830  Biso   1.000  C
  H179     1.0000 0.00000  0.75460  0.25980  Biso   1.000  H
  C282     1.0000 0.00000  0.57880  0.41939  Biso   1.000  C
  C283     1.0000 0.00000  0.57460  0.47313  Biso   1.000  C
  H180     1.0000 0.00000  0.62460  0.47290  Biso   1.000  H
  C284     1.0000 0.00000  0.53740  0.44723  Biso   1.000  C
  C285     1.0000 0.50000  0.82500  0.83428  Biso   1.000  C
  C286     1.0000 0.50000  0.85660  0.86444  Biso   1.000  C
  C287     1.0000 0.50000  0.76560  0.77830  Biso   1.000  C
  H181     1.0000 0.50000  0.74540  0.75980  Biso   1.000  H
  C288     1.0000 0.50000  0.92120  0.91939  Biso   1.000  C
  C289     1.0000 0.50000  0.92540  0.97313  Biso   1.000  C
  H182     1.0000 0.50000  0.87540  0.97290  Biso   1.000  H
  C290     1.0000 0.50000  0.96260  0.94723  Biso   1.000  C
  C291     1.0000 0.00000  0.32500  0.33428  Biso   1.000  C
  C292     1.0000 0.00000  0.35660  0.36444  Biso   1.000  C
  C293     1.0000 0.00000  0.26560  0.27830  Biso   1.000  C
  H183     1.0000 0.00000  0.24540  0.25980  Biso   1.000  H
  C294     1.0000 0.00000  0.42120  0.41939  Biso   1.000  C
  C295     1.0000 0.00000  0.42540  0.47313  Biso   1.000  C
  H184     1.0000 0.00000  0.37540  0.47290  Biso   1.000  H
  C296     1.0000 0.00000  0.46260  0.44723  Biso   1.000  C
  C297     1.0000 0.17500  0.50000  0.83428  Biso   1.000  C
  C298     1.0000 0.14340  0.50000  0.86444  Biso   1.000  C
  C299     1.0000 0.23440  0.50000  0.77830  Biso   1.000  C
  H185     1.0000 0.25460  0.50000  0.75980  Biso   1.000  H
  C300     1.0000 0.07880  0.50000  0.91939  Biso   1.000  C
  C301     1.0000 0.07460  0.50000  0.97313  Biso   1.000  C
  H186     1.0000 0.12460  0.50000  0.97290  Biso   1.000  H
  C302     1.0000 0.03740  0.50000  0.94723  Biso   1.000  C
  C303     1.0000 0.67500  0.00000  0.33428  Biso   1.000  C
  C304     1.0000 0.64340  0.00000  0.36444  Biso   1.000  C
  C305     1.0000 0.73440  0.00000  0.27830  Biso   1.000  C
  H187     1.0000 0.75460  0.00000  0.25980  Biso   1.000  H
  C306     1.0000 0.57880  0.00000  0.41939  Biso   1.000  C
  C307     1.0000 0.57460  0.00000  0.47313  Biso   1.000  C
  H188     1.0000 0.62460  0.00000  0.47290  Biso   1.000  H
  C308     1.0000 0.53740  0.00000  0.44723  Biso   1.000  C
  C309     1.0000 0.82500  0.50000  0.83428  Biso   1.000  C
  C310     1.0000 0.85660  0.50000  0.86444  Biso   1.000  C
  C311     1.0000 0.76560  0.50000  0.77830  Biso   1.000  C
  H189     1.0000 0.74540  0.50000  0.75980  Biso   1.000  H
  C312     1.0000 0.92120  0.50000  0.91939  Biso   1.000  C
  C313     1.0000 0.92540  0.50000  0.97313  Biso   1.000  C
  H190     1.0000 0.87540  0.50000  0.97290  Biso   1.000  H
  C314     1.0000 0.96260  0.50000  0.94723  Biso   1.000  C
  C315     1.0000 0.32500  0.00000  0.33428  Biso   1.000  C
  C316     1.0000 0.35660  0.00000  0.36444  Biso   1.000  C
  C317     1.0000 0.26560  0.00000  0.27830  Biso   1.000  C
  H191     1.0000 0.24540  0.00000  0.25980  Biso   1.000  H
  C318     1.0000 0.42120  0.00000  0.41939  Biso   1.000  C
  C319     1.0000 0.42540  0.00000  0.47313  Biso   1.000  C
  H192     1.0000 0.37540  0.00000  0.47290  Biso   1.000  H
  C320     1.0000 0.46260  0.00000  0.44723  Biso   1.000  C
  C321     1.0000 0.50000  0.03780  0.00000  Biso   1.000  C
  C322     1.0000 0.00000  0.53780  0.50000  Biso   1.000  C
  C323     1.0000 0.50000  0.96220  0.00000  Biso   1.000  C
  C324     1.0000 0.00000  0.46220  0.50000  Biso   1.000  C
  C325     1.0000 0.96220  0.50000  0.00000  Biso   1.000  C
  C326     1.0000 0.46220  0.00000  0.50000  Biso   1.000  C
  C327     1.0000 0.03780  0.50000  0.00000  Biso   1.000  C
  C328     1.0000 0.53780  0.00000  0.50000  Biso   1.000  C
