data_image0
_cell_length_a       13.395
_cell_length_b       14.354
_cell_length_c       11.319
_cell_angle_alpha    90
_cell_angle_beta     111.55
_cell_angle_gamma    90

_symmetry_space_group_name_H-M    "P 1"
_symmetry_int_tables_number       1

loop_
  _symmetry_equiv_pos_as_xyz
  'x, y, z'

loop_
  _atom_site_label
  _atom_site_occupancy
  _atom_site_fract_x
  _atom_site_fract_y
  _atom_site_fract_z
  _atom_site_thermal_displace_type
  _atom_site_B_iso_or_equiv
  _atom_site_type_symbol
  O1       1.0000 0.88849  0.96806  0.11894  Biso   1.000  O
  O2       1.0000 0.86568  0.02548  0.28828  Biso   1.000  O
  O3       1.0000 0.52270  0.33710  0.07530  Biso   1.000  O
  O4       1.0000 0.61740  0.27540  0.25760  Biso   1.000  O
  C1       1.0000 0.58920  0.27790  0.13830  Biso   1.000  C
  C2       1.0000 0.64660  0.13550  0.87640  Biso   1.000  C
  H1       1.0000 0.62560  0.13070  0.78870  Biso   1.000  H
  C3       1.0000 0.59980  0.20160  0.92860  Biso   1.000  C
  H2       1.0000 0.54810  0.24170  0.87560  Biso   1.000  H
  C4       1.0000 0.72469  0.07646  0.95460  Biso   1.000  C
  H3       1.0000 0.75650  0.03220  0.91970  Biso   1.000  H
  C5       1.0000 0.62934  0.20857  0.05800  Biso   1.000  C
  C6       1.0000 0.84212  0.02217  0.17220  Biso   1.000  C
  C7       1.0000 0.70661  0.14946  0.13540  Biso   1.000  C
  H4       1.0000 0.72650  0.15380  0.22300  Biso   1.000  H
  C8       1.0000 0.75521  0.08367  0.08510  Biso   1.000  C
  C9       1.0000 0.43460  0.28480  0.42100  Biso   1.000  C
  O5       1.0000 0.50070  0.33330  0.50020  Biso   1.000  O
  O6       1.0000 0.41320  0.29260  0.30290  Biso   1.000  O
  O7       1.0000 0.38849  0.46806  0.11894  Biso   1.000  O
  O8       1.0000 0.36568  0.52548  0.28828  Biso   1.000  O
  O9       1.0000 0.02270  0.83710  0.07530  Biso   1.000  O
  O10      1.0000 0.11740  0.77540  0.25760  Biso   1.000  O
  C10      1.0000 0.08920  0.77790  0.13830  Biso   1.000  C
  C11      1.0000 0.14660  0.63550  0.87640  Biso   1.000  C
  H5       1.0000 0.12560  0.63070  0.78870  Biso   1.000  H
  C12      1.0000 0.09980  0.70160  0.92860  Biso   1.000  C
  H6       1.0000 0.04810  0.74170  0.87560  Biso   1.000  H
  C13      1.0000 0.22469  0.57646  0.95460  Biso   1.000  C
  H7       1.0000 0.25650  0.53220  0.91970  Biso   1.000  H
  C14      1.0000 0.12934  0.70857  0.05800  Biso   1.000  C
  C15      1.0000 0.34212  0.52217  0.17220  Biso   1.000  C
  C16      1.0000 0.20661  0.64946  0.13540  Biso   1.000  C
  H8       1.0000 0.22650  0.65380  0.22300  Biso   1.000  H
  C17      1.0000 0.25521  0.58367  0.08510  Biso   1.000  C
  C18      1.0000 0.93460  0.78480  0.42100  Biso   1.000  C
  O11      1.0000 0.00070  0.83330  0.50020  Biso   1.000  O
  O12      1.0000 0.91320  0.79260  0.30290  Biso   1.000  O
  O13      1.0000 0.11151  0.96806  0.38106  Biso   1.000  O
  O14      1.0000 0.13432  0.02548  0.21172  Biso   1.000  O
  O15      1.0000 0.47730  0.33710  0.42470  Biso   1.000  O
  O16      1.0000 0.38260  0.27540  0.24240  Biso   1.000  O
  C19      1.0000 0.41080  0.27790  0.36170  Biso   1.000  C
  C20      1.0000 0.35340  0.13550  0.62360  Biso   1.000  C
  H9       1.0000 0.37440  0.13070  0.71130  Biso   1.000  H
  C21      1.0000 0.40020  0.20160  0.57140  Biso   1.000  C
  H10      1.0000 0.45190  0.24170  0.62440  Biso   1.000  H
  C22      1.0000 0.27531  0.07646  0.54540  Biso   1.000  C
  H11      1.0000 0.24350  0.03220  0.58030  Biso   1.000  H
  C23      1.0000 0.37066  0.20857  0.44200  Biso   1.000  C
  C24      1.0000 0.15788  0.02217  0.32780  Biso   1.000  C
  C25      1.0000 0.29339  0.14946  0.36460  Biso   1.000  C
  H12      1.0000 0.27350  0.15380  0.27700  Biso   1.000  H
  C26      1.0000 0.24479  0.08367  0.41490  Biso   1.000  C
  C27      1.0000 0.56540  0.28480  0.07900  Biso   1.000  C
  O17      1.0000 0.49930  0.33330  0.99980  Biso   1.000  O
  O18      1.0000 0.58680  0.29260  0.19710  Biso   1.000  O
  O19      1.0000 0.61151  0.46806  0.38106  Biso   1.000  O
  O20      1.0000 0.63432  0.52548  0.21172  Biso   1.000  O
  O21      1.0000 0.97730  0.83710  0.42470  Biso   1.000  O
  O22      1.0000 0.88260  0.77540  0.24240  Biso   1.000  O
  C28      1.0000 0.91080  0.77790  0.36170  Biso   1.000  C
  C29      1.0000 0.85340  0.63550  0.62360  Biso   1.000  C
  H13      1.0000 0.87440  0.63070  0.71130  Biso   1.000  H
  C30      1.0000 0.90020  0.70160  0.57140  Biso   1.000  C
  H14      1.0000 0.95190  0.74170  0.62440  Biso   1.000  H
  C31      1.0000 0.77531  0.57646  0.54540  Biso   1.000  C
  H15      1.0000 0.74350  0.53220  0.58030  Biso   1.000  H
  C32      1.0000 0.87066  0.70857  0.44200  Biso   1.000  C
  C33      1.0000 0.65788  0.52217  0.32780  Biso   1.000  C
  C34      1.0000 0.79339  0.64946  0.36460  Biso   1.000  C
  H16      1.0000 0.77350  0.65380  0.27700  Biso   1.000  H
  C35      1.0000 0.74479  0.58367  0.41490  Biso   1.000  C
  C36      1.0000 0.06540  0.78480  0.07900  Biso   1.000  C
  O23      1.0000 0.99930  0.83330  0.99980  Biso   1.000  O
  O24      1.0000 0.08680  0.79260  0.19710  Biso   1.000  O
  O25      1.0000 0.11151  0.03194  0.88106  Biso   1.000  O
  O26      1.0000 0.13432  0.97452  0.71172  Biso   1.000  O
  O27      1.0000 0.47730  0.66290  0.92470  Biso   1.000  O
  O28      1.0000 0.38260  0.72460  0.74240  Biso   1.000  O
  C37      1.0000 0.41080  0.72210  0.86170  Biso   1.000  C
  C38      1.0000 0.35340  0.86450  0.12360  Biso   1.000  C
  H17      1.0000 0.37440  0.86930  0.21130  Biso   1.000  H
  C39      1.0000 0.40020  0.79840  0.07140  Biso   1.000  C
  H18      1.0000 0.45190  0.75830  0.12440  Biso   1.000  H
  C40      1.0000 0.27531  0.92354  0.04540  Biso   1.000  C
  H19      1.0000 0.24350  0.96780  0.08030  Biso   1.000  H
  C41      1.0000 0.37066  0.79143  0.94200  Biso   1.000  C
  C42      1.0000 0.15788  0.97783  0.82780  Biso   1.000  C
  C43      1.0000 0.29339  0.85054  0.86460  Biso   1.000  C
  H20      1.0000 0.27350  0.84620  0.77700  Biso   1.000  H
  C44      1.0000 0.24479  0.91633  0.91490  Biso   1.000  C
  C45      1.0000 0.56540  0.71520  0.57900  Biso   1.000  C
  O29      1.0000 0.49930  0.66670  0.49980  Biso   1.000  O
  O30      1.0000 0.58680  0.70740  0.69710  Biso   1.000  O
  O31      1.0000 0.61151  0.53194  0.88106  Biso   1.000  O
  O32      1.0000 0.63432  0.47452  0.71172  Biso   1.000  O
  O33      1.0000 0.97730  0.16290  0.92470  Biso   1.000  O
  O34      1.0000 0.88260  0.22460  0.74240  Biso   1.000  O
  C46      1.0000 0.91080  0.22210  0.86170  Biso   1.000  C
  C47      1.0000 0.85340  0.36450  0.12360  Biso   1.000  C
  H21      1.0000 0.87440  0.36930  0.21130  Biso   1.000  H
  C48      1.0000 0.90020  0.29840  0.07140  Biso   1.000  C
  H22      1.0000 0.95190  0.25830  0.12440  Biso   1.000  H
  C49      1.0000 0.77531  0.42354  0.04540  Biso   1.000  C
  H23      1.0000 0.74350  0.46780  0.08030  Biso   1.000  H
  C50      1.0000 0.87066  0.29143  0.94200  Biso   1.000  C
  C51      1.0000 0.65788  0.47783  0.82780  Biso   1.000  C
  C52      1.0000 0.79339  0.35054  0.86460  Biso   1.000  C
  H24      1.0000 0.77350  0.34620  0.77700  Biso   1.000  H
  C53      1.0000 0.74479  0.41633  0.91490  Biso   1.000  C
  C54      1.0000 0.06540  0.21520  0.57900  Biso   1.000  C
  O35      1.0000 0.99930  0.16670  0.49980  Biso   1.000  O
  O36      1.0000 0.08680  0.20740  0.69710  Biso   1.000  O
  O37      1.0000 0.88849  0.03194  0.61894  Biso   1.000  O
  O38      1.0000 0.86568  0.97452  0.78828  Biso   1.000  O
  O39      1.0000 0.52270  0.66290  0.57530  Biso   1.000  O
  O40      1.0000 0.61740  0.72460  0.75760  Biso   1.000  O
  C55      1.0000 0.58920  0.72210  0.63830  Biso   1.000  C
  C56      1.0000 0.64660  0.86450  0.37640  Biso   1.000  C
  H25      1.0000 0.62560  0.86930  0.28870  Biso   1.000  H
  C57      1.0000 0.59980  0.79840  0.42860  Biso   1.000  C
  H26      1.0000 0.54810  0.75830  0.37560  Biso   1.000  H
  C58      1.0000 0.72469  0.92354  0.45460  Biso   1.000  C
  H27      1.0000 0.75650  0.96780  0.41970  Biso   1.000  H
  C59      1.0000 0.62934  0.79143  0.55800  Biso   1.000  C
  C60      1.0000 0.84212  0.97783  0.67220  Biso   1.000  C
  C61      1.0000 0.70661  0.85054  0.63540  Biso   1.000  C
  H28      1.0000 0.72650  0.84620  0.72300  Biso   1.000  H
  C62      1.0000 0.75521  0.91633  0.58510  Biso   1.000  C
  C63      1.0000 0.43460  0.71520  0.92100  Biso   1.000  C
  O41      1.0000 0.50070  0.66670  0.00020  Biso   1.000  O
  O42      1.0000 0.41320  0.70740  0.80290  Biso   1.000  O
  O43      1.0000 0.38849  0.53194  0.61894  Biso   1.000  O
  O44      1.0000 0.36568  0.47452  0.78828  Biso   1.000  O
  O45      1.0000 0.02270  0.16290  0.57530  Biso   1.000  O
  O46      1.0000 0.11740  0.22460  0.75760  Biso   1.000  O
  C64      1.0000 0.08920  0.22210  0.63830  Biso   1.000  C
  C65      1.0000 0.14660  0.36450  0.37640  Biso   1.000  C
  H29      1.0000 0.12560  0.36930  0.28870  Biso   1.000  H
  C66      1.0000 0.09980  0.29840  0.42860  Biso   1.000  C
  H30      1.0000 0.04810  0.25830  0.37560  Biso   1.000  H
  C67      1.0000 0.22469  0.42354  0.45460  Biso   1.000  C
  H31      1.0000 0.25650  0.46780  0.41970  Biso   1.000  H
  C68      1.0000 0.12934  0.29143  0.55800  Biso   1.000  C
  C69      1.0000 0.34212  0.47783  0.67220  Biso   1.000  C
  C70      1.0000 0.20661  0.35054  0.63540  Biso   1.000  C
  H32      1.0000 0.22650  0.34620  0.72300  Biso   1.000  H
  C71      1.0000 0.25521  0.41633  0.58510  Biso   1.000  C
  C72      1.0000 0.93460  0.21520  0.92100  Biso   1.000  C
  O47      1.0000 0.00070  0.16670  0.00020  Biso   1.000  O
  O48      1.0000 0.91320  0.20740  0.80290  Biso   1.000  O
  Fe1      1.0000 0.00000  0.88805  0.25000  Biso   1.000  Fe
  Fe2      1.0000 0.50000  0.38805  0.25000  Biso   1.000  Fe
  Fe3      1.0000 0.00000  0.11195  0.75000  Biso   1.000  Fe
  Fe4      1.0000 0.50000  0.61195  0.75000  Biso   1.000  Fe
  Na1      1.0000 0.00000  0.00000  0.00000  Biso   1.000  Na
  Na2      1.0000 0.50000  0.50000  0.00000  Biso   1.000  Na
  Na3      1.0000 0.00000  0.00000  0.50000  Biso   1.000  Na
  Na4      1.0000 0.50000  0.50000  0.50000  Biso   1.000  Na
