data_image0
_cell_length_a       14.251
_cell_length_b       17.797
_cell_length_c       13.043
_cell_angle_alpha    90
_cell_angle_beta     111.247
_cell_angle_gamma    90

_symmetry_space_group_name_H-M    "P 1"
_symmetry_int_tables_number       1

loop_
  _symmetry_equiv_pos_as_xyz
  'x, y, z'

loop_
  _atom_site_label
  _atom_site_occupancy
  _atom_site_fract_x
  _atom_site_fract_y
  _atom_site_fract_z
  _atom_site_thermal_displace_type
  _atom_site_B_iso_or_equiv
  _atom_site_type_symbol
  Cd1      1.0000 0.07893  0.13959  0.08502  Biso   1.000  Cd
  C1       1.0000 0.25000  0.13420  0.16110  Biso   1.000  C
  C2       1.0000 0.33070  0.13460  0.19420  Biso   1.000  C
  C3       1.0000 0.01660  0.02790  0.01860  Biso   1.000  C
  C4       1.0000 0.49020  0.23410  0.11850  Biso   1.000  C
  C5       1.0000 0.01600  0.15630  0.21550  Biso   1.000  C
  C6       1.0000 0.02740  0.22470  0.94890  Biso   1.000  C
  Cd2      1.0000 0.57893  0.63959  0.08502  Biso   1.000  Cd
  C7       1.0000 0.75000  0.63420  0.16110  Biso   1.000  C
  C8       1.0000 0.83070  0.63460  0.19420  Biso   1.000  C
  C9       1.0000 0.51660  0.52790  0.01860  Biso   1.000  C
  C10      1.0000 0.99020  0.73410  0.11850  Biso   1.000  C
  C11      1.0000 0.51600  0.65630  0.21550  Biso   1.000  C
  C12      1.0000 0.52740  0.72470  0.94890  Biso   1.000  C
  Cd3      1.0000 0.92107  0.13959  0.41498  Biso   1.000  Cd
  C13      1.0000 0.75000  0.13420  0.33890  Biso   1.000  C
  C14      1.0000 0.66930  0.13460  0.30580  Biso   1.000  C
  C15      1.0000 0.98340  0.02790  0.48140  Biso   1.000  C
  C16      1.0000 0.50980  0.23410  0.38150  Biso   1.000  C
  C17      1.0000 0.98400  0.15630  0.28450  Biso   1.000  C
  C18      1.0000 0.97260  0.22470  0.55110  Biso   1.000  C
  Cd4      1.0000 0.42107  0.63959  0.41498  Biso   1.000  Cd
  C19      1.0000 0.25000  0.63420  0.33890  Biso   1.000  C
  C20      1.0000 0.16930  0.63460  0.30580  Biso   1.000  C
  C21      1.0000 0.48340  0.52790  0.48140  Biso   1.000  C
  C22      1.0000 0.00980  0.73410  0.38150  Biso   1.000  C
  C23      1.0000 0.48400  0.65630  0.28450  Biso   1.000  C
  C24      1.0000 0.47260  0.72470  0.55110  Biso   1.000  C
  Cd5      1.0000 0.92107  0.86041  0.91498  Biso   1.000  Cd
  C25      1.0000 0.75000  0.86580  0.83890  Biso   1.000  C
  C26      1.0000 0.66930  0.86540  0.80580  Biso   1.000  C
  C27      1.0000 0.98340  0.97210  0.98140  Biso   1.000  C
  C28      1.0000 0.50980  0.76590  0.88150  Biso   1.000  C
  C29      1.0000 0.98400  0.84370  0.78450  Biso   1.000  C
  C30      1.0000 0.97260  0.77530  0.05110  Biso   1.000  C
  Cd6      1.0000 0.42107  0.36041  0.91498  Biso   1.000  Cd
  C31      1.0000 0.25000  0.36580  0.83890  Biso   1.000  C
  C32      1.0000 0.16930  0.36540  0.80580  Biso   1.000  C
  C33      1.0000 0.48340  0.47210  0.98140  Biso   1.000  C
  C34      1.0000 0.00980  0.26590  0.88150  Biso   1.000  C
  C35      1.0000 0.48400  0.34370  0.78450  Biso   1.000  C
  C36      1.0000 0.47260  0.27530  0.05110  Biso   1.000  C
  Cd7      1.0000 0.07893  0.86041  0.58502  Biso   1.000  Cd
  C37      1.0000 0.25000  0.86580  0.66110  Biso   1.000  C
  C38      1.0000 0.33070  0.86540  0.69420  Biso   1.000  C
  C39      1.0000 0.01660  0.97210  0.51860  Biso   1.000  C
  C40      1.0000 0.49020  0.76590  0.61850  Biso   1.000  C
  C41      1.0000 0.01600  0.84370  0.71550  Biso   1.000  C
  C42      1.0000 0.02740  0.77530  0.44890  Biso   1.000  C
  Cd8      1.0000 0.57893  0.36041  0.58502  Biso   1.000  Cd
  C43      1.0000 0.75000  0.36580  0.66110  Biso   1.000  C
  C44      1.0000 0.83070  0.36540  0.69420  Biso   1.000  C
  C45      1.0000 0.51660  0.47210  0.51860  Biso   1.000  C
  C46      1.0000 0.99020  0.26590  0.61850  Biso   1.000  C
  C47      1.0000 0.51600  0.34370  0.71550  Biso   1.000  C
  C48      1.0000 0.52740  0.27530  0.44890  Biso   1.000  C
  Cd9      1.0000 0.50000  0.14766  0.25000  Biso   1.000  Cd
  Cd10     1.0000 0.00000  0.64766  0.25000  Biso   1.000  Cd
  Cd11     1.0000 0.50000  0.85234  0.75000  Biso   1.000  Cd
  Cd12     1.0000 0.00000  0.35234  0.75000  Biso   1.000  Cd
