data_image0
_cell_length_a       9.4277
_cell_length_b       9.8665
_cell_length_c       12.8805
_cell_angle_alpha    108.81
_cell_angle_beta     94.996
_cell_angle_gamma    105.387

_symmetry_space_group_name_H-M    "P 1"
_symmetry_int_tables_number       1

loop_
  _symmetry_equiv_pos_as_xyz
  'x, y, z'

loop_
  _atom_site_label
  _atom_site_occupancy
  _atom_site_fract_x
  _atom_site_fract_y
  _atom_site_fract_z
  _atom_site_thermal_displace_type
  _atom_site_B_iso_or_equiv
  _atom_site_type_symbol
  Zn1      1.0000 0.27192  0.63836  0.25999  Biso   1.000  Zn
  Zn2      1.0000 0.87740  0.55882  0.24182  Biso   1.000  Zn
  Zn3      1.0000 0.10364  0.18954  0.47715  Biso   1.000  Zn
  P1       1.0000 0.12851  0.87081  0.36803  Biso   1.000  P
  O1       1.0000 0.00870  0.75820  0.26630  Biso   1.000  O
  O2       1.0000 0.27890  0.83770  0.35960  Biso   1.000  O
  O3       1.0000 0.15200  0.03030  0.36810  Biso   1.000  O
  O4       1.0000 0.08440  0.86350  0.47780  Biso   1.000  O
  C1       1.0000 0.18840  0.40640  0.36130  Biso   1.000  C
  H1       1.0000 0.28860  0.40370  0.37060  Biso   1.000  H
  C2       1.0000 0.95770  0.36540  0.36790  Biso   1.000  C
  C3       1.0000 0.19110  0.50820  0.00560  Biso   1.000  C
  C4       1.0000 0.57360  0.72350  0.40460  Biso   1.000  C
  C5       1.0000 0.56320  0.56210  0.24680  Biso   1.000  C
  H2       1.0000 0.52690  0.49030  0.17310  Biso   1.000  H
  N1       1.0000 0.14240  0.48560  0.30880  Biso   1.000  N
  N2       1.0000 0.99010  0.45890  0.31340  Biso   1.000  N
  N3       1.0000 0.08030  0.33010  0.40020  Biso   1.000  N
  N4       1.0000 0.82510  0.31430  0.39340  Biso   1.000  N
  H3       1.0000 0.74940  0.34280  0.37360  Biso   1.000  H
  H4       1.0000 0.81300  0.25190  0.43000  Biso   1.000  H
  N5       1.0000 0.18420  0.55090  0.91980  Biso   1.000  N
  C6       1.0000 0.26240  0.70360  0.96210  Biso   1.000  C
  N6       1.0000 0.24300  0.61500  0.10420  Biso   1.000  N
  N7       1.0000 0.30000  0.74670  0.07600  Biso   1.000  N
  N8       1.0000 0.12870  0.35800  0.99020  Biso   1.000  N
  N9       1.0000 0.70920  0.70560  0.40560  Biso   1.000  N
  N10      1.0000 0.70110  0.59950  0.30090  Biso   1.000  N
  N11      1.0000 0.47960  0.63570  0.30650  Biso   1.000  N
  N12      1.0000 0.53210  0.81180  0.49340  Biso   1.000  N
  H5       1.0000 0.59630  0.86190  0.55690  Biso   1.000  H
  H6       1.0000 0.44090  0.81900  0.48750  Biso   1.000  H
  C7       1.0000 0.81700  0.29810  0.03470  Biso   1.000  C
  N13      1.0000 0.77700  0.37400  0.89610  Biso   1.000  N
  N14      1.0000 0.79300  0.26200  0.92700  Biso   1.000  N
  N15      1.0000 0.76900  0.62500  0.99930  Biso   1.000  N
  Zn4      1.0000 0.72808  0.36164  0.74001  Biso   1.000  Zn
  Zn5      1.0000 0.12260  0.44118  0.75818  Biso   1.000  Zn
  Zn6      1.0000 0.89636  0.81046  0.52285  Biso   1.000  Zn
  P2       1.0000 0.87149  0.12919  0.63197  Biso   1.000  P
  O5       1.0000 0.99130  0.24180  0.73370  Biso   1.000  O
  O6       1.0000 0.72110  0.16230  0.64040  Biso   1.000  O
  O7       1.0000 0.84800  0.96970  0.63190  Biso   1.000  O
  O8       1.0000 0.91560  0.13650  0.52220  Biso   1.000  O
  C8       1.0000 0.81160  0.59360  0.63870  Biso   1.000  C
  H7       1.0000 0.71140  0.59630  0.62940  Biso   1.000  H
  C9       1.0000 0.04230  0.63460  0.63210  Biso   1.000  C
  C10      1.0000 0.80890  0.49180  0.99440  Biso   1.000  C
  C11      1.0000 0.42640  0.27650  0.59540  Biso   1.000  C
  C12      1.0000 0.43680  0.43790  0.75320  Biso   1.000  C
  H8       1.0000 0.47310  0.50970  0.82690  Biso   1.000  H
  N16      1.0000 0.85760  0.51440  0.69120  Biso   1.000  N
  N17      1.0000 0.00990  0.54110  0.68660  Biso   1.000  N
  N18      1.0000 0.91970  0.66990  0.59980  Biso   1.000  N
  N19      1.0000 0.17490  0.68570  0.60660  Biso   1.000  N
  H9       1.0000 0.25060  0.65720  0.62640  Biso   1.000  H
  H10      1.0000 0.18700  0.74810  0.57000  Biso   1.000  H
  N20      1.0000 0.81580  0.44910  0.08020  Biso   1.000  N
  C13      1.0000 0.73760  0.29640  0.03790  Biso   1.000  C
  N21      1.0000 0.75700  0.38500  0.89580  Biso   1.000  N
  N22      1.0000 0.70000  0.25330  0.92400  Biso   1.000  N
  N23      1.0000 0.87130  0.64200  0.00980  Biso   1.000  N
  N24      1.0000 0.29080  0.29440  0.59440  Biso   1.000  N
  N25      1.0000 0.29890  0.40050  0.69910  Biso   1.000  N
  N26      1.0000 0.52040  0.36430  0.69350  Biso   1.000  N
  N27      1.0000 0.46790  0.18820  0.50660  Biso   1.000  N
  H11      1.0000 0.40370  0.13810  0.44310  Biso   1.000  H
  H12      1.0000 0.55910  0.18100  0.51250  Biso   1.000  H
  C14      1.0000 0.18300  0.70190  0.96530  Biso   1.000  C
  N28      1.0000 0.22300  0.62600  0.10390  Biso   1.000  N
  N29      1.0000 0.20700  0.73800  0.07300  Biso   1.000  N
  N30      1.0000 0.23100  0.37500  0.00070  Biso   1.000  N
