data_image0
_cell_length_a       16.0331
_cell_length_b       33.324
_cell_length_c       16.8496
_cell_angle_alpha    90
_cell_angle_beta     90
_cell_angle_gamma    90

_symmetry_space_group_name_H-M    "P 1"
_symmetry_int_tables_number       1

loop_
  _symmetry_equiv_pos_as_xyz
  'x, y, z'

loop_
  _atom_site_label
  _atom_site_occupancy
  _atom_site_fract_x
  _atom_site_fract_y
  _atom_site_fract_z
  _atom_site_thermal_displace_type
  _atom_site_B_iso_or_equiv
  _atom_site_type_symbol
  Tm1      1.0000 0.01719  0.05398  0.55448  Biso   1.000  Tm
  Zn1      1.0000 0.43700  0.16666  0.67424  Biso   1.000  Zn
  Zn2      1.0000 0.73028  0.15976  0.43043  Biso   1.000  Zn
  Zn3      1.0000 0.76234  0.99031  0.28736  Biso   1.000  Zn
  O1       1.0000 0.36530  0.20760  0.25910  Biso   1.000  O
  O2       1.0000 0.31210  0.16390  0.17630  Biso   1.000  O
  O3       1.0000 0.37850  0.20830  0.45390  Biso   1.000  O
  O4       1.0000 0.36840  0.18960  0.57950  Biso   1.000  O
  O5       1.0000 0.51130  0.20780  0.34590  Biso   1.000  O
  O6       1.0000 0.63150  0.17660  0.34830  Biso   1.000  O
  O7       1.0000 0.94060  0.01720  0.64180  Biso   1.000  O
  O8       1.0000 0.82760  0.99530  0.69930  Biso   1.000  O
  O9       1.0000 0.03730  0.08750  0.66680  Biso   1.000  O
  O10      1.0000 0.01590  0.14170  0.73640  Biso   1.000  O
  O11      1.0000 0.90060  0.08810  0.54720  Biso   1.000  O
  O12      1.0000 0.82150  0.13900  0.51680  Biso   1.000  O
  O13      1.0000 0.93480  0.01480  0.46780  Biso   1.000  O
  O14      1.0000 0.86000  0.97970  0.38710  Biso   1.000  O
  N1       1.0000 0.27350  0.21710  0.06800  Biso   1.000  N
  N2       1.0000 0.52830  0.17360  0.59510  Biso   1.000  N
  N3       1.0000 0.62900  0.16770  0.50540  Biso   1.000  N
  N4       1.0000 0.80560  0.05930  0.78940  Biso   1.000  N
  N5       1.0000 0.87720  0.11500  0.80380  Biso   1.000  N
  N6       1.0000 0.73520  0.09890  0.40950  Biso   1.000  N
  N7       1.0000 0.75220  0.03800  0.35470  Biso   1.000  N
  N8       1.0000 0.85200  0.98120  0.20440  Biso   1.000  N
  N9       1.0000 0.15540  0.92310  0.92170  Biso   1.000  N
  C1       1.0000 0.32810  0.19870  0.19450  Biso   1.000  C
  C2       1.0000 0.30540  0.22900  0.13590  Biso   1.000  C
  C3       1.0000 0.40850  0.19570  0.51740  Biso   1.000  C
  C4       1.0000 0.49760  0.18570  0.52110  Biso   1.000  C
  C5       1.0000 0.56120  0.18180  0.46790  Biso   1.000  C
  C6       1.0000 0.56870  0.18960  0.38270  Biso   1.000  C
  C7       1.0000 0.60800  0.16360  0.58300  Biso   1.000  C
  C8       1.0000 0.66480  0.15260  0.64790  Biso   1.000  C
  H1       1.0000 0.63910  0.13240  0.68030  Biso   1.000  H
  H2       1.0000 0.67650  0.17580  0.67960  Biso   1.000  H
  H3       1.0000 0.71580  0.14230  0.62610  Biso   1.000  H
  C9       1.0000 0.88280  0.02120  0.68970  Biso   1.000  C
  C10      1.0000 0.87340  0.05730  0.73880  Biso   1.000  C
  C11      1.0000 0.91730  0.09200  0.74790  Biso   1.000  C
  C12      1.0000 0.99390  0.10730  0.71490  Biso   1.000  C
  C13      1.0000 0.81000  0.09420  0.82510  Biso   1.000  C
  C14      1.0000 0.74850  0.10990  0.88330  Biso   1.000  C
  H4       1.0000 0.73020  0.08850  0.91720  Biso   1.000  H
  H5       1.0000 0.70140  0.12090  0.85550  Biso   1.000  H
  H6       1.0000 0.77410  0.13050  0.91480  Biso   1.000  H
  C15      1.0000 0.84520  0.10360  0.50700  Biso   1.000  C
  C16      1.0000 0.80170  0.08080  0.44530  Biso   1.000  C
  C17      1.0000 0.81260  0.04330  0.41240  Biso   1.000  C
  C18      1.0000 0.87230  0.01190  0.42400  Biso   1.000  C
  C19      1.0000 0.70870  0.07250  0.35480  Biso   1.000  C
  C20      1.0000 0.63450  0.07980  0.30340  Biso   1.000  C
  H7       1.0000 0.63660  0.06220  0.25840  Biso   1.000  H
  H8       1.0000 0.63470  0.10720  0.28570  Biso   1.000  H
  H9       1.0000 0.58460  0.07470  0.33320  Biso   1.000  H
  C21      1.0000 0.92760  0.99820  0.20280  Biso   1.000  C
  H10      1.0000 0.93980  0.01790  0.24030  Biso   1.000  H
  C22      1.0000 0.98680  0.98840  0.14980  Biso   1.000  C
  H11      1.0000 0.03870  0.00080  0.15230  Biso   1.000  H
  C23      1.0000 0.97190  0.96060  0.09250  Biso   1.000  C
  C24      1.0000 0.89410  0.94400  0.09310  Biso   1.000  C
  H12      1.0000 0.88070  0.92470  0.05540  Biso   1.000  H
  C25      1.0000 0.83670  0.95480  0.14660  Biso   1.000  C
  H13      1.0000 0.78380  0.94350  0.14340  Biso   1.000  H
  C26      1.0000 0.16760  0.95420  0.97020  Biso   1.000  C
  H14      1.0000 0.21870  0.96730  0.96750  Biso   1.000  H
  C27      1.0000 0.11100  0.96800  0.02320  Biso   1.000  C
  H15      1.0000 0.12180  0.99080  0.05330  Biso   1.000  H
  C28      1.0000 0.03640  0.94730  0.03150  Biso   1.000  C
  C29      1.0000 0.02430  0.91550  0.98480  Biso   1.000  C
  H16      1.0000 0.97490  0.90090  0.98860  Biso   1.000  H
  C30      1.0000 0.08380  0.90420  0.93140  Biso   1.000  C
  H17      1.0000 0.07340  0.88180  0.90000  Biso   1.000  H
  H18      1.0000 0.16450  0.24220  0.94390  Biso   1.000  H
  H19      1.0000 0.22730  0.27640  0.92150  Biso   1.000  H
  H20      1.0000 0.25360  0.23140  0.91210  Biso   1.000  H
  Tm2      1.0000 0.48281  0.94602  0.05448  Biso   1.000  Tm
  Zn4      1.0000 0.06300  0.83334  0.17424  Biso   1.000  Zn
  Zn5      1.0000 0.76972  0.84024  0.93043  Biso   1.000  Zn
  Zn6      1.0000 0.73766  0.00969  0.78736  Biso   1.000  Zn
  O15      1.0000 0.13470  0.79240  0.75910  Biso   1.000  O
  O16      1.0000 0.18790  0.83610  0.67630  Biso   1.000  O
  O17      1.0000 0.12150  0.79170  0.95390  Biso   1.000  O
  O18      1.0000 0.13160  0.81040  0.07950  Biso   1.000  O
  O19      1.0000 0.98870  0.79220  0.84590  Biso   1.000  O
  O20      1.0000 0.86850  0.82340  0.84830  Biso   1.000  O
  O21      1.0000 0.55940  0.98280  0.14180  Biso   1.000  O
  O22      1.0000 0.67240  0.00470  0.19930  Biso   1.000  O
  O23      1.0000 0.46270  0.91250  0.16680  Biso   1.000  O
  O24      1.0000 0.48410  0.85830  0.23640  Biso   1.000  O
  O25      1.0000 0.59940  0.91190  0.04720  Biso   1.000  O
  O26      1.0000 0.67850  0.86100  0.01680  Biso   1.000  O
  O27      1.0000 0.56520  0.98520  0.96780  Biso   1.000  O
  O28      1.0000 0.64000  0.02030  0.88710  Biso   1.000  O
  N10      1.0000 0.22650  0.78290  0.56800  Biso   1.000  N
  N11      1.0000 0.97170  0.82640  0.09510  Biso   1.000  N
  N12      1.0000 0.87100  0.83230  0.00540  Biso   1.000  N
  N13      1.0000 0.69440  0.94070  0.28940  Biso   1.000  N
  N14      1.0000 0.62280  0.88500  0.30380  Biso   1.000  N
  N15      1.0000 0.76480  0.90110  0.90950  Biso   1.000  N
  N16      1.0000 0.74780  0.96200  0.85470  Biso   1.000  N
  N17      1.0000 0.64800  0.01880  0.70440  Biso   1.000  N
  N18      1.0000 0.34460  0.07690  0.42170  Biso   1.000  N
  C31      1.0000 0.17190  0.80130  0.69450  Biso   1.000  C
  C32      1.0000 0.19460  0.77100  0.63590  Biso   1.000  C
  C33      1.0000 0.09150  0.80430  0.01740  Biso   1.000  C
  C34      1.0000 0.00240  0.81430  0.02110  Biso   1.000  C
  C35      1.0000 0.93880  0.81820  0.96790  Biso   1.000  C
  C36      1.0000 0.93130  0.81040  0.88270  Biso   1.000  C
  C37      1.0000 0.89200  0.83640  0.08300  Biso   1.000  C
  C38      1.0000 0.83520  0.84740  0.14790  Biso   1.000  C
  H21      1.0000 0.86090  0.86760  0.18030  Biso   1.000  H
  H22      1.0000 0.82350  0.82420  0.17960  Biso   1.000  H
  H23      1.0000 0.78420  0.85770  0.12610  Biso   1.000  H
  C39      1.0000 0.61720  0.97880  0.18970  Biso   1.000  C
  C40      1.0000 0.62660  0.94270  0.23880  Biso   1.000  C
  C41      1.0000 0.58270  0.90800  0.24790  Biso   1.000  C
  C42      1.0000 0.50610  0.89270  0.21490  Biso   1.000  C
  C43      1.0000 0.69000  0.90580  0.32510  Biso   1.000  C
  C44      1.0000 0.75150  0.89010  0.38330  Biso   1.000  C
  H24      1.0000 0.76980  0.91150  0.41720  Biso   1.000  H
  H25      1.0000 0.79860  0.87910  0.35550  Biso   1.000  H
  H26      1.0000 0.72590  0.86950  0.41480  Biso   1.000  H
  C45      1.0000 0.65480  0.89640  0.00700  Biso   1.000  C
  C46      1.0000 0.69830  0.91920  0.94530  Biso   1.000  C
  C47      1.0000 0.68740  0.95670  0.91240  Biso   1.000  C
  C48      1.0000 0.62770  0.98810  0.92400  Biso   1.000  C
  C49      1.0000 0.79130  0.92750  0.85480  Biso   1.000  C
  C50      1.0000 0.86550  0.92020  0.80340  Biso   1.000  C
  H27      1.0000 0.86340  0.93780  0.75840  Biso   1.000  H
  H28      1.0000 0.86530  0.89280  0.78570  Biso   1.000  H
  H29      1.0000 0.91540  0.92530  0.83320  Biso   1.000  H
  C51      1.0000 0.57240  0.00180  0.70280  Biso   1.000  C
  H30      1.0000 0.56020  0.98210  0.74030  Biso   1.000  H
  C52      1.0000 0.51320  0.01160  0.64980  Biso   1.000  C
  H31      1.0000 0.46130  0.99920  0.65230  Biso   1.000  H
  C53      1.0000 0.52810  0.03940  0.59250  Biso   1.000  C
  C54      1.0000 0.60590  0.05600  0.59310  Biso   1.000  C
  H32      1.0000 0.61930  0.07530  0.55540  Biso   1.000  H
  C55      1.0000 0.66330  0.04520  0.64660  Biso   1.000  C
  H33      1.0000 0.71620  0.05650  0.64340  Biso   1.000  H
  C56      1.0000 0.33240  0.04580  0.47020  Biso   1.000  C
  H34      1.0000 0.28130  0.03270  0.46750  Biso   1.000  H
  C57      1.0000 0.38900  0.03200  0.52320  Biso   1.000  C
  H35      1.0000 0.37820  0.00920  0.55330  Biso   1.000  H
  C58      1.0000 0.46360  0.05270  0.53150  Biso   1.000  C
  C59      1.0000 0.47570  0.08450  0.48480  Biso   1.000  C
  H36      1.0000 0.52510  0.09910  0.48860  Biso   1.000  H
  C60      1.0000 0.41620  0.09580  0.43140  Biso   1.000  C
  H37      1.0000 0.42660  0.11820  0.40000  Biso   1.000  H
  H38      1.0000 0.33550  0.75780  0.44390  Biso   1.000  H
  H39      1.0000 0.27270  0.72360  0.42150  Biso   1.000  H
  H40      1.0000 0.24640  0.76860  0.41210  Biso   1.000  H
  Tm3      1.0000 0.98281  0.55398  0.44552  Biso   1.000  Tm
  Zn7      1.0000 0.56300  0.66666  0.32576  Biso   1.000  Zn
  Zn8      1.0000 0.26972  0.65976  0.56957  Biso   1.000  Zn
  Zn9      1.0000 0.23766  0.49031  0.71264  Biso   1.000  Zn
  O29      1.0000 0.63470  0.70760  0.74090  Biso   1.000  O
  O30      1.0000 0.68790  0.66390  0.82370  Biso   1.000  O
  O31      1.0000 0.62150  0.70830  0.54610  Biso   1.000  O
  O32      1.0000 0.63160  0.68960  0.42050  Biso   1.000  O
  O33      1.0000 0.48870  0.70780  0.65410  Biso   1.000  O
  O34      1.0000 0.36850  0.67660  0.65170  Biso   1.000  O
  O35      1.0000 0.05940  0.51720  0.35820  Biso   1.000  O
  O36      1.0000 0.17240  0.49530  0.30070  Biso   1.000  O
  O37      1.0000 0.96270  0.58750  0.33320  Biso   1.000  O
  O38      1.0000 0.98410  0.64170  0.26360  Biso   1.000  O
  O39      1.0000 0.09940  0.58810  0.45280  Biso   1.000  O
  O40      1.0000 0.17850  0.63900  0.48320  Biso   1.000  O
  O41      1.0000 0.06520  0.51480  0.53220  Biso   1.000  O
  O42      1.0000 0.14000  0.47970  0.61290  Biso   1.000  O
  N19      1.0000 0.72650  0.71710  0.93200  Biso   1.000  N
  N20      1.0000 0.47170  0.67360  0.40490  Biso   1.000  N
  N21      1.0000 0.37100  0.66770  0.49460  Biso   1.000  N
  N22      1.0000 0.19440  0.55930  0.21060  Biso   1.000  N
  N23      1.0000 0.12280  0.61500  0.19620  Biso   1.000  N
  N24      1.0000 0.26480  0.59890  0.59050  Biso   1.000  N
  N25      1.0000 0.24780  0.53800  0.64530  Biso   1.000  N
  N26      1.0000 0.14800  0.48120  0.79560  Biso   1.000  N
  N27      1.0000 0.84460  0.42310  0.07830  Biso   1.000  N
  C61      1.0000 0.67190  0.69870  0.80550  Biso   1.000  C
  C62      1.0000 0.69460  0.72900  0.86410  Biso   1.000  C
  C63      1.0000 0.59150  0.69570  0.48260  Biso   1.000  C
  C64      1.0000 0.50240  0.68570  0.47890  Biso   1.000  C
  C65      1.0000 0.43880  0.68180  0.53210  Biso   1.000  C
  C66      1.0000 0.43130  0.68960  0.61730  Biso   1.000  C
  C67      1.0000 0.39200  0.66360  0.41700  Biso   1.000  C
  C68      1.0000 0.33520  0.65260  0.35210  Biso   1.000  C
  H41      1.0000 0.36090  0.63240  0.31970  Biso   1.000  H
  H42      1.0000 0.32350  0.67580  0.32040  Biso   1.000  H
  H43      1.0000 0.28420  0.64230  0.37390  Biso   1.000  H
  C69      1.0000 0.11720  0.52120  0.31030  Biso   1.000  C
  C70      1.0000 0.12660  0.55730  0.26120  Biso   1.000  C
  C71      1.0000 0.08270  0.59200  0.25210  Biso   1.000  C
  C72      1.0000 0.00610  0.60730  0.28510  Biso   1.000  C
  C73      1.0000 0.19000  0.59420  0.17490  Biso   1.000  C
  C74      1.0000 0.25150  0.60990  0.11670  Biso   1.000  C
  H44      1.0000 0.26980  0.58850  0.08280  Biso   1.000  H
  H45      1.0000 0.29860  0.62090  0.14450  Biso   1.000  H
  H46      1.0000 0.22590  0.63050  0.08520  Biso   1.000  H
  C75      1.0000 0.15480  0.60360  0.49300  Biso   1.000  C
  C76      1.0000 0.19830  0.58080  0.55470  Biso   1.000  C
  C77      1.0000 0.18740  0.54330  0.58760  Biso   1.000  C
  C78      1.0000 0.12770  0.51190  0.57600  Biso   1.000  C
  C79      1.0000 0.29130  0.57250  0.64520  Biso   1.000  C
  C80      1.0000 0.36550  0.57980  0.69660  Biso   1.000  C
  H47      1.0000 0.36340  0.56220  0.74160  Biso   1.000  H
  H48      1.0000 0.36530  0.60720  0.71430  Biso   1.000  H
  H49      1.0000 0.41540  0.57470  0.66680  Biso   1.000  H
  C81      1.0000 0.07240  0.49820  0.79720  Biso   1.000  C
  H50      1.0000 0.06020  0.51790  0.75970  Biso   1.000  H
  C82      1.0000 0.01320  0.48840  0.85020  Biso   1.000  C
  H51      1.0000 0.96130  0.50080  0.84770  Biso   1.000  H
  C83      1.0000 0.02810  0.46060  0.90750  Biso   1.000  C
  C84      1.0000 0.10590  0.44400  0.90690  Biso   1.000  C
  H52      1.0000 0.11930  0.42470  0.94460  Biso   1.000  H
  C85      1.0000 0.16330  0.45480  0.85340  Biso   1.000  C
  H53      1.0000 0.21620  0.44350  0.85660  Biso   1.000  H
  C86      1.0000 0.83240  0.45420  0.02980  Biso   1.000  C
  H54      1.0000 0.78130  0.46730  0.03250  Biso   1.000  H
  C87      1.0000 0.88900  0.46800  0.97680  Biso   1.000  C
  H55      1.0000 0.87820  0.49080  0.94670  Biso   1.000  H
  C88      1.0000 0.96360  0.44730  0.96850  Biso   1.000  C
  C89      1.0000 0.97570  0.41550  0.01520  Biso   1.000  C
  H56      1.0000 0.02510  0.40090  0.01140  Biso   1.000  H
  C90      1.0000 0.91620  0.40420  0.06860  Biso   1.000  C
  H57      1.0000 0.92660  0.38180  0.10000  Biso   1.000  H
  H58      1.0000 0.83550  0.74220  0.05610  Biso   1.000  H
  H59      1.0000 0.77270  0.77640  0.07850  Biso   1.000  H
  H60      1.0000 0.74640  0.73140  0.08790  Biso   1.000  H
  Tm4      1.0000 0.51719  0.44602  0.94552  Biso   1.000  Tm
  Zn10     1.0000 0.93700  0.33334  0.82576  Biso   1.000  Zn
  Zn11     1.0000 0.23028  0.34024  0.06957  Biso   1.000  Zn
  Zn12     1.0000 0.26234  0.50969  0.21264  Biso   1.000  Zn
  O43      1.0000 0.86530  0.29240  0.24090  Biso   1.000  O
  O44      1.0000 0.81210  0.33610  0.32370  Biso   1.000  O
  O45      1.0000 0.87850  0.29170  0.04610  Biso   1.000  O
  O46      1.0000 0.86840  0.31040  0.92050  Biso   1.000  O
  O47      1.0000 0.01130  0.29220  0.15410  Biso   1.000  O
  O48      1.0000 0.13150  0.32340  0.15170  Biso   1.000  O
  O49      1.0000 0.44060  0.48280  0.85820  Biso   1.000  O
  O50      1.0000 0.32760  0.50470  0.80070  Biso   1.000  O
  O51      1.0000 0.53730  0.41250  0.83320  Biso   1.000  O
  O52      1.0000 0.51590  0.35830  0.76360  Biso   1.000  O
  O53      1.0000 0.40060  0.41190  0.95280  Biso   1.000  O
  O54      1.0000 0.32150  0.36100  0.98320  Biso   1.000  O
  O55      1.0000 0.43480  0.48520  0.03220  Biso   1.000  O
  O56      1.0000 0.36000  0.52030  0.11290  Biso   1.000  O
  N28      1.0000 0.77350  0.28290  0.43200  Biso   1.000  N
  N29      1.0000 0.02830  0.32640  0.90490  Biso   1.000  N
  N30      1.0000 0.12900  0.33230  0.99460  Biso   1.000  N
  N31      1.0000 0.30560  0.44070  0.71060  Biso   1.000  N
  N32      1.0000 0.37720  0.38500  0.69620  Biso   1.000  N
  N33      1.0000 0.23520  0.40110  0.09050  Biso   1.000  N
  N34      1.0000 0.25220  0.46200  0.14530  Biso   1.000  N
  N35      1.0000 0.35200  0.51880  0.29560  Biso   1.000  N
  N36      1.0000 0.65540  0.57690  0.57830  Biso   1.000  N
  C91      1.0000 0.82810  0.30130  0.30550  Biso   1.000  C
  C92      1.0000 0.80540  0.27100  0.36410  Biso   1.000  C
  C93      1.0000 0.90850  0.30430  0.98260  Biso   1.000  C
  C94      1.0000 0.99760  0.31430  0.97890  Biso   1.000  C
  C95      1.0000 0.06120  0.31820  0.03210  Biso   1.000  C
  C96      1.0000 0.06870  0.31040  0.11730  Biso   1.000  C
  C97      1.0000 0.10800  0.33640  0.91700  Biso   1.000  C
  C98      1.0000 0.16480  0.34740  0.85210  Biso   1.000  C
  H61      1.0000 0.13910  0.36760  0.81970  Biso   1.000  H
  H62      1.0000 0.17650  0.32420  0.82040  Biso   1.000  H
  H63      1.0000 0.21580  0.35770  0.87390  Biso   1.000  H
  C99      1.0000 0.38280  0.47880  0.81030  Biso   1.000  C
  C100     1.0000 0.37340  0.44270  0.76120  Biso   1.000  C
  C101     1.0000 0.41730  0.40800  0.75210  Biso   1.000  C
  C102     1.0000 0.49390  0.39270  0.78510  Biso   1.000  C
  C103     1.0000 0.31000  0.40580  0.67490  Biso   1.000  C
  C104     1.0000 0.24850  0.39010  0.61670  Biso   1.000  C
  H64      1.0000 0.23020  0.41150  0.58280  Biso   1.000  H
  H65      1.0000 0.20140  0.37910  0.64450  Biso   1.000  H
  H66      1.0000 0.27410  0.36950  0.58520  Biso   1.000  H
  C105     1.0000 0.34520  0.39640  0.99300  Biso   1.000  C
  C106     1.0000 0.30170  0.41920  0.05470  Biso   1.000  C
  C107     1.0000 0.31260  0.45670  0.08760  Biso   1.000  C
  C108     1.0000 0.37230  0.48810  0.07600  Biso   1.000  C
  C109     1.0000 0.20870  0.42750  0.14520  Biso   1.000  C
  C110     1.0000 0.13450  0.42020  0.19660  Biso   1.000  C
  H67      1.0000 0.13660  0.43780  0.24160  Biso   1.000  H
  H68      1.0000 0.13470  0.39280  0.21430  Biso   1.000  H
  H69      1.0000 0.08460  0.42530  0.16680  Biso   1.000  H
  C111     1.0000 0.42760  0.50180  0.29720  Biso   1.000  C
  H70      1.0000 0.43980  0.48210  0.25970  Biso   1.000  H
  C112     1.0000 0.48680  0.51160  0.35020  Biso   1.000  C
  H71      1.0000 0.53870  0.49920  0.34770  Biso   1.000  H
  C113     1.0000 0.47190  0.53940  0.40750  Biso   1.000  C
  C114     1.0000 0.39410  0.55600  0.40690  Biso   1.000  C
  H72      1.0000 0.38070  0.57530  0.44460  Biso   1.000  H
  C115     1.0000 0.33670  0.54520  0.35340  Biso   1.000  C
  H73      1.0000 0.28380  0.55650  0.35660  Biso   1.000  H
  C116     1.0000 0.66760  0.54580  0.52980  Biso   1.000  C
  H74      1.0000 0.71870  0.53270  0.53250  Biso   1.000  H
  C117     1.0000 0.61100  0.53200  0.47680  Biso   1.000  C
  H75      1.0000 0.62180  0.50920  0.44670  Biso   1.000  H
  C118     1.0000 0.53640  0.55270  0.46850  Biso   1.000  C
  C119     1.0000 0.52430  0.58450  0.51520  Biso   1.000  C
  H76      1.0000 0.47490  0.59910  0.51140  Biso   1.000  H
  C120     1.0000 0.58380  0.59580  0.56860  Biso   1.000  C
  H77      1.0000 0.57340  0.61820  0.60000  Biso   1.000  H
  H78      1.0000 0.66450  0.25780  0.55610  Biso   1.000  H
  H79      1.0000 0.72730  0.22360  0.57850  Biso   1.000  H
  H80      1.0000 0.75360  0.26860  0.58790  Biso   1.000  H
  Tm5      1.0000 0.98281  0.94602  0.44552  Biso   1.000  Tm
  Zn13     1.0000 0.56300  0.83334  0.32576  Biso   1.000  Zn
  Zn14     1.0000 0.26972  0.84024  0.56957  Biso   1.000  Zn
  Zn15     1.0000 0.23766  0.00969  0.71264  Biso   1.000  Zn
  O57      1.0000 0.63470  0.79240  0.74090  Biso   1.000  O
  O58      1.0000 0.68790  0.83610  0.82370  Biso   1.000  O
  O59      1.0000 0.62150  0.79170  0.54610  Biso   1.000  O
  O60      1.0000 0.63160  0.81040  0.42050  Biso   1.000  O
  O61      1.0000 0.48870  0.79220  0.65410  Biso   1.000  O
  O62      1.0000 0.36850  0.82340  0.65170  Biso   1.000  O
  O63      1.0000 0.05940  0.98280  0.35820  Biso   1.000  O
  O64      1.0000 0.17240  0.00470  0.30070  Biso   1.000  O
  O65      1.0000 0.96270  0.91250  0.33320  Biso   1.000  O
  O66      1.0000 0.98410  0.85830  0.26360  Biso   1.000  O
  O67      1.0000 0.09940  0.91190  0.45280  Biso   1.000  O
  O68      1.0000 0.17850  0.86100  0.48320  Biso   1.000  O
  O69      1.0000 0.06520  0.98520  0.53220  Biso   1.000  O
  O70      1.0000 0.14000  0.02030  0.61290  Biso   1.000  O
  N37      1.0000 0.72650  0.78290  0.93200  Biso   1.000  N
  N38      1.0000 0.47170  0.82640  0.40490  Biso   1.000  N
  N39      1.0000 0.37100  0.83230  0.49460  Biso   1.000  N
  N40      1.0000 0.19440  0.94070  0.21060  Biso   1.000  N
  N41      1.0000 0.12280  0.88500  0.19620  Biso   1.000  N
  N42      1.0000 0.26480  0.90110  0.59050  Biso   1.000  N
  N43      1.0000 0.24780  0.96200  0.64530  Biso   1.000  N
  N44      1.0000 0.14800  0.01880  0.79560  Biso   1.000  N
  N45      1.0000 0.84460  0.07690  0.07830  Biso   1.000  N
  C121     1.0000 0.67190  0.80130  0.80550  Biso   1.000  C
  C122     1.0000 0.69460  0.77100  0.86410  Biso   1.000  C
  C123     1.0000 0.59150  0.80430  0.48260  Biso   1.000  C
  C124     1.0000 0.50240  0.81430  0.47890  Biso   1.000  C
  C125     1.0000 0.43880  0.81820  0.53210  Biso   1.000  C
  C126     1.0000 0.43130  0.81040  0.61730  Biso   1.000  C
  C127     1.0000 0.39200  0.83640  0.41700  Biso   1.000  C
  C128     1.0000 0.33520  0.84740  0.35210  Biso   1.000  C
  H81      1.0000 0.36090  0.86760  0.31970  Biso   1.000  H
  H82      1.0000 0.32350  0.82420  0.32040  Biso   1.000  H
  H83      1.0000 0.28420  0.85770  0.37390  Biso   1.000  H
  C129     1.0000 0.11720  0.97880  0.31030  Biso   1.000  C
  C130     1.0000 0.12660  0.94270  0.26120  Biso   1.000  C
  C131     1.0000 0.08270  0.90800  0.25210  Biso   1.000  C
  C132     1.0000 0.00610  0.89270  0.28510  Biso   1.000  C
  C133     1.0000 0.19000  0.90580  0.17490  Biso   1.000  C
  C134     1.0000 0.25150  0.89010  0.11670  Biso   1.000  C
  H84      1.0000 0.26980  0.91150  0.08280  Biso   1.000  H
  H85      1.0000 0.29860  0.87910  0.14450  Biso   1.000  H
  H86      1.0000 0.22590  0.86950  0.08520  Biso   1.000  H
  C135     1.0000 0.15480  0.89640  0.49300  Biso   1.000  C
  C136     1.0000 0.19830  0.91920  0.55470  Biso   1.000  C
  C137     1.0000 0.18740  0.95670  0.58760  Biso   1.000  C
  C138     1.0000 0.12770  0.98810  0.57600  Biso   1.000  C
  C139     1.0000 0.29130  0.92750  0.64520  Biso   1.000  C
  C140     1.0000 0.36550  0.92020  0.69660  Biso   1.000  C
  H87      1.0000 0.36340  0.93780  0.74160  Biso   1.000  H
  H88      1.0000 0.36530  0.89280  0.71430  Biso   1.000  H
  H89      1.0000 0.41540  0.92530  0.66680  Biso   1.000  H
  C141     1.0000 0.07240  0.00180  0.79720  Biso   1.000  C
  H90      1.0000 0.06020  0.98210  0.75970  Biso   1.000  H
  C142     1.0000 0.01320  0.01160  0.85020  Biso   1.000  C
  H91      1.0000 0.96130  0.99920  0.84770  Biso   1.000  H
  C143     1.0000 0.02810  0.03940  0.90750  Biso   1.000  C
  C144     1.0000 0.10590  0.05600  0.90690  Biso   1.000  C
  H92      1.0000 0.11930  0.07530  0.94460  Biso   1.000  H
  C145     1.0000 0.16330  0.04520  0.85340  Biso   1.000  C
  H93      1.0000 0.21620  0.05650  0.85660  Biso   1.000  H
  C146     1.0000 0.83240  0.04580  0.02980  Biso   1.000  C
  H94      1.0000 0.78130  0.03270  0.03250  Biso   1.000  H
  C147     1.0000 0.88900  0.03200  0.97680  Biso   1.000  C
  H95      1.0000 0.87820  0.00920  0.94670  Biso   1.000  H
  C148     1.0000 0.96360  0.05270  0.96850  Biso   1.000  C
  C149     1.0000 0.97570  0.08450  0.01520  Biso   1.000  C
  H96      1.0000 0.02510  0.09910  0.01140  Biso   1.000  H
  C150     1.0000 0.91620  0.09580  0.06860  Biso   1.000  C
  H97      1.0000 0.92660  0.11820  0.10000  Biso   1.000  H
  H98      1.0000 0.83550  0.75780  0.05610  Biso   1.000  H
  H99      1.0000 0.77270  0.72360  0.07850  Biso   1.000  H
  H100     1.0000 0.74640  0.76860  0.08790  Biso   1.000  H
  Tm6      1.0000 0.51719  0.05398  0.94552  Biso   1.000  Tm
  Zn16     1.0000 0.93700  0.16666  0.82576  Biso   1.000  Zn
  Zn17     1.0000 0.23028  0.15976  0.06957  Biso   1.000  Zn
  Zn18     1.0000 0.26234  0.99031  0.21264  Biso   1.000  Zn
  O71      1.0000 0.86530  0.20760  0.24090  Biso   1.000  O
  O72      1.0000 0.81210  0.16390  0.32370  Biso   1.000  O
  O73      1.0000 0.87850  0.20830  0.04610  Biso   1.000  O
  O74      1.0000 0.86840  0.18960  0.92050  Biso   1.000  O
  O75      1.0000 0.01130  0.20780  0.15410  Biso   1.000  O
  O76      1.0000 0.13150  0.17660  0.15170  Biso   1.000  O
  O77      1.0000 0.44060  0.01720  0.85820  Biso   1.000  O
  O78      1.0000 0.32760  0.99530  0.80070  Biso   1.000  O
  O79      1.0000 0.53730  0.08750  0.83320  Biso   1.000  O
  O80      1.0000 0.51590  0.14170  0.76360  Biso   1.000  O
  O81      1.0000 0.40060  0.08810  0.95280  Biso   1.000  O
  O82      1.0000 0.32150  0.13900  0.98320  Biso   1.000  O
  O83      1.0000 0.43480  0.01480  0.03220  Biso   1.000  O
  O84      1.0000 0.36000  0.97970  0.11290  Biso   1.000  O
  N46      1.0000 0.77350  0.21710  0.43200  Biso   1.000  N
  N47      1.0000 0.02830  0.17360  0.90490  Biso   1.000  N
  N48      1.0000 0.12900  0.16770  0.99460  Biso   1.000  N
  N49      1.0000 0.30560  0.05930  0.71060  Biso   1.000  N
  N50      1.0000 0.37720  0.11500  0.69620  Biso   1.000  N
  N51      1.0000 0.23520  0.09890  0.09050  Biso   1.000  N
  N52      1.0000 0.25220  0.03800  0.14530  Biso   1.000  N
  N53      1.0000 0.35200  0.98120  0.29560  Biso   1.000  N
  N54      1.0000 0.65540  0.92310  0.57830  Biso   1.000  N
  C151     1.0000 0.82810  0.19870  0.30550  Biso   1.000  C
  C152     1.0000 0.80540  0.22900  0.36410  Biso   1.000  C
  C153     1.0000 0.90850  0.19570  0.98260  Biso   1.000  C
  C154     1.0000 0.99760  0.18570  0.97890  Biso   1.000  C
  C155     1.0000 0.06120  0.18180  0.03210  Biso   1.000  C
  C156     1.0000 0.06870  0.18960  0.11730  Biso   1.000  C
  C157     1.0000 0.10800  0.16360  0.91700  Biso   1.000  C
  C158     1.0000 0.16480  0.15260  0.85210  Biso   1.000  C
  H101     1.0000 0.13910  0.13240  0.81970  Biso   1.000  H
  H102     1.0000 0.17650  0.17580  0.82040  Biso   1.000  H
  H103     1.0000 0.21580  0.14230  0.87390  Biso   1.000  H
  C159     1.0000 0.38280  0.02120  0.81030  Biso   1.000  C
  C160     1.0000 0.37340  0.05730  0.76120  Biso   1.000  C
  C161     1.0000 0.41730  0.09200  0.75210  Biso   1.000  C
  C162     1.0000 0.49390  0.10730  0.78510  Biso   1.000  C
  C163     1.0000 0.31000  0.09420  0.67490  Biso   1.000  C
  C164     1.0000 0.24850  0.10990  0.61670  Biso   1.000  C
  H104     1.0000 0.23020  0.08850  0.58280  Biso   1.000  H
  H105     1.0000 0.20140  0.12090  0.64450  Biso   1.000  H
  H106     1.0000 0.27410  0.13050  0.58520  Biso   1.000  H
  C165     1.0000 0.34520  0.10360  0.99300  Biso   1.000  C
  C166     1.0000 0.30170  0.08080  0.05470  Biso   1.000  C
  C167     1.0000 0.31260  0.04330  0.08760  Biso   1.000  C
  C168     1.0000 0.37230  0.01190  0.07600  Biso   1.000  C
  C169     1.0000 0.20870  0.07250  0.14520  Biso   1.000  C
  C170     1.0000 0.13450  0.07980  0.19660  Biso   1.000  C
  H107     1.0000 0.13660  0.06220  0.24160  Biso   1.000  H
  H108     1.0000 0.13470  0.10720  0.21430  Biso   1.000  H
  H109     1.0000 0.08460  0.07470  0.16680  Biso   1.000  H
  C171     1.0000 0.42760  0.99820  0.29720  Biso   1.000  C
  H110     1.0000 0.43980  0.01790  0.25970  Biso   1.000  H
  C172     1.0000 0.48680  0.98840  0.35020  Biso   1.000  C
  H111     1.0000 0.53870  0.00080  0.34770  Biso   1.000  H
  C173     1.0000 0.47190  0.96060  0.40750  Biso   1.000  C
  C174     1.0000 0.39410  0.94400  0.40690  Biso   1.000  C
  H112     1.0000 0.38070  0.92470  0.44460  Biso   1.000  H
  C175     1.0000 0.33670  0.95480  0.35340  Biso   1.000  C
  H113     1.0000 0.28380  0.94350  0.35660  Biso   1.000  H
  C176     1.0000 0.66760  0.95420  0.52980  Biso   1.000  C
  H114     1.0000 0.71870  0.96730  0.53250  Biso   1.000  H
  C177     1.0000 0.61100  0.96800  0.47680  Biso   1.000  C
  H115     1.0000 0.62180  0.99080  0.44670  Biso   1.000  H
  C178     1.0000 0.53640  0.94730  0.46850  Biso   1.000  C
  C179     1.0000 0.52430  0.91550  0.51520  Biso   1.000  C
  H116     1.0000 0.47490  0.90090  0.51140  Biso   1.000  H
  C180     1.0000 0.58380  0.90420  0.56860  Biso   1.000  C
  H117     1.0000 0.57340  0.88180  0.60000  Biso   1.000  H
  H118     1.0000 0.66450  0.24220  0.55610  Biso   1.000  H
  H119     1.0000 0.72730  0.27640  0.57850  Biso   1.000  H
  H120     1.0000 0.75360  0.23140  0.58790  Biso   1.000  H
  Tm7      1.0000 0.01719  0.44602  0.55448  Biso   1.000  Tm
  Zn19     1.0000 0.43700  0.33334  0.67424  Biso   1.000  Zn
  Zn20     1.0000 0.73028  0.34024  0.43043  Biso   1.000  Zn
  Zn21     1.0000 0.76234  0.50969  0.28736  Biso   1.000  Zn
  O85      1.0000 0.36530  0.29240  0.25910  Biso   1.000  O
  O86      1.0000 0.31210  0.33610  0.17630  Biso   1.000  O
  O87      1.0000 0.37850  0.29170  0.45390  Biso   1.000  O
  O88      1.0000 0.36840  0.31040  0.57950  Biso   1.000  O
  O89      1.0000 0.51130  0.29220  0.34590  Biso   1.000  O
  O90      1.0000 0.63150  0.32340  0.34830  Biso   1.000  O
  O91      1.0000 0.94060  0.48280  0.64180  Biso   1.000  O
  O92      1.0000 0.82760  0.50470  0.69930  Biso   1.000  O
  O93      1.0000 0.03730  0.41250  0.66680  Biso   1.000  O
  O94      1.0000 0.01590  0.35830  0.73640  Biso   1.000  O
  O95      1.0000 0.90060  0.41190  0.54720  Biso   1.000  O
  O96      1.0000 0.82150  0.36100  0.51680  Biso   1.000  O
  O97      1.0000 0.93480  0.48520  0.46780  Biso   1.000  O
  O98      1.0000 0.86000  0.52030  0.38710  Biso   1.000  O
  N55      1.0000 0.27350  0.28290  0.06800  Biso   1.000  N
  N56      1.0000 0.52830  0.32640  0.59510  Biso   1.000  N
  N57      1.0000 0.62900  0.33230  0.50540  Biso   1.000  N
  N58      1.0000 0.80560  0.44070  0.78940  Biso   1.000  N
  N59      1.0000 0.87720  0.38500  0.80380  Biso   1.000  N
  N60      1.0000 0.73520  0.40110  0.40950  Biso   1.000  N
  N61      1.0000 0.75220  0.46200  0.35470  Biso   1.000  N
  N62      1.0000 0.85200  0.51880  0.20440  Biso   1.000  N
  N63      1.0000 0.15540  0.57690  0.92170  Biso   1.000  N
  C181     1.0000 0.32810  0.30130  0.19450  Biso   1.000  C
  C182     1.0000 0.30540  0.27100  0.13590  Biso   1.000  C
  C183     1.0000 0.40850  0.30430  0.51740  Biso   1.000  C
  C184     1.0000 0.49760  0.31430  0.52110  Biso   1.000  C
  C185     1.0000 0.56120  0.31820  0.46790  Biso   1.000  C
  C186     1.0000 0.56870  0.31040  0.38270  Biso   1.000  C
  C187     1.0000 0.60800  0.33640  0.58300  Biso   1.000  C
  C188     1.0000 0.66480  0.34740  0.64790  Biso   1.000  C
  H121     1.0000 0.63910  0.36760  0.68030  Biso   1.000  H
  H122     1.0000 0.67650  0.32420  0.67960  Biso   1.000  H
  H123     1.0000 0.71580  0.35770  0.62610  Biso   1.000  H
  C189     1.0000 0.88280  0.47880  0.68970  Biso   1.000  C
  C190     1.0000 0.87340  0.44270  0.73880  Biso   1.000  C
  C191     1.0000 0.91730  0.40800  0.74790  Biso   1.000  C
  C192     1.0000 0.99390  0.39270  0.71490  Biso   1.000  C
  C193     1.0000 0.81000  0.40580  0.82510  Biso   1.000  C
  C194     1.0000 0.74850  0.39010  0.88330  Biso   1.000  C
  H124     1.0000 0.73020  0.41150  0.91720  Biso   1.000  H
  H125     1.0000 0.70140  0.37910  0.85550  Biso   1.000  H
  H126     1.0000 0.77410  0.36950  0.91480  Biso   1.000  H
  C195     1.0000 0.84520  0.39640  0.50700  Biso   1.000  C
  C196     1.0000 0.80170  0.41920  0.44530  Biso   1.000  C
  C197     1.0000 0.81260  0.45670  0.41240  Biso   1.000  C
  C198     1.0000 0.87230  0.48810  0.42400  Biso   1.000  C
  C199     1.0000 0.70870  0.42750  0.35480  Biso   1.000  C
  C200     1.0000 0.63450  0.42020  0.30340  Biso   1.000  C
  H127     1.0000 0.63660  0.43780  0.25840  Biso   1.000  H
  H128     1.0000 0.63470  0.39280  0.28570  Biso   1.000  H
  H129     1.0000 0.58460  0.42530  0.33320  Biso   1.000  H
  C201     1.0000 0.92760  0.50180  0.20280  Biso   1.000  C
  H130     1.0000 0.93980  0.48210  0.24030  Biso   1.000  H
  C202     1.0000 0.98680  0.51160  0.14980  Biso   1.000  C
  H131     1.0000 0.03870  0.49920  0.15230  Biso   1.000  H
  C203     1.0000 0.97190  0.53940  0.09250  Biso   1.000  C
  C204     1.0000 0.89410  0.55600  0.09310  Biso   1.000  C
  H132     1.0000 0.88070  0.57530  0.05540  Biso   1.000  H
  C205     1.0000 0.83670  0.54520  0.14660  Biso   1.000  C
  H133     1.0000 0.78380  0.55650  0.14340  Biso   1.000  H
  C206     1.0000 0.16760  0.54580  0.97020  Biso   1.000  C
  H134     1.0000 0.21870  0.53270  0.96750  Biso   1.000  H
  C207     1.0000 0.11100  0.53200  0.02320  Biso   1.000  C
  H135     1.0000 0.12180  0.50920  0.05330  Biso   1.000  H
  C208     1.0000 0.03640  0.55270  0.03150  Biso   1.000  C
  C209     1.0000 0.02430  0.58450  0.98480  Biso   1.000  C
  H136     1.0000 0.97490  0.59910  0.98860  Biso   1.000  H
  C210     1.0000 0.08380  0.59580  0.93140  Biso   1.000  C
  H137     1.0000 0.07340  0.61820  0.90000  Biso   1.000  H
  H138     1.0000 0.16450  0.25780  0.94390  Biso   1.000  H
  H139     1.0000 0.22730  0.22360  0.92150  Biso   1.000  H
  H140     1.0000 0.25360  0.26860  0.91210  Biso   1.000  H
  Tm8      1.0000 0.48281  0.55398  0.05448  Biso   1.000  Tm
  Zn22     1.0000 0.06300  0.66666  0.17424  Biso   1.000  Zn
  Zn23     1.0000 0.76972  0.65976  0.93043  Biso   1.000  Zn
  Zn24     1.0000 0.73766  0.49031  0.78736  Biso   1.000  Zn
  O99      1.0000 0.13470  0.70760  0.75910  Biso   1.000  O
  O100     1.0000 0.18790  0.66390  0.67630  Biso   1.000  O
  O101     1.0000 0.12150  0.70830  0.95390  Biso   1.000  O
  O102     1.0000 0.13160  0.68960  0.07950  Biso   1.000  O
  O103     1.0000 0.98870  0.70780  0.84590  Biso   1.000  O
  O104     1.0000 0.86850  0.67660  0.84830  Biso   1.000  O
  O105     1.0000 0.55940  0.51720  0.14180  Biso   1.000  O
  O106     1.0000 0.67240  0.49530  0.19930  Biso   1.000  O
  O107     1.0000 0.46270  0.58750  0.16680  Biso   1.000  O
  O108     1.0000 0.48410  0.64170  0.23640  Biso   1.000  O
  O109     1.0000 0.59940  0.58810  0.04720  Biso   1.000  O
  O110     1.0000 0.67850  0.63900  0.01680  Biso   1.000  O
  O111     1.0000 0.56520  0.51480  0.96780  Biso   1.000  O
  O112     1.0000 0.64000  0.47970  0.88710  Biso   1.000  O
  N64      1.0000 0.22650  0.71710  0.56800  Biso   1.000  N
  N65      1.0000 0.97170  0.67360  0.09510  Biso   1.000  N
  N66      1.0000 0.87100  0.66770  0.00540  Biso   1.000  N
  N67      1.0000 0.69440  0.55930  0.28940  Biso   1.000  N
  N68      1.0000 0.62280  0.61500  0.30380  Biso   1.000  N
  N69      1.0000 0.76480  0.59890  0.90950  Biso   1.000  N
  N70      1.0000 0.74780  0.53800  0.85470  Biso   1.000  N
  N71      1.0000 0.64800  0.48120  0.70440  Biso   1.000  N
  N72      1.0000 0.34460  0.42310  0.42170  Biso   1.000  N
  C211     1.0000 0.17190  0.69870  0.69450  Biso   1.000  C
  C212     1.0000 0.19460  0.72900  0.63590  Biso   1.000  C
  C213     1.0000 0.09150  0.69570  0.01740  Biso   1.000  C
  C214     1.0000 0.00240  0.68570  0.02110  Biso   1.000  C
  C215     1.0000 0.93880  0.68180  0.96790  Biso   1.000  C
  C216     1.0000 0.93130  0.68960  0.88270  Biso   1.000  C
  C217     1.0000 0.89200  0.66360  0.08300  Biso   1.000  C
  C218     1.0000 0.83520  0.65260  0.14790  Biso   1.000  C
  H141     1.0000 0.86090  0.63240  0.18030  Biso   1.000  H
  H142     1.0000 0.82350  0.67580  0.17960  Biso   1.000  H
  H143     1.0000 0.78420  0.64230  0.12610  Biso   1.000  H
  C219     1.0000 0.61720  0.52120  0.18970  Biso   1.000  C
  C220     1.0000 0.62660  0.55730  0.23880  Biso   1.000  C
  C221     1.0000 0.58270  0.59200  0.24790  Biso   1.000  C
  C222     1.0000 0.50610  0.60730  0.21490  Biso   1.000  C
  C223     1.0000 0.69000  0.59420  0.32510  Biso   1.000  C
  C224     1.0000 0.75150  0.60990  0.38330  Biso   1.000  C
  H144     1.0000 0.76980  0.58850  0.41720  Biso   1.000  H
  H145     1.0000 0.79860  0.62090  0.35550  Biso   1.000  H
  H146     1.0000 0.72590  0.63050  0.41480  Biso   1.000  H
  C225     1.0000 0.65480  0.60360  0.00700  Biso   1.000  C
  C226     1.0000 0.69830  0.58080  0.94530  Biso   1.000  C
  C227     1.0000 0.68740  0.54330  0.91240  Biso   1.000  C
  C228     1.0000 0.62770  0.51190  0.92400  Biso   1.000  C
  C229     1.0000 0.79130  0.57250  0.85480  Biso   1.000  C
  C230     1.0000 0.86550  0.57980  0.80340  Biso   1.000  C
  H147     1.0000 0.86340  0.56220  0.75840  Biso   1.000  H
  H148     1.0000 0.86530  0.60720  0.78570  Biso   1.000  H
  H149     1.0000 0.91540  0.57470  0.83320  Biso   1.000  H
  C231     1.0000 0.57240  0.49820  0.70280  Biso   1.000  C
  H150     1.0000 0.56020  0.51790  0.74030  Biso   1.000  H
  C232     1.0000 0.51320  0.48840  0.64980  Biso   1.000  C
  H151     1.0000 0.46130  0.50080  0.65230  Biso   1.000  H
  C233     1.0000 0.52810  0.46060  0.59250  Biso   1.000  C
  C234     1.0000 0.60590  0.44400  0.59310  Biso   1.000  C
  H152     1.0000 0.61930  0.42470  0.55540  Biso   1.000  H
  C235     1.0000 0.66330  0.45480  0.64660  Biso   1.000  C
  H153     1.0000 0.71620  0.44350  0.64340  Biso   1.000  H
  C236     1.0000 0.33240  0.45420  0.47020  Biso   1.000  C
  H154     1.0000 0.28130  0.46730  0.46750  Biso   1.000  H
  C237     1.0000 0.38900  0.46800  0.52320  Biso   1.000  C
  H155     1.0000 0.37820  0.49080  0.55330  Biso   1.000  H
  C238     1.0000 0.46360  0.44730  0.53150  Biso   1.000  C
  C239     1.0000 0.47570  0.41550  0.48480  Biso   1.000  C
  H156     1.0000 0.52510  0.40090  0.48860  Biso   1.000  H
  C240     1.0000 0.41620  0.40420  0.43140  Biso   1.000  C
  H157     1.0000 0.42660  0.38180  0.40000  Biso   1.000  H
  H158     1.0000 0.33550  0.74220  0.44390  Biso   1.000  H
  H159     1.0000 0.27270  0.77640  0.42150  Biso   1.000  H
  H160     1.0000 0.24640  0.73140  0.41210  Biso   1.000  H
  Tm9      1.0000 0.40206  0.25000  0.35137  Biso   1.000  Tm
  C241     1.0000 0.25470  0.25000  0.02610  Biso   1.000  C
  C242     1.0000 0.22210  0.25000  0.94360  Biso   1.000  C
  Tm10     1.0000 0.09794  0.75000  0.85137  Biso   1.000  Tm
  C243     1.0000 0.24530  0.75000  0.52610  Biso   1.000  C
  C244     1.0000 0.27790  0.75000  0.44360  Biso   1.000  C
  Tm11     1.0000 0.59794  0.75000  0.64863  Biso   1.000  Tm
  C245     1.0000 0.74530  0.75000  0.97390  Biso   1.000  C
  C246     1.0000 0.77790  0.75000  0.05640  Biso   1.000  C
  Tm12     1.0000 0.90206  0.25000  0.14863  Biso   1.000  Tm
  C247     1.0000 0.75470  0.25000  0.47390  Biso   1.000  C
  C248     1.0000 0.72210  0.25000  0.55640  Biso   1.000  C
