data_image0
_cell_length_a       34.95
_cell_length_b       17.274
_cell_length_c       16.676
_cell_angle_alpha    90
_cell_angle_beta     90
_cell_angle_gamma    90

_symmetry_space_group_name_H-M    "P 1"
_symmetry_int_tables_number       1

loop_
  _symmetry_equiv_pos_as_xyz
  'x, y, z'

loop_
  _atom_site_label
  _atom_site_occupancy
  _atom_site_fract_x
  _atom_site_fract_y
  _atom_site_fract_z
  _atom_site_thermal_displace_type
  _atom_site_B_iso_or_equiv
  _atom_site_type_symbol
  O1       1.0000 0.52000  0.38600  0.64040  Biso   1.000  O
  C1       1.0000 0.48830  0.42410  0.62790  Biso   1.000  C
  N1       1.0000 0.33330  0.99520  0.37060  Biso   1.000  N
  Er1      1.0000 0.44615  0.55481  0.48225  Biso   1.000  Er
  Zn1      1.0000 0.34026  0.43164  0.76865  Biso   1.000  Zn
  Zn2      1.0000 0.49068  0.78812  0.76159  Biso   1.000  Zn
  Zn3      1.0000 0.33401  0.82752  0.56453  Biso   1.000  Zn
  O2       1.0000 0.29160  0.04760  0.61960  Biso   1.000  O
  O3       1.0000 0.41150  0.54580  0.59730  Biso   1.000  O
  O4       1.0000 0.48440  0.46820  0.56400  Biso   1.000  O
  O5       1.0000 0.48270  0.64180  0.55970  Biso   1.000  O
  N2       1.0000 0.32680  0.90580  0.47210  Biso   1.000  N
  O6       1.0000 0.50530  0.70070  0.67060  Biso   1.000  O
  O7       1.0000 0.35860  0.73720  0.48610  Biso   1.000  O
  O8       1.0000 0.33710  0.32680  0.68450  Biso   1.000  O
  N3       1.0000 0.44090  0.79070  0.69240  Biso   1.000  N
  N4       1.0000 0.46120  0.35600  0.74920  Biso   1.000  N
  O9       1.0000 0.36090  0.51530  0.67690  Biso   1.000  O
  O10      1.0000 0.32330  0.15240  0.36710  Biso   1.000  O
  N5       1.0000 0.40130  0.40970  0.76540  Biso   1.000  N
  C2       1.0000 0.30390  0.98510  0.58920  Biso   1.000  C
  C3       1.0000 0.47880  0.69140  0.61600  Biso   1.000  C
  C4       1.0000 0.40870  0.74890  0.58370  Biso   1.000  C
  C5       1.0000 0.39290  0.71570  0.50800  Biso   1.000  C
  N6       1.0000 0.38500  0.80380  0.62270  Biso   1.000  N
  C6       1.0000 0.41930  0.44720  0.69860  Biso   1.000  C
  N7       1.0000 0.28260  0.43410  0.72730  Biso   1.000  N
  O11      1.0000 0.31120  0.92340  0.63310  Biso   1.000  O
  C7       1.0000 0.45660  0.41280  0.68920  Biso   1.000  C
  O12      1.0000 0.29120  0.15610  0.48500  Biso   1.000  O
  C8       1.0000 0.27060  0.36440  0.69370  Biso   1.000  C
  C9       1.0000 0.44250  0.73940  0.62800  Biso   1.000  C
  C10      1.0000 0.33760  0.91730  0.39480  Biso   1.000  C
  C11      1.0000 0.31880  0.03280  0.43820  Biso   1.000  C
  C12      1.0000 0.31010  0.12040  0.42830  Biso   1.000  C
  O13      1.0000 0.29190  0.24630  0.62740  Biso   1.000  O
  C13      1.0000 0.46170  0.59270  0.97320  Biso   1.000  C
  C14      1.0000 0.39560  0.50650  0.65400  Biso   1.000  C
  C15      1.0000 0.42830  0.35520  0.79210  Biso   1.000  C
  C16      1.0000 0.31500  0.98100  0.50160  Biso   1.000  C
  C17      1.0000 0.44820  0.53220  0.03240  Biso   1.000  C
  C18      1.0000 0.48960  0.64840  0.98530  Biso   1.000  C
  H1       1.0000 0.50200  0.64910  0.03460  Biso   1.000  H
  O14      1.0000 0.41260  0.66810  0.46490  Biso   1.000  O
  C19      1.0000 0.30220  0.30800  0.67050  Biso   1.000  C
  C20      1.0000 0.41620  0.48270  0.02000  Biso   1.000  C
  H2       1.0000 0.40320  0.48300  0.97140  Biso   1.000  H
  N8       1.0000 0.48200  0.70340  0.85030  Biso   1.000  N
  C21      1.0000 0.40630  0.82750  0.69110  Biso   1.000  C
  N9       1.0000 0.42390  0.42530  0.15670  Biso   1.000  N
  C22      1.0000 0.46860  0.52600  0.11000  Biso   1.000  C
  H3       1.0000 0.48990  0.55650  0.12040  Biso   1.000  H
  C23      1.0000 0.45720  0.64620  0.83410  Biso   1.000  C
  H4       1.0000 0.44700  0.64260  0.78280  Biso   1.000  H
  C24      1.0000 0.39090  0.88360  0.74840  Biso   1.000  C
  H5       1.0000 0.38190  0.85690  0.79530  Biso   1.000  H
  H6       1.0000 0.37000  0.91110  0.72420  Biso   1.000  H
  H7       1.0000 0.41050  0.91960  0.76340  Biso   1.000  H
  C25      1.0000 0.34850  0.85270  0.33890  Biso   1.000  C
  H8       1.0000 0.32570  0.82890  0.31820  Biso   1.000  H
  H9       1.0000 0.36330  0.81490  0.36750  Biso   1.000  H
  H10      1.0000 0.36330  0.87310  0.29530  Biso   1.000  H
  C26      1.0000 0.41910  0.30350  0.86230  Biso   1.000  C
  H11      1.0000 0.42090  0.25030  0.84600  Biso   1.000  H
  H12      1.0000 0.39360  0.31400  0.88060  Biso   1.000  H
  H13      1.0000 0.43690  0.31330  0.90490  Biso   1.000  H
  C27      1.0000 0.45500  0.47260  0.16820  Biso   1.000  C
  H14      1.0000 0.46780  0.46960  0.21690  Biso   1.000  H
  C28      1.0000 0.40420  0.43200  0.08400  Biso   1.000  C
  H15      1.0000 0.38220  0.40240  0.07660  Biso   1.000  H
  C29      1.0000 0.44620  0.59080  0.89250  Biso   1.000  C
  H16      1.0000 0.42860  0.55260  0.87880  Biso   1.000  H
  C30      1.0000 0.49970  0.70050  0.93190  Biso   1.000  C
  H17      1.0000 0.51840  0.73660  0.94520  Biso   1.000  H
  H18      1.0000 0.26280  0.59120  0.74520  Biso   1.000  H
  H19      1.0000 0.22410  0.57340  0.78910  Biso   1.000  H
  H20      1.0000 0.26310  0.55610  0.83190  Biso   1.000  H
  H21      1.0000 0.41690  0.39270  0.19280  Biso   1.000  H
  O15      1.0000 0.48000  0.88600  0.85960  Biso   1.000  O
  C31      1.0000 0.51170  0.92410  0.87210  Biso   1.000  C
  N10      1.0000 0.66670  0.49520  0.12940  Biso   1.000  N
  Er2      1.0000 0.55385  0.05481  0.01775  Biso   1.000  Er
  Zn4      1.0000 0.65974  0.93164  0.73135  Biso   1.000  Zn
  Zn5      1.0000 0.50932  0.28812  0.73841  Biso   1.000  Zn
  Zn6      1.0000 0.66599  0.32752  0.93547  Biso   1.000  Zn
  O16      1.0000 0.70840  0.54760  0.88040  Biso   1.000  O
  O17      1.0000 0.58850  0.04580  0.90270  Biso   1.000  O
  O18      1.0000 0.51560  0.96820  0.93600  Biso   1.000  O
  O19      1.0000 0.51730  0.14180  0.94030  Biso   1.000  O
  N11      1.0000 0.67320  0.40580  0.02790  Biso   1.000  N
  O20      1.0000 0.49470  0.20070  0.82940  Biso   1.000  O
  O21      1.0000 0.64140  0.23720  0.01390  Biso   1.000  O
  O22      1.0000 0.66290  0.82680  0.81550  Biso   1.000  O
  N12      1.0000 0.55910  0.29070  0.80760  Biso   1.000  N
  N13      1.0000 0.53880  0.85600  0.75080  Biso   1.000  N
  O23      1.0000 0.63910  0.01530  0.82310  Biso   1.000  O
  O24      1.0000 0.67670  0.65240  0.13290  Biso   1.000  O
  N14      1.0000 0.59870  0.90970  0.73460  Biso   1.000  N
  C32      1.0000 0.69610  0.48510  0.91080  Biso   1.000  C
  C33      1.0000 0.52120  0.19140  0.88400  Biso   1.000  C
  C34      1.0000 0.59130  0.24890  0.91630  Biso   1.000  C
  C35      1.0000 0.60710  0.21570  0.99200  Biso   1.000  C
  N15      1.0000 0.61500  0.30380  0.87730  Biso   1.000  N
  C36      1.0000 0.58070  0.94720  0.80140  Biso   1.000  C
  N16      1.0000 0.71740  0.93410  0.77270  Biso   1.000  N
  O25      1.0000 0.68880  0.42340  0.86690  Biso   1.000  O
  C37      1.0000 0.54340  0.91280  0.81080  Biso   1.000  C
  O26      1.0000 0.70880  0.65610  0.01500  Biso   1.000  O
  C38      1.0000 0.72940  0.86440  0.80630  Biso   1.000  C
  C39      1.0000 0.55750  0.23940  0.87200  Biso   1.000  C
  C40      1.0000 0.66240  0.41730  0.10520  Biso   1.000  C
  C41      1.0000 0.68120  0.53280  0.06180  Biso   1.000  C
  C42      1.0000 0.68990  0.62040  0.07170  Biso   1.000  C
  O27      1.0000 0.70810  0.74630  0.87260  Biso   1.000  O
  C43      1.0000 0.53830  0.09270  0.52680  Biso   1.000  C
  C44      1.0000 0.60440  0.00650  0.84600  Biso   1.000  C
  C45      1.0000 0.57170  0.85520  0.70790  Biso   1.000  C
  C46      1.0000 0.68500  0.48100  0.99840  Biso   1.000  C
  C47      1.0000 0.55180  0.03220  0.46760  Biso   1.000  C
  C48      1.0000 0.51040  0.14840  0.51470  Biso   1.000  C
  H22      1.0000 0.49800  0.14910  0.46540  Biso   1.000  H
  O28      1.0000 0.58740  0.16810  0.03510  Biso   1.000  O
  C49      1.0000 0.69780  0.80800  0.82950  Biso   1.000  C
  C50      1.0000 0.58380  0.98270  0.48000  Biso   1.000  C
  H23      1.0000 0.59680  0.98300  0.52860  Biso   1.000  H
  N17      1.0000 0.51800  0.20340  0.64970  Biso   1.000  N
  C51      1.0000 0.59370  0.32750  0.80890  Biso   1.000  C
  N18      1.0000 0.57610  0.92530  0.34330  Biso   1.000  N
  C52      1.0000 0.53140  0.02600  0.39000  Biso   1.000  C
  H24      1.0000 0.51010  0.05650  0.37960  Biso   1.000  H
  C53      1.0000 0.54280  0.14620  0.66590  Biso   1.000  C
  H25      1.0000 0.55300  0.14260  0.71720  Biso   1.000  H
  C54      1.0000 0.60910  0.38360  0.75160  Biso   1.000  C
  H26      1.0000 0.61810  0.35690  0.70470  Biso   1.000  H
  H27      1.0000 0.63000  0.41110  0.77580  Biso   1.000  H
  H28      1.0000 0.58950  0.41960  0.73660  Biso   1.000  H
  C55      1.0000 0.65150  0.35270  0.16110  Biso   1.000  C
  H29      1.0000 0.67430  0.32890  0.18180  Biso   1.000  H
  H30      1.0000 0.63670  0.31490  0.13250  Biso   1.000  H
  H31      1.0000 0.63670  0.37310  0.20470  Biso   1.000  H
  C56      1.0000 0.58090  0.80350  0.63770  Biso   1.000  C
  H32      1.0000 0.57910  0.75030  0.65400  Biso   1.000  H
  H33      1.0000 0.60640  0.81400  0.61940  Biso   1.000  H
  H34      1.0000 0.56310  0.81330  0.59510  Biso   1.000  H
  C57      1.0000 0.54500  0.97260  0.33180  Biso   1.000  C
  H35      1.0000 0.53220  0.96960  0.28310  Biso   1.000  H
  C58      1.0000 0.59580  0.93200  0.41600  Biso   1.000  C
  H36      1.0000 0.61780  0.90240  0.42340  Biso   1.000  H
  C59      1.0000 0.55380  0.09080  0.60750  Biso   1.000  C
  H37      1.0000 0.57140  0.05260  0.62120  Biso   1.000  H
  C60      1.0000 0.50030  0.20050  0.56810  Biso   1.000  C
  H38      1.0000 0.48160  0.23660  0.55480  Biso   1.000  H
  H39      1.0000 0.73720  0.09120  0.75480  Biso   1.000  H
  H40      1.0000 0.77590  0.07340  0.71090  Biso   1.000  H
  H41      1.0000 0.73690  0.05610  0.66810  Biso   1.000  H
  H42      1.0000 0.58310  0.89270  0.30720  Biso   1.000  H
  O29      1.0000 0.02000  0.61400  0.35960  Biso   1.000  O
  C61      1.0000 0.98830  0.57590  0.37210  Biso   1.000  C
  N19      1.0000 0.83330  0.00480  0.62940  Biso   1.000  N
  Er3      1.0000 0.94615  0.44519  0.51775  Biso   1.000  Er
  Zn7      1.0000 0.84026  0.56836  0.23135  Biso   1.000  Zn
  Zn8      1.0000 0.99068  0.21188  0.23841  Biso   1.000  Zn
  Zn9      1.0000 0.83401  0.17248  0.43547  Biso   1.000  Zn
  O30      1.0000 0.79160  0.95240  0.38040  Biso   1.000  O
  O31      1.0000 0.91150  0.45420  0.40270  Biso   1.000  O
  O32      1.0000 0.98440  0.53180  0.43600  Biso   1.000  O
  O33      1.0000 0.98270  0.35820  0.44030  Biso   1.000  O
  N20      1.0000 0.82680  0.09420  0.52790  Biso   1.000  N
  O34      1.0000 0.00530  0.29930  0.32940  Biso   1.000  O
  O35      1.0000 0.85860  0.26280  0.51390  Biso   1.000  O
  O36      1.0000 0.83710  0.67320  0.31550  Biso   1.000  O
  N21      1.0000 0.94090  0.20930  0.30760  Biso   1.000  N
  N22      1.0000 0.96120  0.64400  0.25080  Biso   1.000  N
  O37      1.0000 0.86090  0.48470  0.32310  Biso   1.000  O
  O38      1.0000 0.82330  0.84760  0.63290  Biso   1.000  O
  N23      1.0000 0.90130  0.59030  0.23460  Biso   1.000  N
  C62      1.0000 0.80390  0.01490  0.41080  Biso   1.000  C
  C63      1.0000 0.97880  0.30860  0.38400  Biso   1.000  C
  C64      1.0000 0.90870  0.25110  0.41630  Biso   1.000  C
  C65      1.0000 0.89290  0.28430  0.49200  Biso   1.000  C
  N24      1.0000 0.88500  0.19620  0.37730  Biso   1.000  N
  C66      1.0000 0.91930  0.55280  0.30140  Biso   1.000  C
  N25      1.0000 0.78260  0.56590  0.27270  Biso   1.000  N
  O39      1.0000 0.81120  0.07660  0.36690  Biso   1.000  O
  C67      1.0000 0.95660  0.58720  0.31080  Biso   1.000  C
  O40      1.0000 0.79120  0.84390  0.51500  Biso   1.000  O
  C68      1.0000 0.77060  0.63560  0.30630  Biso   1.000  C
  C69      1.0000 0.94250  0.26060  0.37200  Biso   1.000  C
  C70      1.0000 0.83760  0.08270  0.60520  Biso   1.000  C
  C71      1.0000 0.81880  0.96720  0.56180  Biso   1.000  C
  C72      1.0000 0.81010  0.87960  0.57170  Biso   1.000  C
  O41      1.0000 0.79190  0.75370  0.37260  Biso   1.000  O
  C73      1.0000 0.96170  0.40730  0.02680  Biso   1.000  C
  C74      1.0000 0.89560  0.49350  0.34600  Biso   1.000  C
  C75      1.0000 0.92830  0.64480  0.20790  Biso   1.000  C
  C76      1.0000 0.81500  0.01900  0.49840  Biso   1.000  C
  C77      1.0000 0.94820  0.46780  0.96760  Biso   1.000  C
  C78      1.0000 0.98960  0.35160  0.01470  Biso   1.000  C
  H43      1.0000 0.00200  0.35090  0.96540  Biso   1.000  H
  O42      1.0000 0.91260  0.33190  0.53510  Biso   1.000  O
  C79      1.0000 0.80220  0.69200  0.32950  Biso   1.000  C
  C80      1.0000 0.91620  0.51730  0.98000  Biso   1.000  C
  H44      1.0000 0.90320  0.51700  0.02860  Biso   1.000  H
  N26      1.0000 0.98200  0.29660  0.14970  Biso   1.000  N
  C81      1.0000 0.90630  0.17250  0.30890  Biso   1.000  C
  N27      1.0000 0.92390  0.57470  0.84330  Biso   1.000  N
  C82      1.0000 0.96860  0.47400  0.89000  Biso   1.000  C
  H45      1.0000 0.98990  0.44350  0.87960  Biso   1.000  H
  C83      1.0000 0.95720  0.35380  0.16590  Biso   1.000  C
  H46      1.0000 0.94700  0.35740  0.21720  Biso   1.000  H
  C84      1.0000 0.89090  0.11640  0.25160  Biso   1.000  C
  H47      1.0000 0.88190  0.14310  0.20470  Biso   1.000  H
  H48      1.0000 0.87000  0.08890  0.27580  Biso   1.000  H
  H49      1.0000 0.91050  0.08040  0.23660  Biso   1.000  H
  C85      1.0000 0.84850  0.14730  0.66110  Biso   1.000  C
  H50      1.0000 0.82570  0.17110  0.68180  Biso   1.000  H
  H51      1.0000 0.86330  0.18510  0.63250  Biso   1.000  H
  H52      1.0000 0.86330  0.12690  0.70470  Biso   1.000  H
  C86      1.0000 0.91910  0.69650  0.13770  Biso   1.000  C
  H53      1.0000 0.92090  0.74970  0.15400  Biso   1.000  H
  H54      1.0000 0.89360  0.68600  0.11940  Biso   1.000  H
  H55      1.0000 0.93690  0.68670  0.09510  Biso   1.000  H
  C87      1.0000 0.95500  0.52740  0.83180  Biso   1.000  C
  H56      1.0000 0.96780  0.53040  0.78310  Biso   1.000  H
  C88      1.0000 0.90420  0.56800  0.91600  Biso   1.000  C
  H57      1.0000 0.88220  0.59760  0.92340  Biso   1.000  H
  C89      1.0000 0.94620  0.40920  0.10750  Biso   1.000  C
  H58      1.0000 0.92860  0.44740  0.12120  Biso   1.000  H
  C90      1.0000 0.99970  0.29950  0.06810  Biso   1.000  C
  H59      1.0000 0.01840  0.26340  0.05480  Biso   1.000  H
  H60      1.0000 0.76280  0.40880  0.25480  Biso   1.000  H
  H61      1.0000 0.72410  0.42660  0.21090  Biso   1.000  H
  H62      1.0000 0.76310  0.44390  0.16810  Biso   1.000  H
  H63      1.0000 0.91690  0.60730  0.80720  Biso   1.000  H
  O43      1.0000 0.98000  0.11400  0.14040  Biso   1.000  O
  C91      1.0000 0.01170  0.07590  0.12790  Biso   1.000  C
  N28      1.0000 0.16670  0.50480  0.87060  Biso   1.000  N
  Er4      1.0000 0.05385  0.94519  0.98225  Biso   1.000  Er
  Zn10     1.0000 0.15974  0.06836  0.26865  Biso   1.000  Zn
  Zn11     1.0000 0.00932  0.71188  0.26159  Biso   1.000  Zn
  Zn12     1.0000 0.16599  0.67248  0.06453  Biso   1.000  Zn
  O44      1.0000 0.20840  0.45240  0.11960  Biso   1.000  O
  O45      1.0000 0.08850  0.95420  0.09730  Biso   1.000  O
  O46      1.0000 0.01560  0.03180  0.06400  Biso   1.000  O
  O47      1.0000 0.01730  0.85820  0.05970  Biso   1.000  O
  N29      1.0000 0.17320  0.59420  0.97210  Biso   1.000  N
  O48      1.0000 0.99470  0.79930  0.17060  Biso   1.000  O
  O49      1.0000 0.14140  0.76280  0.98610  Biso   1.000  O
  O50      1.0000 0.16290  0.17320  0.18450  Biso   1.000  O
  N30      1.0000 0.05910  0.70930  0.19240  Biso   1.000  N
  N31      1.0000 0.03880  0.14400  0.24920  Biso   1.000  N
  O51      1.0000 0.13910  0.98470  0.17690  Biso   1.000  O
  O52      1.0000 0.17670  0.34760  0.86710  Biso   1.000  O
  N32      1.0000 0.09870  0.09030  0.26540  Biso   1.000  N
  C92      1.0000 0.19610  0.51490  0.08920  Biso   1.000  C
  C93      1.0000 0.02120  0.80860  0.11600  Biso   1.000  C
  C94      1.0000 0.09130  0.75110  0.08370  Biso   1.000  C
  C95      1.0000 0.10710  0.78430  0.00800  Biso   1.000  C
  N33      1.0000 0.11500  0.69620  0.12270  Biso   1.000  N
  C96      1.0000 0.08070  0.05280  0.19860  Biso   1.000  C
  N34      1.0000 0.21740  0.06590  0.22730  Biso   1.000  N
  O53      1.0000 0.18880  0.57660  0.13310  Biso   1.000  O
  C97      1.0000 0.04340  0.08720  0.18920  Biso   1.000  C
  O54      1.0000 0.20880  0.34390  0.98500  Biso   1.000  O
  C98      1.0000 0.22940  0.13560  0.19370  Biso   1.000  C
  C99      1.0000 0.05750  0.76060  0.12800  Biso   1.000  C
  C100     1.0000 0.16240  0.58270  0.89480  Biso   1.000  C
  C101     1.0000 0.18120  0.46720  0.93820  Biso   1.000  C
  C102     1.0000 0.18990  0.37960  0.92830  Biso   1.000  C
  O55      1.0000 0.20810  0.25370  0.12740  Biso   1.000  O
  C103     1.0000 0.03830  0.90730  0.47320  Biso   1.000  C
  C104     1.0000 0.10440  0.99350  0.15400  Biso   1.000  C
  C105     1.0000 0.07170  0.14480  0.29210  Biso   1.000  C
  C106     1.0000 0.18500  0.51900  0.00160  Biso   1.000  C
  C107     1.0000 0.05180  0.96780  0.53240  Biso   1.000  C
  C108     1.0000 0.01040  0.85160  0.48530  Biso   1.000  C
  H64      1.0000 0.99800  0.85090  0.53460  Biso   1.000  H
  O56      1.0000 0.08740  0.83190  0.96490  Biso   1.000  O
  C109     1.0000 0.19780  0.19200  0.17050  Biso   1.000  C
  C110     1.0000 0.08380  0.01730  0.52000  Biso   1.000  C
  H65      1.0000 0.09680  0.01700  0.47140  Biso   1.000  H
  N35      1.0000 0.01800  0.79660  0.35030  Biso   1.000  N
  C111     1.0000 0.09370  0.67250  0.19110  Biso   1.000  C
  N36      1.0000 0.07610  0.07470  0.65670  Biso   1.000  N
  C112     1.0000 0.03140  0.97400  0.61000  Biso   1.000  C
  H66      1.0000 0.01010  0.94350  0.62040  Biso   1.000  H
  C113     1.0000 0.04280  0.85380  0.33410  Biso   1.000  C
  H67      1.0000 0.05300  0.85740  0.28280  Biso   1.000  H
  C114     1.0000 0.10910  0.61640  0.24840  Biso   1.000  C
  H68      1.0000 0.11810  0.64310  0.29530  Biso   1.000  H
  H69      1.0000 0.13000  0.58890  0.22420  Biso   1.000  H
  H70      1.0000 0.08950  0.58040  0.26340  Biso   1.000  H
  C115     1.0000 0.15150  0.64730  0.83890  Biso   1.000  C
  H71      1.0000 0.17430  0.67110  0.81820  Biso   1.000  H
  H72      1.0000 0.13670  0.68510  0.86750  Biso   1.000  H
  H73      1.0000 0.13670  0.62690  0.79530  Biso   1.000  H
  C116     1.0000 0.08090  0.19650  0.36230  Biso   1.000  C
  H74      1.0000 0.07910  0.24970  0.34600  Biso   1.000  H
  H75      1.0000 0.10640  0.18600  0.38060  Biso   1.000  H
  H76      1.0000 0.06310  0.18670  0.40490  Biso   1.000  H
  C117     1.0000 0.04500  0.02740  0.66820  Biso   1.000  C
  H77      1.0000 0.03220  0.03040  0.71690  Biso   1.000  H
  C118     1.0000 0.09580  0.06800  0.58400  Biso   1.000  C
  H78      1.0000 0.11780  0.09760  0.57660  Biso   1.000  H
  C119     1.0000 0.05380  0.90920  0.39250  Biso   1.000  C
  H79      1.0000 0.07140  0.94740  0.37880  Biso   1.000  H
  C120     1.0000 0.00030  0.79950  0.43190  Biso   1.000  C
  H80      1.0000 0.98160  0.76340  0.44520  Biso   1.000  H
  H81      1.0000 0.23720  0.90880  0.24520  Biso   1.000  H
  H82      1.0000 0.27590  0.92660  0.28910  Biso   1.000  H
  H83      1.0000 0.23690  0.94390  0.33190  Biso   1.000  H
  H84      1.0000 0.08310  0.10730  0.69280  Biso   1.000  H
  O57      1.0000 0.48000  0.61400  0.35960  Biso   1.000  O
  C121     1.0000 0.51170  0.57590  0.37210  Biso   1.000  C
  N37      1.0000 0.66670  0.00480  0.62940  Biso   1.000  N
  Er5      1.0000 0.55385  0.44519  0.51775  Biso   1.000  Er
  Zn13     1.0000 0.65974  0.56836  0.23135  Biso   1.000  Zn
  Zn14     1.0000 0.50932  0.21188  0.23841  Biso   1.000  Zn
  Zn15     1.0000 0.66599  0.17248  0.43547  Biso   1.000  Zn
  O58      1.0000 0.70840  0.95240  0.38040  Biso   1.000  O
  O59      1.0000 0.58850  0.45420  0.40270  Biso   1.000  O
  O60      1.0000 0.51560  0.53180  0.43600  Biso   1.000  O
  O61      1.0000 0.51730  0.35820  0.44030  Biso   1.000  O
  N38      1.0000 0.67320  0.09420  0.52790  Biso   1.000  N
  O62      1.0000 0.49470  0.29930  0.32940  Biso   1.000  O
  O63      1.0000 0.64140  0.26280  0.51390  Biso   1.000  O
  O64      1.0000 0.66290  0.67320  0.31550  Biso   1.000  O
  N39      1.0000 0.55910  0.20930  0.30760  Biso   1.000  N
  N40      1.0000 0.53880  0.64400  0.25080  Biso   1.000  N
  O65      1.0000 0.63910  0.48470  0.32310  Biso   1.000  O
  O66      1.0000 0.67670  0.84760  0.63290  Biso   1.000  O
  N41      1.0000 0.59870  0.59030  0.23460  Biso   1.000  N
  C122     1.0000 0.69610  0.01490  0.41080  Biso   1.000  C
  C123     1.0000 0.52120  0.30860  0.38400  Biso   1.000  C
  C124     1.0000 0.59130  0.25110  0.41630  Biso   1.000  C
  C125     1.0000 0.60710  0.28430  0.49200  Biso   1.000  C
  N42      1.0000 0.61500  0.19620  0.37730  Biso   1.000  N
  C126     1.0000 0.58070  0.55280  0.30140  Biso   1.000  C
  N43      1.0000 0.71740  0.56590  0.27270  Biso   1.000  N
  O67      1.0000 0.68880  0.07660  0.36690  Biso   1.000  O
  C127     1.0000 0.54340  0.58720  0.31080  Biso   1.000  C
  O68      1.0000 0.70880  0.84390  0.51500  Biso   1.000  O
  C128     1.0000 0.72940  0.63560  0.30630  Biso   1.000  C
  C129     1.0000 0.55750  0.26060  0.37200  Biso   1.000  C
  C130     1.0000 0.66240  0.08270  0.60520  Biso   1.000  C
  C131     1.0000 0.68120  0.96720  0.56180  Biso   1.000  C
  C132     1.0000 0.68990  0.87960  0.57170  Biso   1.000  C
  O69      1.0000 0.70810  0.75370  0.37260  Biso   1.000  O
  C133     1.0000 0.53830  0.40730  0.02680  Biso   1.000  C
  C134     1.0000 0.60440  0.49350  0.34600  Biso   1.000  C
  C135     1.0000 0.57170  0.64480  0.20790  Biso   1.000  C
  C136     1.0000 0.68500  0.01900  0.49840  Biso   1.000  C
  C137     1.0000 0.55180  0.46780  0.96760  Biso   1.000  C
  C138     1.0000 0.51040  0.35160  0.01470  Biso   1.000  C
  H85      1.0000 0.49800  0.35090  0.96540  Biso   1.000  H
  O70      1.0000 0.58740  0.33190  0.53510  Biso   1.000  O
  C139     1.0000 0.69780  0.69200  0.32950  Biso   1.000  C
  C140     1.0000 0.58380  0.51730  0.98000  Biso   1.000  C
  H86      1.0000 0.59680  0.51700  0.02860  Biso   1.000  H
  N44      1.0000 0.51800  0.29660  0.14970  Biso   1.000  N
  C141     1.0000 0.59370  0.17250  0.30890  Biso   1.000  C
  N45      1.0000 0.57610  0.57470  0.84330  Biso   1.000  N
  C142     1.0000 0.53140  0.47400  0.89000  Biso   1.000  C
  H87      1.0000 0.51010  0.44350  0.87960  Biso   1.000  H
  C143     1.0000 0.54280  0.35380  0.16590  Biso   1.000  C
  H88      1.0000 0.55300  0.35740  0.21720  Biso   1.000  H
  C144     1.0000 0.60910  0.11640  0.25160  Biso   1.000  C
  H89      1.0000 0.61810  0.14310  0.20470  Biso   1.000  H
  H90      1.0000 0.63000  0.08890  0.27580  Biso   1.000  H
  H91      1.0000 0.58950  0.08040  0.23660  Biso   1.000  H
  C145     1.0000 0.65150  0.14730  0.66110  Biso   1.000  C
  H92      1.0000 0.67430  0.17110  0.68180  Biso   1.000  H
  H93      1.0000 0.63670  0.18510  0.63250  Biso   1.000  H
  H94      1.0000 0.63670  0.12690  0.70470  Biso   1.000  H
  C146     1.0000 0.58090  0.69650  0.13770  Biso   1.000  C
  H95      1.0000 0.57910  0.74970  0.15400  Biso   1.000  H
  H96      1.0000 0.60640  0.68600  0.11940  Biso   1.000  H
  H97      1.0000 0.56310  0.68670  0.09510  Biso   1.000  H
  C147     1.0000 0.54500  0.52740  0.83180  Biso   1.000  C
  H98      1.0000 0.53220  0.53040  0.78310  Biso   1.000  H
  C148     1.0000 0.59580  0.56800  0.91600  Biso   1.000  C
  H99      1.0000 0.61780  0.59760  0.92340  Biso   1.000  H
  C149     1.0000 0.55380  0.40920  0.10750  Biso   1.000  C
  H100     1.0000 0.57140  0.44740  0.12120  Biso   1.000  H
  C150     1.0000 0.50030  0.29950  0.06810  Biso   1.000  C
  H101     1.0000 0.48160  0.26340  0.05480  Biso   1.000  H
  H102     1.0000 0.73720  0.40880  0.25480  Biso   1.000  H
  H103     1.0000 0.77590  0.42660  0.21090  Biso   1.000  H
  H104     1.0000 0.73690  0.44390  0.16810  Biso   1.000  H
  H105     1.0000 0.58310  0.60730  0.80720  Biso   1.000  H
  O71      1.0000 0.52000  0.11400  0.14040  Biso   1.000  O
  C151     1.0000 0.48830  0.07590  0.12790  Biso   1.000  C
  N46      1.0000 0.33330  0.50480  0.87060  Biso   1.000  N
  Er6      1.0000 0.44615  0.94519  0.98225  Biso   1.000  Er
  Zn16     1.0000 0.34026  0.06836  0.26865  Biso   1.000  Zn
  Zn17     1.0000 0.49068  0.71188  0.26159  Biso   1.000  Zn
  Zn18     1.0000 0.33401  0.67248  0.06453  Biso   1.000  Zn
  O72      1.0000 0.29160  0.45240  0.11960  Biso   1.000  O
  O73      1.0000 0.41150  0.95420  0.09730  Biso   1.000  O
  O74      1.0000 0.48440  0.03180  0.06400  Biso   1.000  O
  O75      1.0000 0.48270  0.85820  0.05970  Biso   1.000  O
  N47      1.0000 0.32680  0.59420  0.97210  Biso   1.000  N
  O76      1.0000 0.50530  0.79930  0.17060  Biso   1.000  O
  O77      1.0000 0.35860  0.76280  0.98610  Biso   1.000  O
  O78      1.0000 0.33710  0.17320  0.18450  Biso   1.000  O
  N48      1.0000 0.44090  0.70930  0.19240  Biso   1.000  N
  N49      1.0000 0.46120  0.14400  0.24920  Biso   1.000  N
  O79      1.0000 0.36090  0.98470  0.17690  Biso   1.000  O
  O80      1.0000 0.32330  0.34760  0.86710  Biso   1.000  O
  N50      1.0000 0.40130  0.09030  0.26540  Biso   1.000  N
  C152     1.0000 0.30390  0.51490  0.08920  Biso   1.000  C
  C153     1.0000 0.47880  0.80860  0.11600  Biso   1.000  C
  C154     1.0000 0.40870  0.75110  0.08370  Biso   1.000  C
  C155     1.0000 0.39290  0.78430  0.00800  Biso   1.000  C
  N51      1.0000 0.38500  0.69620  0.12270  Biso   1.000  N
  C156     1.0000 0.41930  0.05280  0.19860  Biso   1.000  C
  N52      1.0000 0.28260  0.06590  0.22730  Biso   1.000  N
  O81      1.0000 0.31120  0.57660  0.13310  Biso   1.000  O
  C157     1.0000 0.45660  0.08720  0.18920  Biso   1.000  C
  O82      1.0000 0.29120  0.34390  0.98500  Biso   1.000  O
  C158     1.0000 0.27060  0.13560  0.19370  Biso   1.000  C
  C159     1.0000 0.44250  0.76060  0.12800  Biso   1.000  C
  C160     1.0000 0.33760  0.58270  0.89480  Biso   1.000  C
  C161     1.0000 0.31880  0.46720  0.93820  Biso   1.000  C
  C162     1.0000 0.31010  0.37960  0.92830  Biso   1.000  C
  O83      1.0000 0.29190  0.25370  0.12740  Biso   1.000  O
  C163     1.0000 0.46170  0.90730  0.47320  Biso   1.000  C
  C164     1.0000 0.39560  0.99350  0.15400  Biso   1.000  C
  C165     1.0000 0.42830  0.14480  0.29210  Biso   1.000  C
  C166     1.0000 0.31500  0.51900  0.00160  Biso   1.000  C
  C167     1.0000 0.44820  0.96780  0.53240  Biso   1.000  C
  C168     1.0000 0.48960  0.85160  0.48530  Biso   1.000  C
  H106     1.0000 0.50200  0.85090  0.53460  Biso   1.000  H
  O84      1.0000 0.41260  0.83190  0.96490  Biso   1.000  O
  C169     1.0000 0.30220  0.19200  0.17050  Biso   1.000  C
  C170     1.0000 0.41620  0.01730  0.52000  Biso   1.000  C
  H107     1.0000 0.40320  0.01700  0.47140  Biso   1.000  H
  N53      1.0000 0.48200  0.79660  0.35030  Biso   1.000  N
  C171     1.0000 0.40630  0.67250  0.19110  Biso   1.000  C
  N54      1.0000 0.42390  0.07470  0.65670  Biso   1.000  N
  C172     1.0000 0.46860  0.97400  0.61000  Biso   1.000  C
  H108     1.0000 0.48990  0.94350  0.62040  Biso   1.000  H
  C173     1.0000 0.45720  0.85380  0.33410  Biso   1.000  C
  H109     1.0000 0.44700  0.85740  0.28280  Biso   1.000  H
  C174     1.0000 0.39090  0.61640  0.24840  Biso   1.000  C
  H110     1.0000 0.38190  0.64310  0.29530  Biso   1.000  H
  H111     1.0000 0.37000  0.58890  0.22420  Biso   1.000  H
  H112     1.0000 0.41050  0.58040  0.26340  Biso   1.000  H
  C175     1.0000 0.34850  0.64730  0.83890  Biso   1.000  C
  H113     1.0000 0.32570  0.67110  0.81820  Biso   1.000  H
  H114     1.0000 0.36330  0.68510  0.86750  Biso   1.000  H
  H115     1.0000 0.36330  0.62690  0.79530  Biso   1.000  H
  C176     1.0000 0.41910  0.19650  0.36230  Biso   1.000  C
  H116     1.0000 0.42090  0.24970  0.34600  Biso   1.000  H
  H117     1.0000 0.39360  0.18600  0.38060  Biso   1.000  H
  H118     1.0000 0.43690  0.18670  0.40490  Biso   1.000  H
  C177     1.0000 0.45500  0.02740  0.66820  Biso   1.000  C
  H119     1.0000 0.46780  0.03040  0.71690  Biso   1.000  H
  C178     1.0000 0.40420  0.06800  0.58400  Biso   1.000  C
  H120     1.0000 0.38220  0.09760  0.57660  Biso   1.000  H
  C179     1.0000 0.44620  0.90920  0.39250  Biso   1.000  C
  H121     1.0000 0.42860  0.94740  0.37880  Biso   1.000  H
  C180     1.0000 0.49970  0.79950  0.43190  Biso   1.000  C
  H122     1.0000 0.51840  0.76340  0.44520  Biso   1.000  H
  H123     1.0000 0.26280  0.90880  0.24520  Biso   1.000  H
  H124     1.0000 0.22410  0.92660  0.28910  Biso   1.000  H
  H125     1.0000 0.26310  0.94390  0.33190  Biso   1.000  H
  H126     1.0000 0.41690  0.10730  0.69280  Biso   1.000  H
  O85      1.0000 0.98000  0.38600  0.64040  Biso   1.000  O
  C181     1.0000 0.01170  0.42410  0.62790  Biso   1.000  C
  N55      1.0000 0.16670  0.99520  0.37060  Biso   1.000  N
  Er7      1.0000 0.05385  0.55481  0.48225  Biso   1.000  Er
  Zn19     1.0000 0.15974  0.43164  0.76865  Biso   1.000  Zn
  Zn20     1.0000 0.00932  0.78812  0.76159  Biso   1.000  Zn
  Zn21     1.0000 0.16599  0.82752  0.56453  Biso   1.000  Zn
  O86      1.0000 0.20840  0.04760  0.61960  Biso   1.000  O
  O87      1.0000 0.08850  0.54580  0.59730  Biso   1.000  O
  O88      1.0000 0.01560  0.46820  0.56400  Biso   1.000  O
  O89      1.0000 0.01730  0.64180  0.55970  Biso   1.000  O
  N56      1.0000 0.17320  0.90580  0.47210  Biso   1.000  N
  O90      1.0000 0.99470  0.70070  0.67060  Biso   1.000  O
  O91      1.0000 0.14140  0.73720  0.48610  Biso   1.000  O
  O92      1.0000 0.16290  0.32680  0.68450  Biso   1.000  O
  N57      1.0000 0.05910  0.79070  0.69240  Biso   1.000  N
  N58      1.0000 0.03880  0.35600  0.74920  Biso   1.000  N
  O93      1.0000 0.13910  0.51530  0.67690  Biso   1.000  O
  O94      1.0000 0.17670  0.15240  0.36710  Biso   1.000  O
  N59      1.0000 0.09870  0.40970  0.76540  Biso   1.000  N
  C182     1.0000 0.19610  0.98510  0.58920  Biso   1.000  C
  C183     1.0000 0.02120  0.69140  0.61600  Biso   1.000  C
  C184     1.0000 0.09130  0.74890  0.58370  Biso   1.000  C
  C185     1.0000 0.10710  0.71570  0.50800  Biso   1.000  C
  N60      1.0000 0.11500  0.80380  0.62270  Biso   1.000  N
  C186     1.0000 0.08070  0.44720  0.69860  Biso   1.000  C
  N61      1.0000 0.21740  0.43410  0.72730  Biso   1.000  N
  O95      1.0000 0.18880  0.92340  0.63310  Biso   1.000  O
  C187     1.0000 0.04340  0.41280  0.68920  Biso   1.000  C
  O96      1.0000 0.20880  0.15610  0.48500  Biso   1.000  O
  C188     1.0000 0.22940  0.36440  0.69370  Biso   1.000  C
  C189     1.0000 0.05750  0.73940  0.62800  Biso   1.000  C
  C190     1.0000 0.16240  0.91730  0.39480  Biso   1.000  C
  C191     1.0000 0.18120  0.03280  0.43820  Biso   1.000  C
  C192     1.0000 0.18990  0.12040  0.42830  Biso   1.000  C
  O97      1.0000 0.20810  0.24630  0.62740  Biso   1.000  O
  C193     1.0000 0.03830  0.59270  0.97320  Biso   1.000  C
  C194     1.0000 0.10440  0.50650  0.65400  Biso   1.000  C
  C195     1.0000 0.07170  0.35520  0.79210  Biso   1.000  C
  C196     1.0000 0.18500  0.98100  0.50160  Biso   1.000  C
  C197     1.0000 0.05180  0.53220  0.03240  Biso   1.000  C
  C198     1.0000 0.01040  0.64840  0.98530  Biso   1.000  C
  H127     1.0000 0.99800  0.64910  0.03460  Biso   1.000  H
  O98      1.0000 0.08740  0.66810  0.46490  Biso   1.000  O
  C199     1.0000 0.19780  0.30800  0.67050  Biso   1.000  C
  C200     1.0000 0.08380  0.48270  0.02000  Biso   1.000  C
  H128     1.0000 0.09680  0.48300  0.97140  Biso   1.000  H
  N62      1.0000 0.01800  0.70340  0.85030  Biso   1.000  N
  C201     1.0000 0.09370  0.82750  0.69110  Biso   1.000  C
  N63      1.0000 0.07610  0.42530  0.15670  Biso   1.000  N
  C202     1.0000 0.03140  0.52600  0.11000  Biso   1.000  C
  H129     1.0000 0.01010  0.55650  0.12040  Biso   1.000  H
  C203     1.0000 0.04280  0.64620  0.83410  Biso   1.000  C
  H130     1.0000 0.05300  0.64260  0.78280  Biso   1.000  H
  C204     1.0000 0.10910  0.88360  0.74840  Biso   1.000  C
  H131     1.0000 0.11810  0.85690  0.79530  Biso   1.000  H
  H132     1.0000 0.13000  0.91110  0.72420  Biso   1.000  H
  H133     1.0000 0.08950  0.91960  0.76340  Biso   1.000  H
  C205     1.0000 0.15150  0.85270  0.33890  Biso   1.000  C
  H134     1.0000 0.17430  0.82890  0.31820  Biso   1.000  H
  H135     1.0000 0.13670  0.81490  0.36750  Biso   1.000  H
  H136     1.0000 0.13670  0.87310  0.29530  Biso   1.000  H
  C206     1.0000 0.08090  0.30350  0.86230  Biso   1.000  C
  H137     1.0000 0.07910  0.25030  0.84600  Biso   1.000  H
  H138     1.0000 0.10640  0.31400  0.88060  Biso   1.000  H
  H139     1.0000 0.06310  0.31330  0.90490  Biso   1.000  H
  C207     1.0000 0.04500  0.47260  0.16820  Biso   1.000  C
  H140     1.0000 0.03220  0.46960  0.21690  Biso   1.000  H
  C208     1.0000 0.09580  0.43200  0.08400  Biso   1.000  C
  H141     1.0000 0.11780  0.40240  0.07660  Biso   1.000  H
  C209     1.0000 0.05380  0.59080  0.89250  Biso   1.000  C
  H142     1.0000 0.07140  0.55260  0.87880  Biso   1.000  H
  C210     1.0000 0.00030  0.70050  0.93190  Biso   1.000  C
  H143     1.0000 0.98160  0.73660  0.94520  Biso   1.000  H
  H144     1.0000 0.23720  0.59120  0.74520  Biso   1.000  H
  H145     1.0000 0.27590  0.57340  0.78910  Biso   1.000  H
  H146     1.0000 0.23690  0.55610  0.83190  Biso   1.000  H
  H147     1.0000 0.08310  0.39270  0.19280  Biso   1.000  H
  O99      1.0000 0.02000  0.88600  0.85960  Biso   1.000  O
  C211     1.0000 0.98830  0.92410  0.87210  Biso   1.000  C
  N64      1.0000 0.83330  0.49520  0.12940  Biso   1.000  N
  Er8      1.0000 0.94615  0.05481  0.01775  Biso   1.000  Er
  Zn22     1.0000 0.84026  0.93164  0.73135  Biso   1.000  Zn
  Zn23     1.0000 0.99068  0.28812  0.73841  Biso   1.000  Zn
  Zn24     1.0000 0.83401  0.32752  0.93547  Biso   1.000  Zn
  O100     1.0000 0.79160  0.54760  0.88040  Biso   1.000  O
  O101     1.0000 0.91150  0.04580  0.90270  Biso   1.000  O
  O102     1.0000 0.98440  0.96820  0.93600  Biso   1.000  O
  O103     1.0000 0.98270  0.14180  0.94030  Biso   1.000  O
  N65      1.0000 0.82680  0.40580  0.02790  Biso   1.000  N
  O104     1.0000 0.00530  0.20070  0.82940  Biso   1.000  O
  O105     1.0000 0.85860  0.23720  0.01390  Biso   1.000  O
  O106     1.0000 0.83710  0.82680  0.81550  Biso   1.000  O
  N66      1.0000 0.94090  0.29070  0.80760  Biso   1.000  N
  N67      1.0000 0.96120  0.85600  0.75080  Biso   1.000  N
  O107     1.0000 0.86090  0.01530  0.82310  Biso   1.000  O
  O108     1.0000 0.82330  0.65240  0.13290  Biso   1.000  O
  N68      1.0000 0.90130  0.90970  0.73460  Biso   1.000  N
  C212     1.0000 0.80390  0.48510  0.91080  Biso   1.000  C
  C213     1.0000 0.97880  0.19140  0.88400  Biso   1.000  C
  C214     1.0000 0.90870  0.24890  0.91630  Biso   1.000  C
  C215     1.0000 0.89290  0.21570  0.99200  Biso   1.000  C
  N69      1.0000 0.88500  0.30380  0.87730  Biso   1.000  N
  C216     1.0000 0.91930  0.94720  0.80140  Biso   1.000  C
  N70      1.0000 0.78260  0.93410  0.77270  Biso   1.000  N
  O109     1.0000 0.81120  0.42340  0.86690  Biso   1.000  O
  C217     1.0000 0.95660  0.91280  0.81080  Biso   1.000  C
  O110     1.0000 0.79120  0.65610  0.01500  Biso   1.000  O
  C218     1.0000 0.77060  0.86440  0.80630  Biso   1.000  C
  C219     1.0000 0.94250  0.23940  0.87200  Biso   1.000  C
  C220     1.0000 0.83760  0.41730  0.10520  Biso   1.000  C
  C221     1.0000 0.81880  0.53280  0.06180  Biso   1.000  C
  C222     1.0000 0.81010  0.62040  0.07170  Biso   1.000  C
  O111     1.0000 0.79190  0.74630  0.87260  Biso   1.000  O
  C223     1.0000 0.96170  0.09270  0.52680  Biso   1.000  C
  C224     1.0000 0.89560  0.00650  0.84600  Biso   1.000  C
  C225     1.0000 0.92830  0.85520  0.70790  Biso   1.000  C
  C226     1.0000 0.81500  0.48100  0.99840  Biso   1.000  C
  C227     1.0000 0.94820  0.03220  0.46760  Biso   1.000  C
  C228     1.0000 0.98960  0.14840  0.51470  Biso   1.000  C
  H148     1.0000 0.00200  0.14910  0.46540  Biso   1.000  H
  O112     1.0000 0.91260  0.16810  0.03510  Biso   1.000  O
  C229     1.0000 0.80220  0.80800  0.82950  Biso   1.000  C
  C230     1.0000 0.91620  0.98270  0.48000  Biso   1.000  C
  H149     1.0000 0.90320  0.98300  0.52860  Biso   1.000  H
  N71      1.0000 0.98200  0.20340  0.64970  Biso   1.000  N
  C231     1.0000 0.90630  0.32750  0.80890  Biso   1.000  C
  N72      1.0000 0.92390  0.92530  0.34330  Biso   1.000  N
  C232     1.0000 0.96860  0.02600  0.39000  Biso   1.000  C
  H150     1.0000 0.98990  0.05650  0.37960  Biso   1.000  H
  C233     1.0000 0.95720  0.14620  0.66590  Biso   1.000  C
  H151     1.0000 0.94700  0.14260  0.71720  Biso   1.000  H
  C234     1.0000 0.89090  0.38360  0.75160  Biso   1.000  C
  H152     1.0000 0.88190  0.35690  0.70470  Biso   1.000  H
  H153     1.0000 0.87000  0.41110  0.77580  Biso   1.000  H
  H154     1.0000 0.91050  0.41960  0.73660  Biso   1.000  H
  C235     1.0000 0.84850  0.35270  0.16110  Biso   1.000  C
  H155     1.0000 0.82570  0.32890  0.18180  Biso   1.000  H
  H156     1.0000 0.86330  0.31490  0.13250  Biso   1.000  H
  H157     1.0000 0.86330  0.37310  0.20470  Biso   1.000  H
  C236     1.0000 0.91910  0.80350  0.63770  Biso   1.000  C
  H158     1.0000 0.92090  0.75030  0.65400  Biso   1.000  H
  H159     1.0000 0.89360  0.81400  0.61940  Biso   1.000  H
  H160     1.0000 0.93690  0.81330  0.59510  Biso   1.000  H
  C237     1.0000 0.95500  0.97260  0.33180  Biso   1.000  C
  H161     1.0000 0.96780  0.96960  0.28310  Biso   1.000  H
  C238     1.0000 0.90420  0.93200  0.41600  Biso   1.000  C
  H162     1.0000 0.88220  0.90240  0.42340  Biso   1.000  H
  C239     1.0000 0.94620  0.09080  0.60750  Biso   1.000  C
  H163     1.0000 0.92860  0.05260  0.62120  Biso   1.000  H
  C240     1.0000 0.99970  0.20050  0.56810  Biso   1.000  C
  H164     1.0000 0.01840  0.23660  0.55480  Biso   1.000  H
  H165     1.0000 0.76280  0.09120  0.75480  Biso   1.000  H
  H166     1.0000 0.72410  0.07340  0.71090  Biso   1.000  H
  H167     1.0000 0.76310  0.05610  0.66810  Biso   1.000  H
  H168     1.0000 0.91690  0.89270  0.30720  Biso   1.000  H
  Er9      1.0000 0.25000  0.15071  0.59507  Biso   1.000  Er
  C241     1.0000 0.25000  0.55650  0.78130  Biso   1.000  C
  C242     1.0000 0.25000  0.47400  0.74550  Biso   1.000  C
  O113     1.0000 0.25000  0.13840  0.74360  Biso   1.000  O
  H169     1.0000 0.25000  0.18400  0.76400  Biso   1.000  H
  Er10     1.0000 0.75000  0.65071  0.90493  Biso   1.000  Er
  C243     1.0000 0.75000  0.05650  0.71870  Biso   1.000  C
  C244     1.0000 0.75000  0.97400  0.75450  Biso   1.000  C
  O114     1.0000 0.75000  0.63840  0.75640  Biso   1.000  O
  H170     1.0000 0.75000  0.68400  0.73600  Biso   1.000  H
  Er11     1.0000 0.75000  0.84929  0.40493  Biso   1.000  Er
  C245     1.0000 0.75000  0.44350  0.21870  Biso   1.000  C
  C246     1.0000 0.75000  0.52600  0.25450  Biso   1.000  C
  O115     1.0000 0.75000  0.86160  0.25640  Biso   1.000  O
  H171     1.0000 0.75000  0.81600  0.23600  Biso   1.000  H
  Er12     1.0000 0.25000  0.34929  0.09507  Biso   1.000  Er
  C247     1.0000 0.25000  0.94350  0.28130  Biso   1.000  C
  C248     1.0000 0.25000  0.02600  0.24550  Biso   1.000  C
  O116     1.0000 0.25000  0.36160  0.24360  Biso   1.000  O
  H172     1.0000 0.25000  0.31600  0.26400  Biso   1.000  H
