data_image0
_cell_length_a       16.2825
_cell_length_b       33.8405
_cell_length_c       16.9649
_cell_angle_alpha    90
_cell_angle_beta     90
_cell_angle_gamma    90

_symmetry_space_group_name_H-M    "P 1"
_symmetry_int_tables_number       1

loop_
  _symmetry_equiv_pos_as_xyz
  'x, y, z'

loop_
  _atom_site_label
  _atom_site_occupancy
  _atom_site_fract_x
  _atom_site_fract_y
  _atom_site_fract_z
  _atom_site_thermal_displace_type
  _atom_site_B_iso_or_equiv
  _atom_site_type_symbol
  Eu1      1.0000 0.48219  0.55374  0.44509  Biso   1.000  Eu
  Zn1      1.0000 0.73878  0.49086  0.71149  Biso   1.000  Zn
  Zn2      1.0000 0.56346  0.66557  0.17236  Biso   1.000  Zn
  Zn3      1.0000 0.26818  0.65983  0.93124  Biso   1.000  Zn
  O1       1.0000 0.56590  0.51502  0.53240  Biso   1.000  O
  O2       1.0000 0.63980  0.47992  0.61370  Biso   1.000  O
  O3       1.0000 0.59830  0.58773  0.45320  Biso   1.000  O
  O4       1.0000 0.67800  0.63899  0.48380  Biso   1.000  O
  O5       1.0000 0.46310  0.58714  0.33140  Biso   1.000  O
  O6       1.0000 0.48480  0.64140  0.26200  Biso   1.000  O
  O7       1.0000 0.55950  0.51717  0.35770  Biso   1.000  O
  O8       1.0000 0.67140  0.49498  0.29890  Biso   1.000  O
  O9       1.0000 0.61940  0.70860  0.95300  Biso   1.000  O
  O10      1.0000 0.63200  0.68820  0.07750  Biso   1.000  O
  O11      1.0000 0.48480  0.70890  0.84480  Biso   1.000  O
  O12      1.0000 0.36620  0.67648  0.84820  Biso   1.000  O
  O13      1.0000 0.63090  0.70730  0.75640  Biso   1.000  O
  O14      1.0000 0.68600  0.66354  0.67380  Biso   1.000  O
  N1       1.0000 0.74760  0.53930  0.64420  Biso   1.000  N
  N2       1.0000 0.76300  0.59885  0.59020  Biso   1.000  N
  N3       1.0000 0.62230  0.61401  0.19540  Biso   1.000  N
  N4       1.0000 0.69330  0.55866  0.20900  Biso   1.000  N
  N5       1.0000 0.47210  0.67260  0.09400  Biso   1.000  N
  N6       1.0000 0.36970  0.66730  0.00590  Biso   1.000  N
  N7       1.0000 0.72650  0.71667  0.56640  Biso   1.000  N
  N8       1.0000 0.64910  0.48190  0.79520  Biso   1.000  N
  N9       1.0000 0.34620  0.42410  0.07600  Biso   1.000  N
  C1       1.0000 0.62760  0.51210  0.57670  Biso   1.000  C
  C2       1.0000 0.68730  0.54380  0.58670  Biso   1.000  C
  C3       1.0000 0.69890  0.58100  0.55390  Biso   1.000  C
  C4       1.0000 0.65420  0.60420  0.49360  Biso   1.000  C
  C5       1.0000 0.79050  0.57300  0.64350  Biso   1.000  C
  C6       1.0000 0.86310  0.58120  0.69540  Biso   1.000  C
  H1       1.0000 0.91280  0.57790  0.66560  Biso   1.000  H
  H2       1.0000 0.86300  0.56310  0.73910  Biso   1.000  H
  H3       1.0000 0.86010  0.60780  0.71480  Biso   1.000  H
  C7       1.0000 0.50500  0.60690  0.28370  Biso   1.000  C
  C8       1.0000 0.58290  0.59100  0.25020  Biso   1.000  C
  C9       1.0000 0.62630  0.55720  0.26020  Biso   1.000  C
  C10      1.0000 0.61670  0.52100  0.30910  Biso   1.000  C
  C11      1.0000 0.68900  0.59300  0.17260  Biso   1.000  C
  C12      1.0000 0.75130  0.60900  0.11640  Biso   1.000  C
  H4       1.0000 0.78090  0.63020  0.14110  Biso   1.000  H
  H5       1.0000 0.72420  0.61870  0.07010  Biso   1.000  H
  H6       1.0000 0.78900  0.58840  0.10200  Biso   1.000  H
  C13      1.0000 0.58920  0.69540  0.01560  Biso   1.000  C
  C14      1.0000 0.50100  0.68520  0.02040  Biso   1.000  C
  C15      1.0000 0.43800  0.68190  0.96720  Biso   1.000  C
  C16      1.0000 0.43030  0.68970  0.88180  Biso   1.000  C
  C17      1.0000 0.39200  0.66320  0.08140  Biso   1.000  C
  C18      1.0000 0.33400  0.65110  0.14590  Biso   1.000  C
  H7       1.0000 0.31550  0.67420  0.17360  Biso   1.000  H
  H8       1.0000 0.36170  0.63380  0.18190  Biso   1.000  H
  H9       1.0000 0.28760  0.63770  0.12340  Biso   1.000  H
  C19      1.0000 0.66820  0.69850  0.69270  Biso   1.000  C
  C20      1.0000 0.69220  0.72930  0.63590  Biso   1.000  C
  C21      1.0000 0.57290  0.49900  0.79650  Biso   1.000  C
  H10      1.0000 0.56110  0.51830  0.75920  Biso   1.000  H
  C22      1.0000 0.51330  0.48910  0.85000  Biso   1.000  C
  H11      1.0000 0.46210  0.50130  0.84810  Biso   1.000  H
  C23      1.0000 0.52970  0.46090  0.90680  Biso   1.000  C
  C24      1.0000 0.60910  0.44590  0.90860  Biso   1.000  C
  H12      1.0000 0.62480  0.42890  0.94900  Biso   1.000  H
  C25      1.0000 0.66390  0.45590  0.85150  Biso   1.000  C
  H13      1.0000 0.71500  0.44360  0.85220  Biso   1.000  H
  C26      1.0000 0.33600  0.45520  0.02900  Biso   1.000  C
  H14      1.0000 0.28690  0.46900  0.03350  Biso   1.000  H
  C27      1.0000 0.39180  0.46860  0.97460  Biso   1.000  C
  H15      1.0000 0.38000  0.49080  0.94410  Biso   1.000  H
  C28      1.0000 0.46700  0.44850  0.96520  Biso   1.000  C
  C29      1.0000 0.47890  0.41650  0.01510  Biso   1.000  C
  H16      1.0000 0.52820  0.40280  0.01250  Biso   1.000  H
  C30      1.0000 0.41970  0.40430  0.06860  Biso   1.000  C
  H17      1.0000 0.42980  0.38230  0.10010  Biso   1.000  H
  H18      1.0000 0.78670  0.77660  0.42510  Biso   1.000  H
  H19      1.0000 0.83760  0.73880  0.44690  Biso   1.000  H
  H20      1.0000 0.75010  0.73450  0.40950  Biso   1.000  H
  Eu2      1.0000 0.01781  0.44626  0.94509  Biso   1.000  Eu
  Zn4      1.0000 0.76122  0.50914  0.21149  Biso   1.000  Zn
  Zn5      1.0000 0.93654  0.33443  0.67236  Biso   1.000  Zn
  Zn6      1.0000 0.23182  0.34017  0.43124  Biso   1.000  Zn
  O15      1.0000 0.93410  0.48498  0.03240  Biso   1.000  O
  O16      1.0000 0.86020  0.52008  0.11370  Biso   1.000  O
  O17      1.0000 0.90170  0.41227  0.95320  Biso   1.000  O
  O18      1.0000 0.82200  0.36101  0.98380  Biso   1.000  O
  O19      1.0000 0.03690  0.41286  0.83140  Biso   1.000  O
  O20      1.0000 0.01520  0.35860  0.76200  Biso   1.000  O
  O21      1.0000 0.94050  0.48283  0.85770  Biso   1.000  O
  O22      1.0000 0.82860  0.50502  0.79890  Biso   1.000  O
  O23      1.0000 0.88060  0.29140  0.45300  Biso   1.000  O
  O24      1.0000 0.86800  0.31180  0.57750  Biso   1.000  O
  O25      1.0000 0.01520  0.29110  0.34480  Biso   1.000  O
  O26      1.0000 0.13380  0.32352  0.34820  Biso   1.000  O
  O27      1.0000 0.86910  0.29270  0.25640  Biso   1.000  O
  O28      1.0000 0.81400  0.33646  0.17380  Biso   1.000  O
  N10      1.0000 0.75240  0.46070  0.14420  Biso   1.000  N
  N11      1.0000 0.73700  0.40115  0.09020  Biso   1.000  N
  N12      1.0000 0.87770  0.38599  0.69540  Biso   1.000  N
  N13      1.0000 0.80670  0.44134  0.70900  Biso   1.000  N
  N14      1.0000 0.02790  0.32740  0.59400  Biso   1.000  N
  N15      1.0000 0.13030  0.33270  0.50590  Biso   1.000  N
  N16      1.0000 0.77350  0.28333  0.06640  Biso   1.000  N
  N17      1.0000 0.85090  0.51810  0.29520  Biso   1.000  N
  N18      1.0000 0.15380  0.57590  0.57600  Biso   1.000  N
  C31      1.0000 0.87240  0.48790  0.07670  Biso   1.000  C
  C32      1.0000 0.81270  0.45620  0.08670  Biso   1.000  C
  C33      1.0000 0.80110  0.41900  0.05390  Biso   1.000  C
  C34      1.0000 0.84580  0.39580  0.99360  Biso   1.000  C
  C35      1.0000 0.70950  0.42700  0.14350  Biso   1.000  C
  C36      1.0000 0.63690  0.41880  0.19540  Biso   1.000  C
  H21      1.0000 0.58720  0.42210  0.16560  Biso   1.000  H
  H22      1.0000 0.63700  0.43690  0.23910  Biso   1.000  H
  H23      1.0000 0.63990  0.39220  0.21480  Biso   1.000  H
  C37      1.0000 0.99500  0.39310  0.78370  Biso   1.000  C
  C38      1.0000 0.91710  0.40900  0.75020  Biso   1.000  C
  C39      1.0000 0.87370  0.44280  0.76020  Biso   1.000  C
  C40      1.0000 0.88330  0.47900  0.80910  Biso   1.000  C
  C41      1.0000 0.81100  0.40700  0.67260  Biso   1.000  C
  C42      1.0000 0.74870  0.39100  0.61640  Biso   1.000  C
  H24      1.0000 0.71910  0.36980  0.64110  Biso   1.000  H
  H25      1.0000 0.77580  0.38130  0.57010  Biso   1.000  H
  H26      1.0000 0.71100  0.41160  0.60200  Biso   1.000  H
  C43      1.0000 0.91080  0.30460  0.51560  Biso   1.000  C
  C44      1.0000 0.99900  0.31480  0.52040  Biso   1.000  C
  C45      1.0000 0.06200  0.31810  0.46720  Biso   1.000  C
  C46      1.0000 0.06970  0.31030  0.38180  Biso   1.000  C
  C47      1.0000 0.10800  0.33680  0.58140  Biso   1.000  C
  C48      1.0000 0.16600  0.34890  0.64590  Biso   1.000  C
  H27      1.0000 0.18450  0.32580  0.67360  Biso   1.000  H
  H28      1.0000 0.13830  0.36620  0.68190  Biso   1.000  H
  H29      1.0000 0.21240  0.36230  0.62340  Biso   1.000  H
  C49      1.0000 0.83180  0.30150  0.19270  Biso   1.000  C
  C50      1.0000 0.80780  0.27070  0.13590  Biso   1.000  C
  C51      1.0000 0.92710  0.50100  0.29650  Biso   1.000  C
  H30      1.0000 0.93890  0.48170  0.25920  Biso   1.000  H
  C52      1.0000 0.98670  0.51090  0.35000  Biso   1.000  C
  H31      1.0000 0.03790  0.49870  0.34810  Biso   1.000  H
  C53      1.0000 0.97030  0.53910  0.40680  Biso   1.000  C
  C54      1.0000 0.89090  0.55410  0.40860  Biso   1.000  C
  H32      1.0000 0.87520  0.57110  0.44900  Biso   1.000  H
  C55      1.0000 0.83610  0.54410  0.35150  Biso   1.000  C
  H33      1.0000 0.78500  0.55640  0.35220  Biso   1.000  H
  C56      1.0000 0.16400  0.54480  0.52900  Biso   1.000  C
  H34      1.0000 0.21310  0.53100  0.53350  Biso   1.000  H
  C57      1.0000 0.10820  0.53140  0.47460  Biso   1.000  C
  H35      1.0000 0.12000  0.50920  0.44410  Biso   1.000  H
  C58      1.0000 0.03300  0.55150  0.46520  Biso   1.000  C
  C59      1.0000 0.02110  0.58350  0.51510  Biso   1.000  C
  H36      1.0000 0.97180  0.59720  0.51250  Biso   1.000  H
  C60      1.0000 0.08030  0.59570  0.56860  Biso   1.000  C
  H37      1.0000 0.07020  0.61770  0.60010  Biso   1.000  H
  H38      1.0000 0.71330  0.22340  0.92510  Biso   1.000  H
  H39      1.0000 0.66240  0.26120  0.94690  Biso   1.000  H
  H40      1.0000 0.74990  0.26550  0.90950  Biso   1.000  H
  Eu3      1.0000 0.51781  0.05374  0.55491  Biso   1.000  Eu
  Zn7      1.0000 0.26122  0.99086  0.28851  Biso   1.000  Zn
  Zn8      1.0000 0.43654  0.16557  0.82764  Biso   1.000  Zn
  Zn9      1.0000 0.73182  0.15983  0.06876  Biso   1.000  Zn
  O29      1.0000 0.43410  0.01502  0.46760  Biso   1.000  O
  O30      1.0000 0.36020  0.97992  0.38630  Biso   1.000  O
  O31      1.0000 0.40170  0.08773  0.54680  Biso   1.000  O
  O32      1.0000 0.32200  0.13899  0.51620  Biso   1.000  O
  O33      1.0000 0.53690  0.08714  0.66860  Biso   1.000  O
  O34      1.0000 0.51520  0.14140  0.73800  Biso   1.000  O
  O35      1.0000 0.44050  0.01717  0.64230  Biso   1.000  O
  O36      1.0000 0.32860  0.99498  0.70110  Biso   1.000  O
  O37      1.0000 0.38060  0.20860  0.04700  Biso   1.000  O
  O38      1.0000 0.36800  0.18820  0.92250  Biso   1.000  O
  O39      1.0000 0.51520  0.20890  0.15520  Biso   1.000  O
  O40      1.0000 0.63380  0.17648  0.15180  Biso   1.000  O
  O41      1.0000 0.36910  0.20730  0.24360  Biso   1.000  O
  O42      1.0000 0.31400  0.16354  0.32620  Biso   1.000  O
  N19      1.0000 0.25240  0.03930  0.35580  Biso   1.000  N
  N20      1.0000 0.23700  0.09885  0.40980  Biso   1.000  N
  N21      1.0000 0.37770  0.11401  0.80460  Biso   1.000  N
  N22      1.0000 0.30670  0.05866  0.79100  Biso   1.000  N
  N23      1.0000 0.52790  0.17260  0.90600  Biso   1.000  N
  N24      1.0000 0.63030  0.16730  0.99410  Biso   1.000  N
  N25      1.0000 0.27350  0.21667  0.43360  Biso   1.000  N
  N26      1.0000 0.35090  0.98190  0.20480  Biso   1.000  N
  N27      1.0000 0.65380  0.92410  0.92400  Biso   1.000  N
  C61      1.0000 0.37240  0.01210  0.42330  Biso   1.000  C
  C62      1.0000 0.31270  0.04380  0.41330  Biso   1.000  C
  C63      1.0000 0.30110  0.08100  0.44610  Biso   1.000  C
  C64      1.0000 0.34580  0.10420  0.50640  Biso   1.000  C
  C65      1.0000 0.20950  0.07300  0.35650  Biso   1.000  C
  C66      1.0000 0.13690  0.08120  0.30460  Biso   1.000  C
  H41      1.0000 0.08720  0.07790  0.33440  Biso   1.000  H
  H42      1.0000 0.13700  0.06310  0.26090  Biso   1.000  H
  H43      1.0000 0.13990  0.10780  0.28520  Biso   1.000  H
  C67      1.0000 0.49500  0.10690  0.71630  Biso   1.000  C
  C68      1.0000 0.41710  0.09100  0.74980  Biso   1.000  C
  C69      1.0000 0.37370  0.05720  0.73980  Biso   1.000  C
  C70      1.0000 0.38330  0.02100  0.69090  Biso   1.000  C
  C71      1.0000 0.31100  0.09300  0.82740  Biso   1.000  C
  C72      1.0000 0.24870  0.10900  0.88360  Biso   1.000  C
  H44      1.0000 0.21910  0.13020  0.85890  Biso   1.000  H
  H45      1.0000 0.27580  0.11870  0.92990  Biso   1.000  H
  H46      1.0000 0.21100  0.08840  0.89800  Biso   1.000  H
  C73      1.0000 0.41080  0.19540  0.98440  Biso   1.000  C
  C74      1.0000 0.49900  0.18520  0.97960  Biso   1.000  C
  C75      1.0000 0.56200  0.18190  0.03280  Biso   1.000  C
  C76      1.0000 0.56970  0.18970  0.11820  Biso   1.000  C
  C77      1.0000 0.60800  0.16320  0.91860  Biso   1.000  C
  C78      1.0000 0.66600  0.15110  0.85410  Biso   1.000  C
  H47      1.0000 0.68450  0.17420  0.82640  Biso   1.000  H
  H48      1.0000 0.63830  0.13380  0.81810  Biso   1.000  H
  H49      1.0000 0.71240  0.13770  0.87660  Biso   1.000  H
  C79      1.0000 0.33180  0.19850  0.30730  Biso   1.000  C
  C80      1.0000 0.30780  0.22930  0.36410  Biso   1.000  C
  C81      1.0000 0.42710  0.99900  0.20350  Biso   1.000  C
  H50      1.0000 0.43890  0.01830  0.24080  Biso   1.000  H
  C82      1.0000 0.48670  0.98910  0.15000  Biso   1.000  C
  H51      1.0000 0.53790  0.00130  0.15190  Biso   1.000  H
  C83      1.0000 0.47030  0.96090  0.09320  Biso   1.000  C
  C84      1.0000 0.39090  0.94590  0.09140  Biso   1.000  C
  H52      1.0000 0.37520  0.92890  0.05100  Biso   1.000  H
  C85      1.0000 0.33610  0.95590  0.14850  Biso   1.000  C
  H53      1.0000 0.28500  0.94360  0.14780  Biso   1.000  H
  C86      1.0000 0.66400  0.95520  0.97100  Biso   1.000  C
  H54      1.0000 0.71310  0.96900  0.96650  Biso   1.000  H
  C87      1.0000 0.60820  0.96860  0.02540  Biso   1.000  C
  H55      1.0000 0.62000  0.99080  0.05590  Biso   1.000  H
  C88      1.0000 0.53300  0.94850  0.03480  Biso   1.000  C
  C89      1.0000 0.52110  0.91650  0.98490  Biso   1.000  C
  H56      1.0000 0.47180  0.90280  0.98750  Biso   1.000  H
  C90      1.0000 0.58030  0.90430  0.93140  Biso   1.000  C
  H57      1.0000 0.57020  0.88230  0.89990  Biso   1.000  H
  H58      1.0000 0.21330  0.27660  0.57490  Biso   1.000  H
  H59      1.0000 0.16240  0.23880  0.55310  Biso   1.000  H
  H60      1.0000 0.24990  0.23450  0.59050  Biso   1.000  H
  Eu4      1.0000 0.98219  0.94626  0.05491  Biso   1.000  Eu
  Zn10     1.0000 0.23878  0.00914  0.78851  Biso   1.000  Zn
  Zn11     1.0000 0.06346  0.83443  0.32764  Biso   1.000  Zn
  Zn12     1.0000 0.76818  0.84017  0.56876  Biso   1.000  Zn
  O43      1.0000 0.06590  0.98498  0.96760  Biso   1.000  O
  O44      1.0000 0.13980  0.02008  0.88630  Biso   1.000  O
  O45      1.0000 0.09830  0.91227  0.04680  Biso   1.000  O
  O46      1.0000 0.17800  0.86101  0.01620  Biso   1.000  O
  O47      1.0000 0.96310  0.91286  0.16860  Biso   1.000  O
  O48      1.0000 0.98480  0.85860  0.23800  Biso   1.000  O
  O49      1.0000 0.05950  0.98283  0.14230  Biso   1.000  O
  O50      1.0000 0.17140  0.00502  0.20110  Biso   1.000  O
  O51      1.0000 0.11940  0.79140  0.54700  Biso   1.000  O
  O52      1.0000 0.13200  0.81180  0.42250  Biso   1.000  O
  O53      1.0000 0.98480  0.79110  0.65520  Biso   1.000  O
  O54      1.0000 0.86620  0.82352  0.65180  Biso   1.000  O
  O55      1.0000 0.13090  0.79270  0.74360  Biso   1.000  O
  O56      1.0000 0.18600  0.83646  0.82620  Biso   1.000  O
  N28      1.0000 0.24760  0.96070  0.85580  Biso   1.000  N
  N29      1.0000 0.26300  0.90115  0.90980  Biso   1.000  N
  N30      1.0000 0.12230  0.88599  0.30460  Biso   1.000  N
  N31      1.0000 0.19330  0.94134  0.29100  Biso   1.000  N
  N32      1.0000 0.97210  0.82740  0.40600  Biso   1.000  N
  N33      1.0000 0.86970  0.83270  0.49410  Biso   1.000  N
  N34      1.0000 0.22650  0.78333  0.93360  Biso   1.000  N
  N35      1.0000 0.14910  0.01810  0.70480  Biso   1.000  N
  N36      1.0000 0.84620  0.07590  0.42400  Biso   1.000  N
  C91      1.0000 0.12760  0.98790  0.92330  Biso   1.000  C
  C92      1.0000 0.18730  0.95620  0.91330  Biso   1.000  C
  C93      1.0000 0.19890  0.91900  0.94610  Biso   1.000  C
  C94      1.0000 0.15420  0.89580  0.00640  Biso   1.000  C
  C95      1.0000 0.29050  0.92700  0.85650  Biso   1.000  C
  C96      1.0000 0.36310  0.91880  0.80460  Biso   1.000  C
  H61      1.0000 0.41280  0.92210  0.83440  Biso   1.000  H
  H62      1.0000 0.36300  0.93690  0.76090  Biso   1.000  H
  H63      1.0000 0.36010  0.89220  0.78520  Biso   1.000  H
  C97      1.0000 0.00500  0.89310  0.21630  Biso   1.000  C
  C98      1.0000 0.08290  0.90900  0.24980  Biso   1.000  C
  C99      1.0000 0.12630  0.94280  0.23980  Biso   1.000  C
  C100     1.0000 0.11670  0.97900  0.19090  Biso   1.000  C
  C101     1.0000 0.18900  0.90700  0.32740  Biso   1.000  C
  C102     1.0000 0.25130  0.89100  0.38360  Biso   1.000  C
  H64      1.0000 0.28090  0.86980  0.35890  Biso   1.000  H
  H65      1.0000 0.22420  0.88130  0.42990  Biso   1.000  H
  H66      1.0000 0.28900  0.91160  0.39800  Biso   1.000  H
  C103     1.0000 0.08920  0.80460  0.48440  Biso   1.000  C
  C104     1.0000 0.00100  0.81480  0.47960  Biso   1.000  C
  C105     1.0000 0.93800  0.81810  0.53280  Biso   1.000  C
  C106     1.0000 0.93030  0.81030  0.61820  Biso   1.000  C
  C107     1.0000 0.89200  0.83680  0.41860  Biso   1.000  C
  C108     1.0000 0.83400  0.84890  0.35410  Biso   1.000  C
  H67      1.0000 0.81550  0.82580  0.32640  Biso   1.000  H
  H68      1.0000 0.86170  0.86620  0.31810  Biso   1.000  H
  H69      1.0000 0.78760  0.86230  0.37660  Biso   1.000  H
  C109     1.0000 0.16820  0.80150  0.80730  Biso   1.000  C
  C110     1.0000 0.19220  0.77070  0.86410  Biso   1.000  C
  C111     1.0000 0.07290  0.00100  0.70350  Biso   1.000  C
  H70      1.0000 0.06110  0.98170  0.74080  Biso   1.000  H
  C112     1.0000 0.01330  0.01090  0.65000  Biso   1.000  C
  H71      1.0000 0.96210  0.99870  0.65190  Biso   1.000  H
  C113     1.0000 0.02970  0.03910  0.59320  Biso   1.000  C
  C114     1.0000 0.10910  0.05410  0.59140  Biso   1.000  C
  H72      1.0000 0.12480  0.07110  0.55100  Biso   1.000  H
  C115     1.0000 0.16390  0.04410  0.64850  Biso   1.000  C
  H73      1.0000 0.21500  0.05640  0.64780  Biso   1.000  H
  C116     1.0000 0.83600  0.04480  0.47100  Biso   1.000  C
  H74      1.0000 0.78690  0.03100  0.46650  Biso   1.000  H
  C117     1.0000 0.89180  0.03140  0.52540  Biso   1.000  C
  H75      1.0000 0.88000  0.00920  0.55590  Biso   1.000  H
  C118     1.0000 0.96700  0.05150  0.53480  Biso   1.000  C
  C119     1.0000 0.97890  0.08350  0.48490  Biso   1.000  C
  H76      1.0000 0.02820  0.09720  0.48750  Biso   1.000  H
  C120     1.0000 0.91970  0.09570  0.43140  Biso   1.000  C
  H77      1.0000 0.92980  0.11770  0.39990  Biso   1.000  H
  H78      1.0000 0.28670  0.72340  0.07490  Biso   1.000  H
  H79      1.0000 0.33760  0.76120  0.05310  Biso   1.000  H
  H80      1.0000 0.25010  0.76550  0.09050  Biso   1.000  H
  Eu5      1.0000 0.51781  0.44626  0.55491  Biso   1.000  Eu
  Zn13     1.0000 0.26122  0.50914  0.28851  Biso   1.000  Zn
  Zn14     1.0000 0.43654  0.33443  0.82764  Biso   1.000  Zn
  Zn15     1.0000 0.73182  0.34017  0.06876  Biso   1.000  Zn
  O57      1.0000 0.43410  0.48498  0.46760  Biso   1.000  O
  O58      1.0000 0.36020  0.52008  0.38630  Biso   1.000  O
  O59      1.0000 0.40170  0.41227  0.54680  Biso   1.000  O
  O60      1.0000 0.32200  0.36101  0.51620  Biso   1.000  O
  O61      1.0000 0.53690  0.41286  0.66860  Biso   1.000  O
  O62      1.0000 0.51520  0.35860  0.73800  Biso   1.000  O
  O63      1.0000 0.44050  0.48283  0.64230  Biso   1.000  O
  O64      1.0000 0.32860  0.50502  0.70110  Biso   1.000  O
  O65      1.0000 0.38060  0.29140  0.04700  Biso   1.000  O
  O66      1.0000 0.36800  0.31180  0.92250  Biso   1.000  O
  O67      1.0000 0.51520  0.29110  0.15520  Biso   1.000  O
  O68      1.0000 0.63380  0.32352  0.15180  Biso   1.000  O
  O69      1.0000 0.36910  0.29270  0.24360  Biso   1.000  O
  O70      1.0000 0.31400  0.33646  0.32620  Biso   1.000  O
  N37      1.0000 0.25240  0.46070  0.35580  Biso   1.000  N
  N38      1.0000 0.23700  0.40115  0.40980  Biso   1.000  N
  N39      1.0000 0.37770  0.38599  0.80460  Biso   1.000  N
  N40      1.0000 0.30670  0.44134  0.79100  Biso   1.000  N
  N41      1.0000 0.52790  0.32740  0.90600  Biso   1.000  N
  N42      1.0000 0.63030  0.33270  0.99410  Biso   1.000  N
  N43      1.0000 0.27350  0.28333  0.43360  Biso   1.000  N
  N44      1.0000 0.35090  0.51810  0.20480  Biso   1.000  N
  N45      1.0000 0.65380  0.57590  0.92400  Biso   1.000  N
  C121     1.0000 0.37240  0.48790  0.42330  Biso   1.000  C
  C122     1.0000 0.31270  0.45620  0.41330  Biso   1.000  C
  C123     1.0000 0.30110  0.41900  0.44610  Biso   1.000  C
  C124     1.0000 0.34580  0.39580  0.50640  Biso   1.000  C
  C125     1.0000 0.20950  0.42700  0.35650  Biso   1.000  C
  C126     1.0000 0.13690  0.41880  0.30460  Biso   1.000  C
  H81      1.0000 0.08720  0.42210  0.33440  Biso   1.000  H
  H82      1.0000 0.13700  0.43690  0.26090  Biso   1.000  H
  H83      1.0000 0.13990  0.39220  0.28520  Biso   1.000  H
  C127     1.0000 0.49500  0.39310  0.71630  Biso   1.000  C
  C128     1.0000 0.41710  0.40900  0.74980  Biso   1.000  C
  C129     1.0000 0.37370  0.44280  0.73980  Biso   1.000  C
  C130     1.0000 0.38330  0.47900  0.69090  Biso   1.000  C
  C131     1.0000 0.31100  0.40700  0.82740  Biso   1.000  C
  C132     1.0000 0.24870  0.39100  0.88360  Biso   1.000  C
  H84      1.0000 0.21910  0.36980  0.85890  Biso   1.000  H
  H85      1.0000 0.27580  0.38130  0.92990  Biso   1.000  H
  H86      1.0000 0.21100  0.41160  0.89800  Biso   1.000  H
  C133     1.0000 0.41080  0.30460  0.98440  Biso   1.000  C
  C134     1.0000 0.49900  0.31480  0.97960  Biso   1.000  C
  C135     1.0000 0.56200  0.31810  0.03280  Biso   1.000  C
  C136     1.0000 0.56970  0.31030  0.11820  Biso   1.000  C
  C137     1.0000 0.60800  0.33680  0.91860  Biso   1.000  C
  C138     1.0000 0.66600  0.34890  0.85410  Biso   1.000  C
  H87      1.0000 0.68450  0.32580  0.82640  Biso   1.000  H
  H88      1.0000 0.63830  0.36620  0.81810  Biso   1.000  H
  H89      1.0000 0.71240  0.36230  0.87660  Biso   1.000  H
  C139     1.0000 0.33180  0.30150  0.30730  Biso   1.000  C
  C140     1.0000 0.30780  0.27070  0.36410  Biso   1.000  C
  C141     1.0000 0.42710  0.50100  0.20350  Biso   1.000  C
  H90      1.0000 0.43890  0.48170  0.24080  Biso   1.000  H
  C142     1.0000 0.48670  0.51090  0.15000  Biso   1.000  C
  H91      1.0000 0.53790  0.49870  0.15190  Biso   1.000  H
  C143     1.0000 0.47030  0.53910  0.09320  Biso   1.000  C
  C144     1.0000 0.39090  0.55410  0.09140  Biso   1.000  C
  H92      1.0000 0.37520  0.57110  0.05100  Biso   1.000  H
  C145     1.0000 0.33610  0.54410  0.14850  Biso   1.000  C
  H93      1.0000 0.28500  0.55640  0.14780  Biso   1.000  H
  C146     1.0000 0.66400  0.54480  0.97100  Biso   1.000  C
  H94      1.0000 0.71310  0.53100  0.96650  Biso   1.000  H
  C147     1.0000 0.60820  0.53140  0.02540  Biso   1.000  C
  H95      1.0000 0.62000  0.50920  0.05590  Biso   1.000  H
  C148     1.0000 0.53300  0.55150  0.03480  Biso   1.000  C
  C149     1.0000 0.52110  0.58350  0.98490  Biso   1.000  C
  H96      1.0000 0.47180  0.59720  0.98750  Biso   1.000  H
  C150     1.0000 0.58030  0.59570  0.93140  Biso   1.000  C
  H97      1.0000 0.57020  0.61770  0.89990  Biso   1.000  H
  H98      1.0000 0.21330  0.22340  0.57490  Biso   1.000  H
  H99      1.0000 0.16240  0.26120  0.55310  Biso   1.000  H
  H100     1.0000 0.24990  0.26550  0.59050  Biso   1.000  H
  Eu6      1.0000 0.98219  0.55374  0.05491  Biso   1.000  Eu
  Zn16     1.0000 0.23878  0.49086  0.78851  Biso   1.000  Zn
  Zn17     1.0000 0.06346  0.66557  0.32764  Biso   1.000  Zn
  Zn18     1.0000 0.76818  0.65983  0.56876  Biso   1.000  Zn
  O71      1.0000 0.06590  0.51502  0.96760  Biso   1.000  O
  O72      1.0000 0.13980  0.47992  0.88630  Biso   1.000  O
  O73      1.0000 0.09830  0.58773  0.04680  Biso   1.000  O
  O74      1.0000 0.17800  0.63899  0.01620  Biso   1.000  O
  O75      1.0000 0.96310  0.58714  0.16860  Biso   1.000  O
  O76      1.0000 0.98480  0.64140  0.23800  Biso   1.000  O
  O77      1.0000 0.05950  0.51717  0.14230  Biso   1.000  O
  O78      1.0000 0.17140  0.49498  0.20110  Biso   1.000  O
  O79      1.0000 0.11940  0.70860  0.54700  Biso   1.000  O
  O80      1.0000 0.13200  0.68820  0.42250  Biso   1.000  O
  O81      1.0000 0.98480  0.70890  0.65520  Biso   1.000  O
  O82      1.0000 0.86620  0.67648  0.65180  Biso   1.000  O
  O83      1.0000 0.13090  0.70730  0.74360  Biso   1.000  O
  O84      1.0000 0.18600  0.66354  0.82620  Biso   1.000  O
  N46      1.0000 0.24760  0.53930  0.85580  Biso   1.000  N
  N47      1.0000 0.26300  0.59885  0.90980  Biso   1.000  N
  N48      1.0000 0.12230  0.61401  0.30460  Biso   1.000  N
  N49      1.0000 0.19330  0.55866  0.29100  Biso   1.000  N
  N50      1.0000 0.97210  0.67260  0.40600  Biso   1.000  N
  N51      1.0000 0.86970  0.66730  0.49410  Biso   1.000  N
  N52      1.0000 0.22650  0.71667  0.93360  Biso   1.000  N
  N53      1.0000 0.14910  0.48190  0.70480  Biso   1.000  N
  N54      1.0000 0.84620  0.42410  0.42400  Biso   1.000  N
  C151     1.0000 0.12760  0.51210  0.92330  Biso   1.000  C
  C152     1.0000 0.18730  0.54380  0.91330  Biso   1.000  C
  C153     1.0000 0.19890  0.58100  0.94610  Biso   1.000  C
  C154     1.0000 0.15420  0.60420  0.00640  Biso   1.000  C
  C155     1.0000 0.29050  0.57300  0.85650  Biso   1.000  C
  C156     1.0000 0.36310  0.58120  0.80460  Biso   1.000  C
  H101     1.0000 0.41280  0.57790  0.83440  Biso   1.000  H
  H102     1.0000 0.36300  0.56310  0.76090  Biso   1.000  H
  H103     1.0000 0.36010  0.60780  0.78520  Biso   1.000  H
  C157     1.0000 0.00500  0.60690  0.21630  Biso   1.000  C
  C158     1.0000 0.08290  0.59100  0.24980  Biso   1.000  C
  C159     1.0000 0.12630  0.55720  0.23980  Biso   1.000  C
  C160     1.0000 0.11670  0.52100  0.19090  Biso   1.000  C
  C161     1.0000 0.18900  0.59300  0.32740  Biso   1.000  C
  C162     1.0000 0.25130  0.60900  0.38360  Biso   1.000  C
  H104     1.0000 0.28090  0.63020  0.35890  Biso   1.000  H
  H105     1.0000 0.22420  0.61870  0.42990  Biso   1.000  H
  H106     1.0000 0.28900  0.58840  0.39800  Biso   1.000  H
  C163     1.0000 0.08920  0.69540  0.48440  Biso   1.000  C
  C164     1.0000 0.00100  0.68520  0.47960  Biso   1.000  C
  C165     1.0000 0.93800  0.68190  0.53280  Biso   1.000  C
  C166     1.0000 0.93030  0.68970  0.61820  Biso   1.000  C
  C167     1.0000 0.89200  0.66320  0.41860  Biso   1.000  C
  C168     1.0000 0.83400  0.65110  0.35410  Biso   1.000  C
  H107     1.0000 0.81550  0.67420  0.32640  Biso   1.000  H
  H108     1.0000 0.86170  0.63380  0.31810  Biso   1.000  H
  H109     1.0000 0.78760  0.63770  0.37660  Biso   1.000  H
  C169     1.0000 0.16820  0.69850  0.80730  Biso   1.000  C
  C170     1.0000 0.19220  0.72930  0.86410  Biso   1.000  C
  C171     1.0000 0.07290  0.49900  0.70350  Biso   1.000  C
  H110     1.0000 0.06110  0.51830  0.74080  Biso   1.000  H
  C172     1.0000 0.01330  0.48910  0.65000  Biso   1.000  C
  H111     1.0000 0.96210  0.50130  0.65190  Biso   1.000  H
  C173     1.0000 0.02970  0.46090  0.59320  Biso   1.000  C
  C174     1.0000 0.10910  0.44590  0.59140  Biso   1.000  C
  H112     1.0000 0.12480  0.42890  0.55100  Biso   1.000  H
  C175     1.0000 0.16390  0.45590  0.64850  Biso   1.000  C
  H113     1.0000 0.21500  0.44360  0.64780  Biso   1.000  H
  C176     1.0000 0.83600  0.45520  0.47100  Biso   1.000  C
  H114     1.0000 0.78690  0.46900  0.46650  Biso   1.000  H
  C177     1.0000 0.89180  0.46860  0.52540  Biso   1.000  C
  H115     1.0000 0.88000  0.49080  0.55590  Biso   1.000  H
  C178     1.0000 0.96700  0.44850  0.53480  Biso   1.000  C
  C179     1.0000 0.97890  0.41650  0.48490  Biso   1.000  C
  H116     1.0000 0.02820  0.40280  0.48750  Biso   1.000  H
  C180     1.0000 0.91970  0.40430  0.43140  Biso   1.000  C
  H117     1.0000 0.92980  0.38230  0.39990  Biso   1.000  H
  H118     1.0000 0.28670  0.77660  0.07490  Biso   1.000  H
  H119     1.0000 0.33760  0.73880  0.05310  Biso   1.000  H
  H120     1.0000 0.25010  0.73450  0.09050  Biso   1.000  H
  Eu7      1.0000 0.48219  0.94626  0.44509  Biso   1.000  Eu
  Zn19     1.0000 0.73878  0.00914  0.71149  Biso   1.000  Zn
  Zn20     1.0000 0.56346  0.83443  0.17236  Biso   1.000  Zn
  Zn21     1.0000 0.26818  0.84017  0.93124  Biso   1.000  Zn
  O85      1.0000 0.56590  0.98498  0.53240  Biso   1.000  O
  O86      1.0000 0.63980  0.02008  0.61370  Biso   1.000  O
  O87      1.0000 0.59830  0.91227  0.45320  Biso   1.000  O
  O88      1.0000 0.67800  0.86101  0.48380  Biso   1.000  O
  O89      1.0000 0.46310  0.91286  0.33140  Biso   1.000  O
  O90      1.0000 0.48480  0.85860  0.26200  Biso   1.000  O
  O91      1.0000 0.55950  0.98283  0.35770  Biso   1.000  O
  O92      1.0000 0.67140  0.00502  0.29890  Biso   1.000  O
  O93      1.0000 0.61940  0.79140  0.95300  Biso   1.000  O
  O94      1.0000 0.63200  0.81180  0.07750  Biso   1.000  O
  O95      1.0000 0.48480  0.79110  0.84480  Biso   1.000  O
  O96      1.0000 0.36620  0.82352  0.84820  Biso   1.000  O
  O97      1.0000 0.63090  0.79270  0.75640  Biso   1.000  O
  O98      1.0000 0.68600  0.83646  0.67380  Biso   1.000  O
  N55      1.0000 0.74760  0.96070  0.64420  Biso   1.000  N
  N56      1.0000 0.76300  0.90115  0.59020  Biso   1.000  N
  N57      1.0000 0.62230  0.88599  0.19540  Biso   1.000  N
  N58      1.0000 0.69330  0.94134  0.20900  Biso   1.000  N
  N59      1.0000 0.47210  0.82740  0.09400  Biso   1.000  N
  N60      1.0000 0.36970  0.83270  0.00590  Biso   1.000  N
  N61      1.0000 0.72650  0.78333  0.56640  Biso   1.000  N
  N62      1.0000 0.64910  0.01810  0.79520  Biso   1.000  N
  N63      1.0000 0.34620  0.07590  0.07600  Biso   1.000  N
  C181     1.0000 0.62760  0.98790  0.57670  Biso   1.000  C
  C182     1.0000 0.68730  0.95620  0.58670  Biso   1.000  C
  C183     1.0000 0.69890  0.91900  0.55390  Biso   1.000  C
  C184     1.0000 0.65420  0.89580  0.49360  Biso   1.000  C
  C185     1.0000 0.79050  0.92700  0.64350  Biso   1.000  C
  C186     1.0000 0.86310  0.91880  0.69540  Biso   1.000  C
  H121     1.0000 0.91280  0.92210  0.66560  Biso   1.000  H
  H122     1.0000 0.86300  0.93690  0.73910  Biso   1.000  H
  H123     1.0000 0.86010  0.89220  0.71480  Biso   1.000  H
  C187     1.0000 0.50500  0.89310  0.28370  Biso   1.000  C
  C188     1.0000 0.58290  0.90900  0.25020  Biso   1.000  C
  C189     1.0000 0.62630  0.94280  0.26020  Biso   1.000  C
  C190     1.0000 0.61670  0.97900  0.30910  Biso   1.000  C
  C191     1.0000 0.68900  0.90700  0.17260  Biso   1.000  C
  C192     1.0000 0.75130  0.89100  0.11640  Biso   1.000  C
  H124     1.0000 0.78090  0.86980  0.14110  Biso   1.000  H
  H125     1.0000 0.72420  0.88130  0.07010  Biso   1.000  H
  H126     1.0000 0.78900  0.91160  0.10200  Biso   1.000  H
  C193     1.0000 0.58920  0.80460  0.01560  Biso   1.000  C
  C194     1.0000 0.50100  0.81480  0.02040  Biso   1.000  C
  C195     1.0000 0.43800  0.81810  0.96720  Biso   1.000  C
  C196     1.0000 0.43030  0.81030  0.88180  Biso   1.000  C
  C197     1.0000 0.39200  0.83680  0.08140  Biso   1.000  C
  C198     1.0000 0.33400  0.84890  0.14590  Biso   1.000  C
  H127     1.0000 0.31550  0.82580  0.17360  Biso   1.000  H
  H128     1.0000 0.36170  0.86620  0.18190  Biso   1.000  H
  H129     1.0000 0.28760  0.86230  0.12340  Biso   1.000  H
  C199     1.0000 0.66820  0.80150  0.69270  Biso   1.000  C
  C200     1.0000 0.69220  0.77070  0.63590  Biso   1.000  C
  C201     1.0000 0.57290  0.00100  0.79650  Biso   1.000  C
  H130     1.0000 0.56110  0.98170  0.75920  Biso   1.000  H
  C202     1.0000 0.51330  0.01090  0.85000  Biso   1.000  C
  H131     1.0000 0.46210  0.99870  0.84810  Biso   1.000  H
  C203     1.0000 0.52970  0.03910  0.90680  Biso   1.000  C
  C204     1.0000 0.60910  0.05410  0.90860  Biso   1.000  C
  H132     1.0000 0.62480  0.07110  0.94900  Biso   1.000  H
  C205     1.0000 0.66390  0.04410  0.85150  Biso   1.000  C
  H133     1.0000 0.71500  0.05640  0.85220  Biso   1.000  H
  C206     1.0000 0.33600  0.04480  0.02900  Biso   1.000  C
  H134     1.0000 0.28690  0.03100  0.03350  Biso   1.000  H
  C207     1.0000 0.39180  0.03140  0.97460  Biso   1.000  C
  H135     1.0000 0.38000  0.00920  0.94410  Biso   1.000  H
  C208     1.0000 0.46700  0.05150  0.96520  Biso   1.000  C
  C209     1.0000 0.47890  0.08350  0.01510  Biso   1.000  C
  H136     1.0000 0.52820  0.09720  0.01250  Biso   1.000  H
  C210     1.0000 0.41970  0.09570  0.06860  Biso   1.000  C
  H137     1.0000 0.42980  0.11770  0.10010  Biso   1.000  H
  H138     1.0000 0.78670  0.72340  0.42510  Biso   1.000  H
  H139     1.0000 0.83760  0.76120  0.44690  Biso   1.000  H
  H140     1.0000 0.75010  0.76550  0.40950  Biso   1.000  H
  Eu8      1.0000 0.01781  0.05374  0.94509  Biso   1.000  Eu
  Zn22     1.0000 0.76122  0.99086  0.21149  Biso   1.000  Zn
  Zn23     1.0000 0.93654  0.16557  0.67236  Biso   1.000  Zn
  Zn24     1.0000 0.23182  0.15983  0.43124  Biso   1.000  Zn
  O99      1.0000 0.93410  0.01502  0.03240  Biso   1.000  O
  O100     1.0000 0.86020  0.97992  0.11370  Biso   1.000  O
  O101     1.0000 0.90170  0.08773  0.95320  Biso   1.000  O
  O102     1.0000 0.82200  0.13899  0.98380  Biso   1.000  O
  O103     1.0000 0.03690  0.08714  0.83140  Biso   1.000  O
  O104     1.0000 0.01520  0.14140  0.76200  Biso   1.000  O
  O105     1.0000 0.94050  0.01717  0.85770  Biso   1.000  O
  O106     1.0000 0.82860  0.99498  0.79890  Biso   1.000  O
  O107     1.0000 0.88060  0.20860  0.45300  Biso   1.000  O
  O108     1.0000 0.86800  0.18820  0.57750  Biso   1.000  O
  O109     1.0000 0.01520  0.20890  0.34480  Biso   1.000  O
  O110     1.0000 0.13380  0.17648  0.34820  Biso   1.000  O
  O111     1.0000 0.86910  0.20730  0.25640  Biso   1.000  O
  O112     1.0000 0.81400  0.16354  0.17380  Biso   1.000  O
  N64      1.0000 0.75240  0.03930  0.14420  Biso   1.000  N
  N65      1.0000 0.73700  0.09885  0.09020  Biso   1.000  N
  N66      1.0000 0.87770  0.11401  0.69540  Biso   1.000  N
  N67      1.0000 0.80670  0.05866  0.70900  Biso   1.000  N
  N68      1.0000 0.02790  0.17260  0.59400  Biso   1.000  N
  N69      1.0000 0.13030  0.16730  0.50590  Biso   1.000  N
  N70      1.0000 0.77350  0.21667  0.06640  Biso   1.000  N
  N71      1.0000 0.85090  0.98190  0.29520  Biso   1.000  N
  N72      1.0000 0.15380  0.92410  0.57600  Biso   1.000  N
  C211     1.0000 0.87240  0.01210  0.07670  Biso   1.000  C
  C212     1.0000 0.81270  0.04380  0.08670  Biso   1.000  C
  C213     1.0000 0.80110  0.08100  0.05390  Biso   1.000  C
  C214     1.0000 0.84580  0.10420  0.99360  Biso   1.000  C
  C215     1.0000 0.70950  0.07300  0.14350  Biso   1.000  C
  C216     1.0000 0.63690  0.08120  0.19540  Biso   1.000  C
  H141     1.0000 0.58720  0.07790  0.16560  Biso   1.000  H
  H142     1.0000 0.63700  0.06310  0.23910  Biso   1.000  H
  H143     1.0000 0.63990  0.10780  0.21480  Biso   1.000  H
  C217     1.0000 0.99500  0.10690  0.78370  Biso   1.000  C
  C218     1.0000 0.91710  0.09100  0.75020  Biso   1.000  C
  C219     1.0000 0.87370  0.05720  0.76020  Biso   1.000  C
  C220     1.0000 0.88330  0.02100  0.80910  Biso   1.000  C
  C221     1.0000 0.81100  0.09300  0.67260  Biso   1.000  C
  C222     1.0000 0.74870  0.10900  0.61640  Biso   1.000  C
  H144     1.0000 0.71910  0.13020  0.64110  Biso   1.000  H
  H145     1.0000 0.77580  0.11870  0.57010  Biso   1.000  H
  H146     1.0000 0.71100  0.08840  0.60200  Biso   1.000  H
  C223     1.0000 0.91080  0.19540  0.51560  Biso   1.000  C
  C224     1.0000 0.99900  0.18520  0.52040  Biso   1.000  C
  C225     1.0000 0.06200  0.18190  0.46720  Biso   1.000  C
  C226     1.0000 0.06970  0.18970  0.38180  Biso   1.000  C
  C227     1.0000 0.10800  0.16320  0.58140  Biso   1.000  C
  C228     1.0000 0.16600  0.15110  0.64590  Biso   1.000  C
  H147     1.0000 0.18450  0.17420  0.67360  Biso   1.000  H
  H148     1.0000 0.13830  0.13380  0.68190  Biso   1.000  H
  H149     1.0000 0.21240  0.13770  0.62340  Biso   1.000  H
  C229     1.0000 0.83180  0.19850  0.19270  Biso   1.000  C
  C230     1.0000 0.80780  0.22930  0.13590  Biso   1.000  C
  C231     1.0000 0.92710  0.99900  0.29650  Biso   1.000  C
  H150     1.0000 0.93890  0.01830  0.25920  Biso   1.000  H
  C232     1.0000 0.98670  0.98910  0.35000  Biso   1.000  C
  H151     1.0000 0.03790  0.00130  0.34810  Biso   1.000  H
  C233     1.0000 0.97030  0.96090  0.40680  Biso   1.000  C
  C234     1.0000 0.89090  0.94590  0.40860  Biso   1.000  C
  H152     1.0000 0.87520  0.92890  0.44900  Biso   1.000  H
  C235     1.0000 0.83610  0.95590  0.35150  Biso   1.000  C
  H153     1.0000 0.78500  0.94360  0.35220  Biso   1.000  H
  C236     1.0000 0.16400  0.95520  0.52900  Biso   1.000  C
  H154     1.0000 0.21310  0.96900  0.53350  Biso   1.000  H
  C237     1.0000 0.10820  0.96860  0.47460  Biso   1.000  C
  H155     1.0000 0.12000  0.99080  0.44410  Biso   1.000  H
  C238     1.0000 0.03300  0.94850  0.46520  Biso   1.000  C
  C239     1.0000 0.02110  0.91650  0.51510  Biso   1.000  C
  H156     1.0000 0.97180  0.90280  0.51250  Biso   1.000  H
  C240     1.0000 0.08030  0.90430  0.56860  Biso   1.000  C
  H157     1.0000 0.07020  0.88230  0.60010  Biso   1.000  H
  H158     1.0000 0.71330  0.27660  0.92510  Biso   1.000  H
  H159     1.0000 0.66240  0.23880  0.94690  Biso   1.000  H
  H160     1.0000 0.74990  0.23450  0.90950  Biso   1.000  H
  Eu9      1.0000 0.59507  0.75000  0.84996  Biso   1.000  Eu
  C241     1.0000 0.74540  0.75000  0.52630  Biso   1.000  C
  C242     1.0000 0.78350  0.75000  0.44440  Biso   1.000  C
  Eu10     1.0000 0.90493  0.25000  0.34996  Biso   1.000  Eu
  C243     1.0000 0.75460  0.25000  0.02630  Biso   1.000  C
  C244     1.0000 0.71650  0.25000  0.94440  Biso   1.000  C
  Eu11     1.0000 0.40493  0.25000  0.15004  Biso   1.000  Eu
  C245     1.0000 0.25460  0.25000  0.47370  Biso   1.000  C
  C246     1.0000 0.21650  0.25000  0.55560  Biso   1.000  C
  Eu12     1.0000 0.09507  0.75000  0.65004  Biso   1.000  Eu
  C247     1.0000 0.24540  0.75000  0.97370  Biso   1.000  C
  C248     1.0000 0.28350  0.75000  0.05560  Biso   1.000  C
